MODEL 1
REMARK VINA RESULT:      -7.1      0.000      0.000
REMARK  5 active torsions:
REMARK  status: ('A' for Active; 'I' for Inactive)
REMARK    1  A    between atoms: C4_4  and  C5_5 
REMARK    2  A    between atoms: C8_8  and  O9_9 
REMARK    3  A    between atoms: C10_11  and  O11_12 
REMARK    4  A    between atoms: C16_18  and  O17_19 
REMARK    5  A    between atoms: C19_22  and  O20_23 
ROOT
HETATM    1  O1          0      45.002  92.644   5.774  1.00  0.00    -0.286 OA
HETATM    2  C2          0      44.927  91.655   6.553  1.00  0.00     0.201 C 
HETATM    3  C3          0      46.044  90.997   7.040  1.00  0.00     0.067 C 
HETATM    4  C4          0      45.933  89.847   7.813  1.00  0.00     0.103 C 
HETATM    5  O13         0      44.728  89.391   8.103  1.00  0.00    -0.307 OA
HETATM    6  C14         0      43.636  89.955   7.635  1.00  0.00     0.107 C 
HETATM    7  C15         0      42.425  89.279   7.592  1.00  0.00     0.049 C 
HETATM    8  C16         0      41.345  89.778   6.872  1.00  0.00     0.093 C 
HETATM    9  C18         0      41.357  91.153   6.674  1.00  0.00     0.048 C 
HETATM   10  C19         0      42.545  91.868   6.757  1.00  0.00     0.096 C 
HETATM   11  C21         0      43.710  91.215   7.052  1.00  0.00     0.084 C 
ENDROOT
BRANCH  10  12
HETATM   12  O20         0      42.632  93.115   6.146  1.00  0.00    -0.359 OA
HETATM   13  H20         0      43.464  93.367   5.766  1.00  0.00     0.218 HD
ENDBRANCH  10  12
BRANCH   4  14
HETATM   14  C5          0      47.054  88.906   7.778  1.00  0.00     0.025 C 
HETATM   15  C6          0      46.987  87.636   8.333  1.00  0.00     0.004 C 
HETATM   16  C7          0      47.615  86.600   7.649  1.00  0.00     0.026 C 
HETATM   17  C8          0      48.398  86.837   6.525  1.00  0.00     0.112 C 
HETATM   18  C10         0      48.909  88.125   6.435  1.00  0.00     0.112 C 
HETATM   19  C12         0      48.214  89.156   7.057  1.00  0.00     0.028 C 
BRANCH  17  20
HETATM   20  O9          0      48.463  85.912   5.498  1.00  0.00    -0.357 OA
HETATM   21  H9          0      48.822  86.101   4.639  1.00  0.00     0.218 HD
ENDBRANCH  17  20
BRANCH  18  22
HETATM   22  O11         0      49.845  88.362   5.439  1.00  0.00    -0.357 OA
HETATM   23  H11         0      49.649  89.056   4.820  1.00  0.00     0.218 HD
ENDBRANCH  18  22
ENDBRANCH   4  14
BRANCH   8  24
HETATM   24  O17         0      40.513  88.934   6.128  1.00  0.00    -0.359 OA
HETATM   25  H17         0      40.839  88.438   5.387  1.00  0.00     0.218 HD
ENDBRANCH   8  24
TORSDOF 5
ENDMDL
MODEL 2
REMARK VINA RESULT:      -6.1      1.584      2.090
REMARK  5 active torsions:
REMARK  status: ('A' for Active; 'I' for Inactive)
REMARK    1  A    between atoms: C4_4  and  C5_5 
REMARK    2  A    between atoms: C8_8  and  O9_9 
REMARK    3  A    between atoms: C10_11  and  O11_12 
REMARK    4  A    between atoms: C16_18  and  O17_19 
REMARK    5  A    between atoms: C19_22  and  O20_23 
ROOT
HETATM    1  O1          0      45.039  92.602   5.847  1.00  0.00    -0.286 OA
HETATM    2  C2          0      44.926  91.601   6.607  1.00  0.00     0.201 C 
HETATM    3  C3          0      46.017  90.912   7.109  1.00  0.00     0.067 C 
HETATM    4  C4          0      45.864  89.752   7.860  1.00  0.00     0.103 C 
HETATM    5  O13         0      44.642  89.316   8.113  1.00  0.00    -0.307 OA
HETATM    6  C14         0      43.574  89.912   7.629  1.00  0.00     0.107 C 
HETATM    7  C15         0      42.350  89.262   7.546  1.00  0.00     0.049 C 
HETATM    8  C16         0      41.299  89.796   6.810  1.00  0.00     0.093 C 
HETATM    9  C18         0      41.344  91.174   6.636  1.00  0.00     0.048 C 
HETATM   10  C19         0      42.544  91.861   6.758  1.00  0.00     0.096 C 
HETATM   11  C21         0      43.688  91.179   7.070  1.00  0.00     0.084 C 
ENDROOT
BRANCH  10  12
HETATM   12  O20         0      42.671  93.117   6.172  1.00  0.00    -0.359 OA
HETATM   13  H20         0      42.366  93.870   6.662  1.00  0.00     0.218 HD
ENDBRANCH  10  12
BRANCH   4  14
HETATM   14  C5          0      46.965  88.788   7.835  1.00  0.00     0.025 C 
HETATM   15  C6          0      48.221  89.093   7.331  1.00  0.00     0.004 C 
HETATM   16  C7          0      49.326  88.572   7.995  1.00  0.00     0.026 C 
HETATM   17  C8          0      49.188  87.669   9.044  1.00  0.00     0.112 C 
HETATM   18  C10         0      47.992  86.963   9.047  1.00  0.00     0.112 C 
HETATM   19  C12         0      46.880  87.545   8.450  1.00  0.00     0.028 C 
BRANCH  17  20
HETATM   20  O9          0      50.091  87.657  10.092  1.00  0.00    -0.357 OA
HETATM   21  H9          0      50.146  88.341  10.749  1.00  0.00     0.218 HD
ENDBRANCH  17  20
BRANCH  18  22
HETATM   22  O11         0      47.881  85.920   9.955  1.00  0.00    -0.357 OA
HETATM   23  H11         0      48.653  85.714  10.470  1.00  0.00     0.218 HD
ENDBRANCH  18  22
ENDBRANCH   4  14
BRANCH   8  24
HETATM   24  O17         0      40.467  88.983   6.032  1.00  0.00    -0.359 OA
HETATM   25  H17         0      40.225  89.220   5.145  1.00  0.00     0.218 HD
ENDBRANCH   8  24
TORSDOF 5
ENDMDL
MODEL 3
REMARK VINA RESULT:      -6.0      3.161      6.658
REMARK  5 active torsions:
REMARK  status: ('A' for Active; 'I' for Inactive)
REMARK    1  A    between atoms: C4_4  and  C5_5 
REMARK    2  A    between atoms: C8_8  and  O9_9 
REMARK    3  A    between atoms: C10_11  and  O11_12 
REMARK    4  A    between atoms: C16_18  and  O17_19 
REMARK    5  A    between atoms: C19_22  and  O20_23 
ROOT
HETATM    1  O1          0      45.246  93.739   9.721  1.00  0.00    -0.286 OA
HETATM    2  C2          0      44.901  93.520   8.528  1.00  0.00     0.201 C 
HETATM    3  C3          0      43.577  93.465   8.128  1.00  0.00     0.067 C 
HETATM    4  C4          0      43.222  93.120   6.828  1.00  0.00     0.103 C 
HETATM    5  O13         0      44.181  92.860   5.957  1.00  0.00    -0.307 OA
HETATM    6  C14         0      45.452  92.861   6.294  1.00  0.00     0.107 C 
HETATM    7  C15         0      46.412  92.216   5.528  1.00  0.00     0.049 C 
HETATM    8  C16         0      47.697  92.002   6.011  1.00  0.00     0.093 C 
HETATM    9  C18         0      48.107  92.888   7.000  1.00  0.00     0.048 C 
HETATM   10  C19         0      47.173  93.585   7.755  1.00  0.00     0.096 C 
HETATM   11  C21         0      45.838  93.411   7.511  1.00  0.00     0.084 C 
ENDROOT
BRANCH  10  12
HETATM   12  O20         0      47.549  94.109   8.988  1.00  0.00    -0.359 OA
HETATM   13  H20         0      47.568  93.522   9.734  1.00  0.00     0.218 HD
ENDBRANCH  10  12
BRANCH   4  14
HETATM   14  C5          0      41.907  92.507   6.633  1.00  0.00     0.025 C 
HETATM   15  C6          0      40.927  93.071   5.829  1.00  0.00     0.004 C 
HETATM   16  C7          0      40.146  92.210   5.065  1.00  0.00     0.026 C 
HETATM   17  C8          0      40.243  90.828   5.195  1.00  0.00     0.112 C 
HETATM   18  C10         0      40.748  90.395   6.414  1.00  0.00     0.112 C 
HETATM   19  C12         0      41.595  91.243   7.117  1.00  0.00     0.028 C 
BRANCH  17  20
HETATM   20  O9          0      40.046  89.998   4.106  1.00  0.00    -0.357 OA
HETATM   21  H9          0      40.499  89.172   3.983  1.00  0.00     0.218 HD
ENDBRANCH  17  20
BRANCH  18  22
HETATM   22  O11         0      40.690  89.032   6.669  1.00  0.00    -0.357 OA
HETATM   23  H11         0      41.510  88.552   6.633  1.00  0.00     0.218 HD
ENDBRANCH  18  22
ENDBRANCH   4  14
BRANCH   8  24
HETATM   24  O17         0      48.377  90.803   5.770  1.00  0.00    -0.359 OA
HETATM   25  H17         0      48.978  90.434   6.406  1.00  0.00     0.218 HD
ENDBRANCH   8  24
TORSDOF 5
ENDMDL
MODEL 4
REMARK VINA RESULT:      -5.8      3.504      6.403
REMARK  5 active torsions:
REMARK  status: ('A' for Active; 'I' for Inactive)
REMARK    1  A    between atoms: C4_4  and  C5_5 
REMARK    2  A    between atoms: C8_8  and  O9_9 
REMARK    3  A    between atoms: C10_11  and  O11_12 
REMARK    4  A    between atoms: C16_18  and  O17_19 
REMARK    5  A    between atoms: C19_22  and  O20_23 
ROOT
HETATM    1  O1          0      46.923  92.586   5.666  1.00  0.00    -0.286 OA
HETATM    2  C2          0      46.143  92.600   6.657  1.00  0.00     0.201 C 
HETATM    3  C3          0      45.118  91.684   6.818  1.00  0.00     0.067 C 
HETATM    4  C4          0      44.209  91.784   7.866  1.00  0.00     0.103 C 
HETATM    5  O13         0      44.347  92.770   8.734  1.00  0.00    -0.307 OA
HETATM    6  C14         0      45.280  93.688   8.606  1.00  0.00     0.107 C 
HETATM    7  C15         0      45.192  94.914   9.251  1.00  0.00     0.049 C 
HETATM    8  C16         0      46.036  95.966   8.918  1.00  0.00     0.093 C 
HETATM    9  C18         0      47.245  95.591   8.346  1.00  0.00     0.048 C 
HETATM   10  C19         0      47.382  94.352   7.734  1.00  0.00     0.096 C 
HETATM   11  C21         0      46.322  93.487   7.707  1.00  0.00     0.084 C 
ENDROOT
BRANCH  10  12
HETATM   12  O20         0      48.404  94.159   6.810  1.00  0.00    -0.359 OA
HETATM   13  H20         0      48.279  94.493   5.930  1.00  0.00     0.218 HD
ENDBRANCH  10  12
BRANCH   4  14
HETATM   14  C5          0      42.877  91.213   7.654  1.00  0.00     0.025 C 
HETATM   15  C6          0      41.709  91.922   7.892  1.00  0.00     0.004 C 
HETATM   16  C7          0      40.650  91.735   7.009  1.00  0.00     0.026 C 
HETATM   17  C8          0      40.700  90.777   6.002  1.00  0.00     0.112 C 
HETATM   18  C10         0      41.587  89.735   6.237  1.00  0.00     0.112 C 
HETATM   19  C12         0      42.685  89.974   7.056  1.00  0.00     0.028 C 
BRANCH  17  20
HETATM   20  O9          0      40.067  90.988   4.790  1.00  0.00    -0.357 OA
HETATM   21  H9          0      39.211  90.636   4.573  1.00  0.00     0.218 HD
ENDBRANCH  17  20
BRANCH  18  22
HETATM   22  O11         0      41.541  88.661   5.361  1.00  0.00    -0.357 OA
HETATM   23  H11         0      41.327  88.853   4.455  1.00  0.00     0.218 HD
ENDBRANCH  18  22
ENDBRANCH   4  14
BRANCH   8  24
HETATM   24  O17         0      45.567  97.283   8.849  1.00  0.00    -0.359 OA
HETATM   25  H17         0      46.143  98.007   8.635  1.00  0.00     0.218 HD
ENDBRANCH   8  24
TORSDOF 5
ENDMDL
MODEL 5
REMARK VINA RESULT:      -5.7      3.137      5.662
REMARK  5 active torsions:
REMARK  status: ('A' for Active; 'I' for Inactive)
REMARK    1  A    between atoms: C4_4  and  C5_5 
REMARK    2  A    between atoms: C8_8  and  O9_9 
REMARK    3  A    between atoms: C10_11  and  O11_12 
REMARK    4  A    between atoms: C16_18  and  O17_19 
REMARK    5  A    between atoms: C19_22  and  O20_23 
ROOT
HETATM    1  O1          0      44.991  89.054   7.957  1.00  0.00    -0.286 OA
HETATM    2  C2          0      44.666  90.262   7.790  1.00  0.00     0.201 C 
HETATM    3  C3          0      45.596  91.266   7.576  1.00  0.00     0.067 C 
HETATM    4  C4          0      45.220  92.602   7.498  1.00  0.00     0.103 C 
HETATM    5  O13         0      43.939  92.909   7.612  1.00  0.00    -0.307 OA
HETATM    6  C14         0      43.021  91.999   7.853  1.00  0.00     0.107 C 
HETATM    7  C15         0      41.775  92.335   8.363  1.00  0.00     0.049 C 
HETATM    8  C16         0      40.910  91.364   8.853  1.00  0.00     0.093 C 
HETATM    9  C18         0      41.105  90.089   8.335  1.00  0.00     0.048 C 
HETATM   10  C19         0      42.325  89.734   7.774  1.00  0.00     0.096 C 
HETATM   11  C21         0      43.338  90.652   7.717  1.00  0.00     0.084 C 
ENDROOT
BRANCH  10  12
HETATM   12  O20         0      42.657  88.387   7.666  1.00  0.00    -0.359 OA
HETATM   13  H20         0      42.263  87.781   8.281  1.00  0.00     0.218 HD
ENDBRANCH  10  12
BRANCH   4  14
HETATM   14  C5          0      46.220  93.603   7.873  1.00  0.00     0.025 C 
HETATM   15  C6          0      47.529  93.567   7.413  1.00  0.00     0.004 C 
HETATM   16  C7          0      48.136  94.779   7.102  1.00  0.00     0.026 C 
HETATM   17  C8          0      47.514  95.995   7.365  1.00  0.00     0.112 C 
HETATM   18  C10         0      46.549  95.949   8.362  1.00  0.00     0.112 C 
HETATM   19  C12         0      45.897  94.744   8.595  1.00  0.00     0.028 C 
BRANCH  17  20
HETATM   20  O9          0      47.713  97.086   6.537  1.00  0.00    -0.357 OA
HETATM   21  H9          0      47.687  97.987   6.837  1.00  0.00     0.218 HD
ENDBRANCH  17  20
BRANCH  18  22
HETATM   22  O11         0      46.034  97.163   8.794  1.00  0.00    -0.357 OA
HETATM   23  H11         0      45.239  97.132   9.313  1.00  0.00     0.218 HD
ENDBRANCH  18  22
ENDBRANCH   4  14
BRANCH   8  24
HETATM   24  O17         0      40.148  91.581  10.006  1.00  0.00    -0.359 OA
HETATM   25  H17         0      39.843  92.448  10.247  1.00  0.00     0.218 HD
ENDBRANCH   8  24
TORSDOF 5
ENDMDL
MODEL 6
REMARK VINA RESULT:      -5.6      3.579      6.466
REMARK  5 active torsions:
REMARK  status: ('A' for Active; 'I' for Inactive)
REMARK    1  A    between atoms: C4_4  and  C5_5 
REMARK    2  A    between atoms: C8_8  and  O9_9 
REMARK    3  A    between atoms: C10_11  and  O11_12 
REMARK    4  A    between atoms: C16_18  and  O17_19 
REMARK    5  A    between atoms: C19_22  and  O20_23 
ROOT
HETATM    1  O1          0      47.506  93.199   6.127  1.00  0.00    -0.286 OA
HETATM    2  C2          0      46.611  93.081   7.010  1.00  0.00     0.201 C 
HETATM    3  C3          0      45.717  92.025   7.035  1.00  0.00     0.067 C 
HETATM    4  C4          0      44.677  91.972   7.956  1.00  0.00     0.103 C 
HETATM    5  O13         0      44.561  92.948   8.838  1.00  0.00    -0.307 OA
HETATM    6  C14         0      45.360  93.993   8.835  1.00  0.00     0.107 C 
HETATM    7  C15         0      45.016  95.179   9.467  1.00  0.00     0.049 C 
HETATM    8  C16         0      45.735  96.348   9.248  1.00  0.00     0.093 C 
HETATM    9  C18         0      47.049  96.161   8.836  1.00  0.00     0.048 C 
HETATM   10  C19         0      47.438  94.968   8.242  1.00  0.00     0.096 C 
HETATM   11  C21         0      46.526  93.962   8.077  1.00  0.00     0.084 C 
ENDROOT
BRANCH  10  12
HETATM   12  O20         0      48.587  94.942   7.458  1.00  0.00    -0.359 OA
HETATM   13  H20         0      48.747  94.171   6.927  1.00  0.00     0.218 HD
ENDBRANCH  10  12
BRANCH   4  14
HETATM   14  C5          0      43.480  91.222   7.573  1.00  0.00     0.025 C 
HETATM   15  C6          0      43.495  89.858   7.320  1.00  0.00     0.004 C 
HETATM   16  C7          0      42.403  89.110   7.749  1.00  0.00     0.026 C 
HETATM   17  C8          0      41.274  89.714   8.290  1.00  0.00     0.112 C 
HETATM   18  C10         0      41.093  91.041   7.923  1.00  0.00     0.112 C 
HETATM   19  C12         0      42.212  91.790   7.580  1.00  0.00     0.028 C 
BRANCH  17  20
HETATM   20  O9          0      40.536  89.082   9.275  1.00  0.00    -0.357 OA
HETATM   21  H9          0      40.891  88.423   9.860  1.00  0.00     0.218 HD
ENDBRANCH  17  20
BRANCH  18  22
HETATM   22  O11         0      39.889  91.633   8.278  1.00  0.00    -0.357 OA
HETATM   23  H11         0      39.270  91.094   8.757  1.00  0.00     0.218 HD
ENDBRANCH  18  22
ENDBRANCH   4  14
BRANCH   8  24
HETATM   24  O17         0      45.094  97.586   9.124  1.00  0.00    -0.359 OA
HETATM   25  H17         0      44.240  97.667   8.716  1.00  0.00     0.218 HD
ENDBRANCH   8  24
TORSDOF 5
ENDMDL
MODEL 7
REMARK VINA RESULT:      -5.4      2.122      6.474
REMARK  5 active torsions:
REMARK  status: ('A' for Active; 'I' for Inactive)
REMARK    1  A    between atoms: C4_4  and  C5_5 
REMARK    2  A    between atoms: C8_8  and  O9_9 
REMARK    3  A    between atoms: C10_11  and  O11_12 
REMARK    4  A    between atoms: C16_18  and  O17_19 
REMARK    5  A    between atoms: C19_22  and  O20_23 
ROOT
HETATM    1  O1          0      48.221  91.685   8.922  1.00  0.00    -0.286 OA
HETATM    2  C2          0      47.380  90.824   8.543  1.00  0.00     0.201 C 
HETATM    3  C3          0      46.138  91.162   8.035  1.00  0.00     0.067 C 
HETATM    4  C4          0      45.191  90.194   7.721  1.00  0.00     0.103 C 
HETATM    5  O13         0      45.502  88.921   7.896  1.00  0.00    -0.307 OA
HETATM    6  C14         0      46.654  88.548   8.410  1.00  0.00     0.107 C 
HETATM    7  C15         0      46.833  87.287   8.960  1.00  0.00     0.049 C 
HETATM    8  C16         0      47.956  86.986   9.723  1.00  0.00     0.093 C 
HETATM    9  C18         0      49.071  87.773   9.462  1.00  0.00     0.048 C 
HETATM   10  C19         0      48.931  89.020   8.869  1.00  0.00     0.096 C 
HETATM   11  C21         0      47.687  89.472   8.523  1.00  0.00     0.084 C 
ENDROOT
BRANCH  10  12
HETATM   12  O20         0      49.950  89.958   9.008  1.00  0.00    -0.359 OA
HETATM   13  H20         0      49.706  90.873   9.081  1.00  0.00     0.218 HD
ENDBRANCH  10  12
BRANCH   4  14
HETATM   14  C5          0      43.783  90.589   7.781  1.00  0.00     0.025 C 
HETATM   15  C6          0      43.374  91.915   7.806  1.00  0.00     0.004 C 
HETATM   16  C7          0      42.229  92.250   7.092  1.00  0.00     0.026 C 
HETATM   17  C8          0      41.438  91.281   6.484  1.00  0.00     0.112 C 
HETATM   18  C10         0      41.557  90.010   7.030  1.00  0.00     0.112 C 
HETATM   19  C12         0      42.746  89.672   7.665  1.00  0.00     0.028 C 
BRANCH  17  20
HETATM   20  O9          0      40.769  91.551   5.304  1.00  0.00    -0.357 OA
HETATM   21  H9          0      39.951  91.136   5.054  1.00  0.00     0.218 HD
ENDBRANCH  17  20
BRANCH  18  22
HETATM   22  O11         0      40.657  89.050   6.589  1.00  0.00    -0.357 OA
HETATM   23  H11         0      40.042  89.315   5.914  1.00  0.00     0.218 HD
ENDBRANCH  18  22
ENDBRANCH   4  14
BRANCH   8  24
HETATM   24  O17         0      47.864  86.199  10.876  1.00  0.00    -0.359 OA
HETATM   25  H17         0      47.025  85.914  11.220  1.00  0.00     0.218 HD
ENDBRANCH   8  24
TORSDOF 5
ENDMDL
MODEL 8
REMARK VINA RESULT:      -5.3      2.357      3.656
REMARK  5 active torsions:
REMARK  status: ('A' for Active; 'I' for Inactive)
REMARK    1  A    between atoms: C4_4  and  C5_5 
REMARK    2  A    between atoms: C8_8  and  O9_9 
REMARK    3  A    between atoms: C10_11  and  O11_12 
REMARK    4  A    between atoms: C16_18  and  O17_19 
REMARK    5  A    between atoms: C19_22  and  O20_23 
ROOT
HETATM    1  O1          0      41.810  88.980   7.453  1.00  0.00    -0.286 OA
HETATM    2  C2          0      42.803  89.750   7.567  1.00  0.00     0.201 C 
HETATM    3  C3          0      44.111  89.301   7.504  1.00  0.00     0.067 C 
HETATM    4  C4          0      45.186  90.153   7.735  1.00  0.00     0.103 C 
HETATM    5  O13         0      44.942  91.425   8.001  1.00  0.00    -0.307 OA
HETATM    6  C14         0      43.718  91.894   8.109  1.00  0.00     0.107 C 
HETATM    7  C15         0      43.448  93.087   8.764  1.00  0.00     0.049 C 
HETATM    8  C16         0      42.149  93.449   9.097  1.00  0.00     0.093 C 
HETATM    9  C18         0      41.159  92.873   8.310  1.00  0.00     0.048 C 
HETATM   10  C19         0      41.409  91.704   7.604  1.00  0.00     0.096 C 
HETATM   11  C21         0      42.647  91.124   7.670  1.00  0.00     0.084 C 
ENDROOT
BRANCH  10  12
HETATM   12  O20         0      40.340  90.916   7.192  1.00  0.00    -0.359 OA
HETATM   13  H20         0      39.591  90.842   7.772  1.00  0.00     0.218 HD
ENDBRANCH  10  12
BRANCH   4  14
HETATM   14  C5          0      46.421  89.552   8.242  1.00  0.00     0.025 C 
HETATM   15  C6          0      47.416  90.290   8.865  1.00  0.00     0.004 C 
HETATM   16  C7          0      48.068  89.709   9.948  1.00  0.00     0.026 C 
HETATM   17  C8          0      47.835  88.388  10.316  1.00  0.00     0.112 C 
HETATM   18  C10         0      47.343  87.581   9.299  1.00  0.00     0.112 C 
HETATM   19  C12         0      46.621  88.178   8.272  1.00  0.00     0.028 C 
BRANCH  17  20
HETATM   20  O9          0      47.895  88.001  11.643  1.00  0.00    -0.357 OA
HETATM   21  H9          0      48.696  87.730  12.078  1.00  0.00     0.218 HD
ENDBRANCH  17  20
BRANCH  18  22
HETATM   22  O11         0      47.272  86.219   9.557  1.00  0.00    -0.357 OA
HETATM   23  H11         0      46.481  85.902   9.977  1.00  0.00     0.218 HD
ENDBRANCH  18  22
ENDBRANCH   4  14
BRANCH   8  24
HETATM   24  O17         0      41.853  94.061  10.321  1.00  0.00    -0.359 OA
HETATM   25  H17         0      41.193  93.711  10.907  1.00  0.00     0.218 HD
ENDBRANCH   8  24
TORSDOF 5
ENDMDL
MODEL 9
REMARK VINA RESULT:      -5.3      3.326      6.564
REMARK  5 active torsions:
REMARK  status: ('A' for Active; 'I' for Inactive)
REMARK    1  A    between atoms: C4_4  and  C5_5 
REMARK    2  A    between atoms: C8_8  and  O9_9 
REMARK    3  A    between atoms: C10_11  and  O11_12 
REMARK    4  A    between atoms: C16_18  and  O17_19 
REMARK    5  A    between atoms: C19_22  and  O20_23 
ROOT
HETATM    1  O1          0      46.066  93.788   9.627  1.00  0.00    -0.286 OA
HETATM    2  C2          0      45.492  93.465   8.551  1.00  0.00     0.201 C 
HETATM    3  C3          0      44.130  93.228   8.469  1.00  0.00     0.067 C 
HETATM    4  C4          0      43.539  92.774   7.296  1.00  0.00     0.103 C 
HETATM    5  O13         0      44.301  92.587   6.232  1.00  0.00    -0.307 OA
HETATM    6  C14         0      45.604  92.761   6.267  1.00  0.00     0.107 C 
HETATM    7  C15         0      46.442  92.198   5.315  1.00  0.00     0.049 C 
HETATM    8  C16         0      47.820  92.168   5.493  1.00  0.00     0.093 C 
HETATM    9  C18         0      48.323  93.148   6.340  1.00  0.00     0.048 C 
HETATM   10  C19         0      47.501  93.765   7.273  1.00  0.00     0.096 C 
HETATM   11  C21         0      46.180  93.418   7.349  1.00  0.00     0.084 C 
ENDROOT
BRANCH  10  12
HETATM   12  O20         0      48.074  94.396   8.373  1.00  0.00    -0.359 OA
HETATM   13  H20         0      48.448  95.259   8.246  1.00  0.00     0.218 HD
ENDBRANCH  10  12
BRANCH   4  14
HETATM   14  C5          0      42.305  91.997   7.424  1.00  0.00     0.025 C 
HETATM   15  C6          0      42.082  90.819   6.727  1.00  0.00     0.004 C 
HETATM   16  C7          0      41.417  89.793   7.391  1.00  0.00     0.026 C 
HETATM   17  C8          0      40.872  89.976   8.657  1.00  0.00     0.112 C 
HETATM   18  C10         0      40.590  91.297   8.981  1.00  0.00     0.112 C 
HETATM   19  C12         0      41.329  92.300   8.365  1.00  0.00     0.028 C 
BRANCH  17  20
HETATM   20  O9          0      40.829  88.935   9.567  1.00  0.00    -0.357 OA
HETATM   21  H9          0      40.118  88.307   9.617  1.00  0.00     0.218 HD
ENDBRANCH  17  20
BRANCH  18  22
HETATM   22  O11         0      39.875  91.518  10.149  1.00  0.00    -0.357 OA
HETATM   23  H11         0      39.850  92.410  10.476  1.00  0.00     0.218 HD
ENDBRANCH  18  22
ENDBRANCH   4  14
BRANCH   8  24
HETATM   24  O17         0      48.578  91.049   5.130  1.00  0.00    -0.359 OA
HETATM   25  H17         0      49.393  90.836   5.567  1.00  0.00     0.218 HD
ENDBRANCH   8  24
TORSDOF 5
ENDMDL
