MODEL 1
REMARK VINA RESULT:      -0.1      0.000      0.000
REMARK  5 active torsions:
REMARK  status: ('A' for Active; 'I' for Inactive)
REMARK    1  A    between atoms: C4_4  and  C5_5 
REMARK    2  A    between atoms: C8_8  and  O9_9 
REMARK    3  A    between atoms: C10_11  and  O11_12 
REMARK    4  A    between atoms: C16_18  and  O17_19 
REMARK    5  A    between atoms: C19_22  and  O20_23 
ROOT
HETATM    1  O1          0      64.512  75.352   6.869  1.00  0.00    -0.286 OA
HETATM    2  C2          0      64.839  74.164   6.596  1.00  0.00     0.201 C 
HETATM    3  C3          0      63.912  73.147   6.446  1.00  0.00     0.067 C 
HETATM    4  C4          0      64.304  71.828   6.247  1.00  0.00     0.103 C 
HETATM    5  O13         0      65.594  71.552   6.181  1.00  0.00    -0.307 OA
HETATM    6  C14         0      66.516  72.474   6.354  1.00  0.00     0.107 C 
HETATM    7  C15         0      67.824  72.148   6.683  1.00  0.00     0.049 C 
HETATM    8  C16         0      68.723  73.116   7.112  1.00  0.00     0.093 C 
HETATM    9  C18         0      68.436  74.410   6.694  1.00  0.00     0.048 C 
HETATM   10  C19         0      67.147  74.759   6.313  1.00  0.00     0.096 C 
HETATM   11  C21         0      66.155  73.817   6.333  1.00  0.00     0.084 C 
ENDROOT
BRANCH  10  12
HETATM   12  O20         0      66.775  76.100   6.322  1.00  0.00    -0.359 OA
HETATM   13  H20         0      67.160  76.673   5.671  1.00  0.00     0.218 HD
ENDBRANCH  10  12
BRANCH   4  14
HETATM   14  C5          0      63.381  70.781   6.690  1.00  0.00     0.025 C 
HETATM   15  C6          0      63.456  70.195   7.945  1.00  0.00     0.004 C 
HETATM   16  C7          0      62.259  69.894   8.588  1.00  0.00     0.026 C 
HETATM   17  C8          0      61.032  70.045   7.952  1.00  0.00     0.112 C 
HETATM   18  C10         0      61.090  70.015   6.565  1.00  0.00     0.112 C 
HETATM   19  C12         0      62.272  70.403   5.945  1.00  0.00     0.028 C 
BRANCH  17  20
HETATM   20  O9          0      59.903  70.406   8.666  1.00  0.00    -0.357 OA
HETATM   21  H9          0      59.896  70.549   9.606  1.00  0.00     0.218 HD
ENDBRANCH  17  20
BRANCH  18  22
HETATM   22  O11         0      59.880  69.971   5.887  1.00  0.00    -0.357 OA
HETATM   23  H11         0      59.914  69.765   4.960  1.00  0.00     0.218 HD
ENDBRANCH  18  22
ENDBRANCH   4  14
BRANCH   8  24
HETATM   24  O17         0      69.631  72.862   8.145  1.00  0.00    -0.359 OA
HETATM   25  H17         0      70.137  73.557   8.548  1.00  0.00     0.218 HD
ENDBRANCH   8  24
TORSDOF 5
ENDMDL
MODEL 2
REMARK VINA RESULT:      -0.1      2.098      6.537
REMARK  5 active torsions:
REMARK  status: ('A' for Active; 'I' for Inactive)
REMARK    1  A    between atoms: C4_4  and  C5_5 
REMARK    2  A    between atoms: C8_8  and  O9_9 
REMARK    3  A    between atoms: C10_11  and  O11_12 
REMARK    4  A    between atoms: C16_18  and  O17_19 
REMARK    5  A    between atoms: C19_22  and  O20_23 
ROOT
HETATM    1  O1          0      62.633  73.945   9.194  1.00  0.00    -0.286 OA
HETATM    2  C2          0      63.173  73.181   8.347  1.00  0.00     0.201 C 
HETATM    3  C3          0      64.331  73.516   7.665  1.00  0.00     0.067 C 
HETATM    4  C4          0      64.848  72.702   6.664  1.00  0.00     0.103 C 
HETATM    5  O13         0      64.223  71.573   6.377  1.00  0.00    -0.307 OA
HETATM    6  C14         0      63.101  71.226   6.968  1.00  0.00     0.107 C 
HETATM    7  C15         0      62.245  70.284   6.416  1.00  0.00     0.049 C 
HETATM    8  C16         0      60.955  70.107   6.903  1.00  0.00     0.093 C 
HETATM    9  C18         0      60.768  70.496   8.224  1.00  0.00     0.048 C 
HETATM   10  C19         0      61.633  71.402   8.822  1.00  0.00     0.096 C 
HETATM   11  C21         0      62.689  71.903   8.111  1.00  0.00     0.084 C 
ENDROOT
BRANCH  10  12
HETATM   12  O20         0      61.212  72.104   9.947  1.00  0.00    -0.359 OA
HETATM   13  H20         0      61.859  72.313  10.610  1.00  0.00     0.218 HD
ENDBRANCH  10  12
BRANCH   4  14
HETATM   14  C5          0      65.649  73.348   5.622  1.00  0.00     0.025 C 
HETATM   15  C6          0      65.768  72.835   4.339  1.00  0.00     0.004 C 
HETATM   16  C7          0      65.792  73.740   3.282  1.00  0.00     0.026 C 
HETATM   17  C8          0      65.831  75.113   3.499  1.00  0.00     0.112 C 
HETATM   18  C10         0      66.339  75.490   4.735  1.00  0.00     0.112 C 
HETATM   19  C12         0      66.226  74.599   5.796  1.00  0.00     0.028 C 
BRANCH  17  20
HETATM   20  O9          0      65.211  75.987   2.624  1.00  0.00    -0.357 OA
HETATM   21  H9          0      65.656  76.709   2.196  1.00  0.00     0.218 HD
ENDBRANCH  17  20
BRANCH  18  22
HETATM   22  O11         0      66.577  76.843   4.931  1.00  0.00    -0.357 OA
HETATM   23  H11         0      66.501  77.408   4.169  1.00  0.00     0.218 HD
ENDBRANCH  18  22
ENDBRANCH   4  14
BRANCH   8  24
HETATM   24  O17         0      59.875  69.884   6.042  1.00  0.00    -0.359 OA
HETATM   25  H17         0      59.941  70.041   5.107  1.00  0.00     0.218 HD
ENDBRANCH   8  24
TORSDOF 5
ENDMDL
MODEL 3
REMARK VINA RESULT:      -0.1      5.370      6.131
REMARK  5 active torsions:
REMARK  status: ('A' for Active; 'I' for Inactive)
REMARK    1  A    between atoms: C4_4  and  C5_5 
REMARK    2  A    between atoms: C8_8  and  O9_9 
REMARK    3  A    between atoms: C10_11  and  O11_12 
REMARK    4  A    between atoms: C16_18  and  O17_19 
REMARK    5  A    between atoms: C19_22  and  O20_23 
ROOT
HETATM    1  O1          0      64.622  72.843   9.542  1.00  0.00    -0.286 OA
HETATM    2  C2          0      65.080  72.387  10.625  1.00  0.00     0.201 C 
HETATM    3  C3          0      64.486  71.341  11.310  1.00  0.00     0.067 C 
HETATM    4  C4          0      64.952  70.925  12.552  1.00  0.00     0.103 C 
HETATM    5  O13         0      66.000  71.538  13.074  1.00  0.00    -0.307 OA
HETATM    6  C14         0      66.578  72.561  12.484  1.00  0.00     0.107 C 
HETATM    7  C15         0      67.391  73.443  13.180  1.00  0.00     0.049 C 
HETATM    8  C16         0      67.788  74.653  12.622  1.00  0.00     0.093 C 
HETATM    9  C18         0      67.795  74.684  11.232  1.00  0.00     0.048 C 
HETATM   10  C19         0      67.029  73.784  10.503  1.00  0.00     0.096 C 
HETATM   11  C21         0      66.275  72.848  11.157  1.00  0.00     0.084 C 
ENDROOT
BRANCH  10  12
HETATM   12  O20         0      66.698  74.085   9.186  1.00  0.00    -0.359 OA
HETATM   13  H20         0      65.857  74.495   9.020  1.00  0.00     0.218 HD
ENDBRANCH  10  12
BRANCH   4  14
HETATM   14  C5          0      63.987  70.290  13.451  1.00  0.00     0.025 C 
HETATM   15  C6          0      64.188  70.190  14.820  1.00  0.00     0.004 C 
HETATM   16  C7          0      63.082  70.359  15.648  1.00  0.00     0.026 C 
HETATM   17  C8          0      61.798  70.489  15.131  1.00  0.00     0.112 C 
HETATM   18  C10         0      61.626  69.954  13.861  1.00  0.00     0.112 C 
HETATM   19  C12         0      62.733  69.875  13.023  1.00  0.00     0.028 C 
BRANCH  17  20
HETATM   20  O9          0      60.855  71.278  15.766  1.00  0.00    -0.357 OA
HETATM   21  H9          0      59.917  71.142  15.693  1.00  0.00     0.218 HD
ENDBRANCH  17  20
BRANCH  18  22
HETATM   22  O11         0      60.328  69.887  13.378  1.00  0.00    -0.357 OA
HETATM   23  H11         0      59.711  69.360  13.873  1.00  0.00     0.218 HD
ENDBRANCH  18  22
ENDBRANCH   4  14
BRANCH   8  24
HETATM   24  O17         0      67.844  75.825  13.384  1.00  0.00    -0.359 OA
HETATM   25  H17         0      68.054  75.808  14.310  1.00  0.00     0.218 HD
ENDBRANCH   8  24
TORSDOF 5
ENDMDL
MODEL 4
REMARK VINA RESULT:      -0.1      8.067      8.884
REMARK  5 active torsions:
REMARK  status: ('A' for Active; 'I' for Inactive)
REMARK    1  A    between atoms: C4_4  and  C5_5 
REMARK    2  A    between atoms: C8_8  and  O9_9 
REMARK    3  A    between atoms: C10_11  and  O11_12 
REMARK    4  A    between atoms: C16_18  and  O17_19 
REMARK    5  A    between atoms: C19_22  and  O20_23 
ROOT
HETATM    1  O1          0      66.016  73.336  12.587  1.00  0.00    -0.286 OA
HETATM    2  C2          0      65.918  72.919  13.774  1.00  0.00     0.201 C 
HETATM    3  C3          0      65.279  71.736  14.103  1.00  0.00     0.067 C 
HETATM    4  C4          0      65.095  71.351  15.426  1.00  0.00     0.103 C 
HETATM    5  O13         0      65.563  72.130  16.385  1.00  0.00    -0.307 OA
HETATM    6  C14         0      66.143  73.282  16.129  1.00  0.00     0.107 C 
HETATM    7  C15         0      66.269  74.268  17.096  1.00  0.00     0.049 C 
HETATM    8  C16         0      66.646  75.564  16.762  1.00  0.00     0.093 C 
HETATM    9  C18         0      67.375  75.677  15.585  1.00  0.00     0.048 C 
HETATM   10  C19         0      67.308  74.686  14.615  1.00  0.00     0.096 C 
HETATM   11  C21         0      66.531  73.580  14.827  1.00  0.00     0.084 C 
ENDROOT
BRANCH  10  12
HETATM   12  O20         0      67.666  74.991  13.305  1.00  0.00    -0.359 OA
HETATM   13  H20         0      67.383  75.824  12.949  1.00  0.00     0.218 HD
ENDBRANCH  10  12
BRANCH   4  14
HETATM   14  C5          0      63.954  70.481  15.718  1.00  0.00     0.025 C 
HETATM   15  C6          0      63.712  69.956  16.979  1.00  0.00     0.004 C 
HETATM   16  C7          0      62.389  69.875  17.400  1.00  0.00     0.026 C 
HETATM   17  C8          0      61.332  70.179  16.549  1.00  0.00     0.112 C 
HETATM   18  C10         0      61.628  70.069  15.196  1.00  0.00     0.112 C 
HETATM   19  C12         0      62.947  70.239  14.793  1.00  0.00     0.028 C 
BRANCH  17  20
HETATM   20  O9          0      60.168  70.745  17.037  1.00  0.00    -0.357 OA
HETATM   21  H9          0      59.883  71.627  16.831  1.00  0.00     0.218 HD
ENDBRANCH  17  20
BRANCH  18  22
HETATM   22  O11         0      60.565  70.176  14.310  1.00  0.00    -0.357 OA
HETATM   23  H11         0      60.143  69.367  14.046  1.00  0.00     0.218 HD
ENDBRANCH  18  22
ENDBRANCH   4  14
BRANCH   8  24
HETATM   24  O17         0      66.054  76.675  17.371  1.00  0.00    -0.359 OA
HETATM   25  H17         0      65.125  76.700  17.570  1.00  0.00     0.218 HD
ENDBRANCH   8  24
TORSDOF 5
ENDMDL
MODEL 5
REMARK VINA RESULT:      -0.1      7.666     10.655
REMARK  5 active torsions:
REMARK  status: ('A' for Active; 'I' for Inactive)
REMARK    1  A    between atoms: C4_4  and  C5_5 
REMARK    2  A    between atoms: C8_8  and  O9_9 
REMARK    3  A    between atoms: C10_11  and  O11_12 
REMARK    4  A    between atoms: C16_18  and  O17_19 
REMARK    5  A    between atoms: C19_22  and  O20_23 
ROOT
HETATM    1  O1          0      61.830  71.698  12.380  1.00  0.00    -0.286 OA
HETATM    2  C2          0      61.463  72.422  13.346  1.00  0.00     0.201 C 
HETATM    3  C3          0      61.703  73.784  13.396  1.00  0.00     0.067 C 
HETATM    4  C4          0      61.379  74.540  14.517  1.00  0.00     0.103 C 
HETATM    5  O13         0      60.812  73.937  15.547  1.00  0.00    -0.307 OA
HETATM    6  C14         0      60.597  72.640  15.566  1.00  0.00     0.107 C 
HETATM    7  C15         0      60.386  71.952  16.752  1.00  0.00     0.049 C 
HETATM    8  C16         0      60.415  70.563  16.795  1.00  0.00     0.093 C 
HETATM    9  C18         0      60.130  69.933  15.590  1.00  0.00     0.048 C 
HETATM   10  C19         0      60.285  70.607  14.387  1.00  0.00     0.096 C 
HETATM   11  C21         0      60.706  71.909  14.388  1.00  0.00     0.084 C 
ENDROOT
BRANCH  10  12
HETATM   12  O20         0      60.426  69.877  13.211  1.00  0.00    -0.359 OA
HETATM   13  H20         0      59.637  69.613  12.754  1.00  0.00     0.218 HD
ENDBRANCH  10  12
BRANCH   4  14
HETATM   14  C5          0      62.162  75.754  14.754  1.00  0.00     0.025 C 
HETATM   15  C6          0      62.519  76.182  16.025  1.00  0.00     0.004 C 
HETATM   16  C7          0      63.784  76.738  16.186  1.00  0.00     0.026 C 
HETATM   17  C8          0      64.616  76.985  15.099  1.00  0.00     0.112 C 
HETATM   18  C10         0      63.958  77.123  13.884  1.00  0.00     0.112 C 
HETATM   19  C12         0      62.734  76.486  13.721  1.00  0.00     0.028 C 
BRANCH  17  20
HETATM   20  O9          0      65.991  76.882  15.221  1.00  0.00    -0.357 OA
HETATM   21  H9          0      66.605  77.437  14.755  1.00  0.00     0.218 HD
ENDBRANCH  17  20
BRANCH  18  22
HETATM   22  O11         0      64.715  77.555  12.805  1.00  0.00    -0.357 OA
HETATM   23  H11         0      65.027  76.888  12.204  1.00  0.00     0.218 HD
ENDBRANCH  18  22
ENDBRANCH   4  14
BRANCH   8  24
HETATM   24  O17         0      61.009  69.879  17.862  1.00  0.00    -0.359 OA
HETATM   25  H17         0      61.475  69.061  17.732  1.00  0.00     0.218 HD
ENDBRANCH   8  24
TORSDOF 5
ENDMDL
MODEL 6
REMARK VINA RESULT:      -0.1      2.193      2.510
REMARK  5 active torsions:
REMARK  status: ('A' for Active; 'I' for Inactive)
REMARK    1  A    between atoms: C4_4  and  C5_5 
REMARK    2  A    between atoms: C8_8  and  O9_9 
REMARK    3  A    between atoms: C10_11  and  O11_12 
REMARK    4  A    between atoms: C16_18  and  O17_19 
REMARK    5  A    between atoms: C19_22  and  O20_23 
ROOT
HETATM    1  O1          0      63.930  75.384   8.832  1.00  0.00    -0.286 OA
HETATM    2  C2          0      64.426  74.436   8.164  1.00  0.00     0.201 C 
HETATM    3  C3          0      63.813  73.909   7.040  1.00  0.00     0.067 C 
HETATM    4  C4          0      64.328  72.798   6.382  1.00  0.00     0.103 C 
HETATM    5  O13         0      65.442  72.251   6.837  1.00  0.00    -0.307 OA
HETATM    6  C14         0      66.044  72.689   7.921  1.00  0.00     0.107 C 
HETATM    7  C15         0      66.950  71.906   8.621  1.00  0.00     0.049 C 
HETATM    8  C16         0      67.386  72.265   9.890  1.00  0.00     0.093 C 
HETATM    9  C18         0      67.308  73.623  10.175  1.00  0.00     0.048 C 
HETATM   10  C19         0      66.445  74.445   9.462  1.00  0.00     0.096 C 
HETATM   11  C21         0      65.677  73.917   8.461  1.00  0.00     0.084 C 
ENDROOT
BRANCH  10  12
HETATM   12  O20         0      66.052  75.660  10.015  1.00  0.00    -0.359 OA
HETATM   13  H20         0      65.571  76.265   9.463  1.00  0.00     0.218 HD
ENDBRANCH  10  12
BRANCH   4  14
HETATM   14  C5          0      63.384  71.960   5.641  1.00  0.00     0.025 C 
HETATM   15  C6          0      63.434  70.574   5.658  1.00  0.00     0.004 C 
HETATM   16  C7          0      62.225  69.885   5.679  1.00  0.00     0.026 C 
HETATM   17  C8          0      61.008  70.545   5.550  1.00  0.00     0.112 C 
HETATM   18  C10         0      61.081  71.780   4.920  1.00  0.00     0.112 C 
HETATM   19  C12         0      62.276  72.486   4.988  1.00  0.00     0.028 C 
BRANCH  17  20
HETATM   20  O9          0      59.877  70.079   6.197  1.00  0.00    -0.357 OA
HETATM   21  H9          0      59.712  69.160   6.375  1.00  0.00     0.218 HD
ENDBRANCH  17  20
BRANCH  18  22
HETATM   22  O11         0      59.879  72.393   4.597  1.00  0.00    -0.357 OA
HETATM   23  H11         0      59.312  72.636   5.321  1.00  0.00     0.218 HD
ENDBRANCH  18  22
ENDBRANCH   4  14
BRANCH   8  24
HETATM   24  O17         0      67.560  71.311  10.899  1.00  0.00    -0.359 OA
HETATM   25  H17         0      67.842  70.425  10.705  1.00  0.00     0.218 HD
ENDBRANCH   8  24
TORSDOF 5
ENDMDL
MODEL 7
REMARK VINA RESULT:      -0.1      1.864      6.885
REMARK  5 active torsions:
REMARK  status: ('A' for Active; 'I' for Inactive)
REMARK    1  A    between atoms: C4_4  and  C5_5 
REMARK    2  A    between atoms: C8_8  and  O9_9 
REMARK    3  A    between atoms: C10_11  and  O11_12 
REMARK    4  A    between atoms: C16_18  and  O17_19 
REMARK    5  A    between atoms: C19_22  and  O20_23 
ROOT
HETATM    1  O1          0      62.636  72.031   8.218  1.00  0.00    -0.286 OA
HETATM    2  C2          0      63.190  71.439   7.252  1.00  0.00     0.201 C 
HETATM    3  C3          0      64.549  71.524   7.000  1.00  0.00     0.067 C 
HETATM    4  C4          0      65.118  70.946   5.871  1.00  0.00     0.103 C 
HETATM    5  O13         0      64.337  70.284   5.035  1.00  0.00    -0.307 OA
HETATM    6  C14         0      63.036  70.204   5.208  1.00  0.00     0.107 C 
HETATM    7  C15         0      62.179  69.876   4.167  1.00  0.00     0.049 C 
HETATM    8  C16         0      60.804  70.041   4.285  1.00  0.00     0.093 C 
HETATM    9  C18         0      60.320  70.023   5.588  1.00  0.00     0.048 C 
HETATM   10  C19         0      61.162  70.302   6.656  1.00  0.00     0.096 C 
HETATM   11  C21         0      62.482  70.579   6.427  1.00  0.00     0.084 C 
ENDROOT
BRANCH  10  12
HETATM   12  O20         0      60.611  70.707   7.868  1.00  0.00    -0.359 OA
HETATM   13  H20         0      59.705  70.480   8.044  1.00  0.00     0.218 HD
ENDBRANCH  10  12
BRANCH   4  14
HETATM   14  C5          0      66.349  71.549   5.357  1.00  0.00     0.025 C 
HETATM   15  C6          0      66.351  72.585   4.434  1.00  0.00     0.004 C 
HETATM   16  C7          0      67.309  73.581   4.586  1.00  0.00     0.026 C 
HETATM   17  C8          0      68.316  73.486   5.540  1.00  0.00     0.112 C 
HETATM   18  C10         0      68.605  72.191   5.950  1.00  0.00     0.112 C 
HETATM   19  C12         0      67.602  71.233   5.867  1.00  0.00     0.028 C 
BRANCH  17  20
HETATM   20  O9          0      68.816  74.618   6.159  1.00  0.00    -0.357 OA
HETATM   21  H9          0      69.739  74.760   6.334  1.00  0.00     0.218 HD
ENDBRANCH  17  20
BRANCH  18  22
HETATM   22  O11         0      69.723  72.022   6.755  1.00  0.00    -0.357 OA
HETATM   23  H11         0      70.516  72.474   6.490  1.00  0.00     0.218 HD
ENDBRANCH  18  22
ENDBRANCH   4  14
BRANCH   8  24
HETATM   24  O17         0      60.033  70.520   3.220  1.00  0.00    -0.359 OA
HETATM   25  H17         0      59.830  69.978   2.467  1.00  0.00     0.218 HD
ENDBRANCH   8  24
TORSDOF 5
ENDMDL
MODEL 8
REMARK VINA RESULT:      -0.1      3.999      5.086
REMARK  5 active torsions:
REMARK  status: ('A' for Active; 'I' for Inactive)
REMARK    1  A    between atoms: C4_4  and  C5_5 
REMARK    2  A    between atoms: C8_8  and  O9_9 
REMARK    3  A    between atoms: C10_11  and  O11_12 
REMARK    4  A    between atoms: C16_18  and  O17_19 
REMARK    5  A    between atoms: C19_22  and  O20_23 
ROOT
HETATM    1  O1          0      66.267  72.879  11.272  1.00  0.00    -0.286 OA
HETATM    2  C2          0      65.239  73.602  11.164  1.00  0.00     0.201 C 
HETATM    3  C3          0      63.988  73.196  11.595  1.00  0.00     0.067 C 
HETATM    4  C4          0      62.854  73.969  11.371  1.00  0.00     0.103 C 
HETATM    5  O13         0      62.988  75.127  10.749  1.00  0.00    -0.307 OA
HETATM    6  C14         0      64.147  75.542  10.287  1.00  0.00     0.107 C 
HETATM    7  C15         0      64.235  76.524   9.310  1.00  0.00     0.049 C 
HETATM    8  C16         0      65.430  76.777   8.647  1.00  0.00     0.093 C 
HETATM    9  C18         0      66.576  76.414   9.343  1.00  0.00     0.048 C 
HETATM   10  C19         0      66.516  75.469  10.358  1.00  0.00     0.096 C 
HETATM   11  C21         0      65.315  74.901  10.687  1.00  0.00     0.084 C 
ENDROOT
BRANCH  10  12
HETATM   12  O20         0      67.677  74.803  10.738  1.00  0.00    -0.359 OA
HETATM   13  H20         0      68.126  74.282  10.084  1.00  0.00     0.218 HD
ENDBRANCH  10  12
BRANCH   4  14
HETATM   14  C5          0      61.571  73.268  11.287  1.00  0.00     0.025 C 
HETATM   15  C6          0      60.630  73.539  10.305  1.00  0.00     0.004 C 
HETATM   16  C7          0      59.924  72.463   9.776  1.00  0.00     0.026 C 
HETATM   17  C8          0      60.050  71.180  10.296  1.00  0.00     0.112 C 
HETATM   18  C10         0      60.489  71.129  11.613  1.00  0.00     0.112 C 
HETATM   19  C12         0      61.265  72.178  12.092  1.00  0.00     0.028 C 
BRANCH  17  20
HETATM   20  O9          0      59.947  70.069   9.478  1.00  0.00    -0.357 OA
HETATM   21  H9          0      60.679  69.695   9.001  1.00  0.00     0.218 HD
ENDBRANCH  17  20
BRANCH  18  22
HETATM   22  O11         0      60.452  69.892  12.240  1.00  0.00    -0.357 OA
HETATM   23  H11         0      59.596  69.503  12.375  1.00  0.00     0.218 HD
ENDBRANCH  18  22
ENDBRANCH   4  14
BRANCH   8  24
HETATM   24  O17         0      65.458  77.050   7.275  1.00  0.00    -0.359 OA
HETATM   25  H17         0      65.962  77.773   6.920  1.00  0.00     0.218 HD
ENDBRANCH   8  24
TORSDOF 5
ENDMDL
MODEL 9
REMARK VINA RESULT:      -0.1      4.014      6.965
REMARK  5 active torsions:
REMARK  status: ('A' for Active; 'I' for Inactive)
REMARK    1  A    between atoms: C4_4  and  C5_5 
REMARK    2  A    between atoms: C8_8  and  O9_9 
REMARK    3  A    between atoms: C10_11  and  O11_12 
REMARK    4  A    between atoms: C16_18  and  O17_19 
REMARK    5  A    between atoms: C19_22  and  O20_23 
ROOT
HETATM    1  O1          0      62.589  74.754   3.017  1.00  0.00    -0.286 OA
HETATM    2  C2          0      61.951  74.657   4.101  1.00  0.00     0.201 C 
HETATM    3  C3          0      62.176  75.492   5.182  1.00  0.00     0.067 C 
HETATM    4  C4          0      61.532  75.298   6.398  1.00  0.00     0.103 C 
HETATM    5  O13         0      60.670  74.303   6.509  1.00  0.00    -0.307 OA
HETATM    6  C14         0      60.447  73.459   5.526  1.00  0.00     0.107 C 
HETATM    7  C15         0      59.875  72.214   5.747  1.00  0.00     0.049 C 
HETATM    8  C16         0      59.875  71.235   4.761  1.00  0.00     0.093 C 
HETATM    9  C18         0      59.968  71.713   3.459  1.00  0.00     0.048 C 
HETATM   10  C19         0      60.492  72.973   3.206  1.00  0.00     0.096 C 
HETATM   11  C21         0      60.905  73.758   4.247  1.00  0.00     0.084 C 
ENDROOT
BRANCH  10  12
HETATM   12  O20         0      60.980  73.264   1.936  1.00  0.00    -0.359 OA
HETATM   13  H20         0      60.912  74.160   1.628  1.00  0.00     0.218 HD
ENDBRANCH  10  12
BRANCH   4  14
HETATM   14  C5          0      62.216  75.776   7.602  1.00  0.00     0.025 C 
HETATM   15  C6          0      62.128  75.126   8.824  1.00  0.00     0.004 C 
HETATM   16  C7          0      63.276  75.072   9.609  1.00  0.00     0.026 C 
HETATM   17  C8          0      64.434  75.755   9.256  1.00  0.00     0.112 C 
HETATM   18  C10         0      64.234  76.838   8.411  1.00  0.00     0.112 C 
HETATM   19  C12         0      63.123  76.827   7.575  1.00  0.00     0.028 C 
BRANCH  17  20
HETATM   20  O9          0      65.682  75.242   9.564  1.00  0.00    -0.357 OA
HETATM   21  H9          0      65.833  74.593  10.242  1.00  0.00     0.218 HD
ENDBRANCH  17  20
BRANCH  18  22
HETATM   22  O11         0      65.324  77.665   8.179  1.00  0.00    -0.357 OA
HETATM   23  H11         0      66.182  77.257   8.188  1.00  0.00     0.218 HD
ENDBRANCH  18  22
ENDBRANCH   4  14
BRANCH   8  24
HETATM   24  O17         0      60.106  69.890   5.069  1.00  0.00    -0.359 OA
HETATM   25  H17         0      60.186  69.229   4.392  1.00  0.00     0.218 HD
ENDBRANCH   8  24
TORSDOF 5
ENDMDL
