MODEL 1
REMARK VINA RESULT:      -7.5      0.000      0.000
REMARK  5 active torsions:
REMARK  status: ('A' for Active; 'I' for Inactive)
REMARK    1  A    between atoms: C4_4  and  C5_5 
REMARK    2  A    between atoms: C8_8  and  O9_9 
REMARK    3  A    between atoms: C10_11  and  O11_12 
REMARK    4  A    between atoms: C16_18  and  O17_19 
REMARK    5  A    between atoms: C19_22  and  O20_23 
ROOT
HETATM    1  O1          0      24.939  86.621 -10.063  1.00  0.00    -0.286 OA
HETATM    2  C2          0      25.675  87.006  -9.114  1.00  0.00     0.201 C 
HETATM    3  C3          0      26.999  86.619  -8.986  1.00  0.00     0.067 C 
HETATM    4  C4          0      27.757  86.974  -7.876  1.00  0.00     0.103 C 
HETATM    5  O13         0      27.198  87.715  -6.935  1.00  0.00    -0.307 OA
HETATM    6  C14         0      25.935  88.077  -6.990  1.00  0.00     0.107 C 
HETATM    7  C15         0      25.245  88.494  -5.860  1.00  0.00     0.049 C 
HETATM    8  C16         0      23.862  88.629  -5.869  1.00  0.00     0.093 C 
HETATM    9  C18         0      23.302  88.851  -7.121  1.00  0.00     0.048 C 
HETATM   10  C19         0      23.985  88.490  -8.274  1.00  0.00     0.096 C 
HETATM   11  C21         0      25.228  87.926  -8.178  1.00  0.00     0.084 C 
ENDROOT
BRANCH  10  12
HETATM   12  O20         0      23.275  88.306  -9.456  1.00  0.00    -0.359 OA
HETATM   13  H20         0      22.452  87.836  -9.413  1.00  0.00     0.218 HD
ENDBRANCH  10  12
BRANCH   4  14
HETATM   14  C5          0      28.864  86.088  -7.510  1.00  0.00     0.025 C 
HETATM   15  C6          0      29.548  85.316  -8.438  1.00  0.00     0.004 C 
HETATM   16  C7          0      30.922  85.178  -8.273  1.00  0.00     0.026 C 
HETATM   17  C8          0      31.576  85.676  -7.151  1.00  0.00     0.112 C 
HETATM   18  C10         0      30.767  85.845  -6.036  1.00  0.00     0.112 C 
HETATM   19  C12         0      29.409  86.066  -6.233  1.00  0.00     0.028 C 
BRANCH  17  20
HETATM   20  O9          0      32.872  86.152  -7.239  1.00  0.00    -0.357 OA
HETATM   21  H9          0      33.642  85.595  -7.223  1.00  0.00     0.218 HD
ENDBRANCH  17  20
BRANCH  18  22
HETATM   22  O11         0      31.400  86.157  -4.841  1.00  0.00    -0.357 OA
HETATM   23  H11         0      32.140  86.751  -4.890  1.00  0.00     0.218 HD
ENDBRANCH  18  22
ENDBRANCH   4  14
BRANCH   8  24
HETATM   24  O17         0      23.084  88.237  -4.774  1.00  0.00    -0.359 OA
HETATM   25  H17         0      23.152  88.672  -3.932  1.00  0.00     0.218 HD
ENDBRANCH   8  24
TORSDOF 5
ENDMDL
MODEL 2
REMARK VINA RESULT:      -7.3      7.523     11.094
REMARK  5 active torsions:
REMARK  status: ('A' for Active; 'I' for Inactive)
REMARK    1  A    between atoms: C4_4  and  C5_5 
REMARK    2  A    between atoms: C8_8  and  O9_9 
REMARK    3  A    between atoms: C10_11  and  O11_12 
REMARK    4  A    between atoms: C16_18  and  O17_19 
REMARK    5  A    between atoms: C19_22  and  O20_23 
ROOT
HETATM    1  O1          0      20.224  89.104   3.334  1.00  0.00    -0.286 OA
HETATM    2  C2          0      21.167  89.439   2.566  1.00  0.00     0.201 C 
HETATM    3  C3          0      20.956  90.027   1.330  1.00  0.00     0.067 C 
HETATM    4  C4          0      22.008  90.292   0.460  1.00  0.00     0.103 C 
HETATM    5  O13         0      23.237  89.992   0.840  1.00  0.00    -0.307 OA
HETATM    6  C14         0      23.489  89.399   1.986  1.00  0.00     0.107 C 
HETATM    7  C15         0      24.683  88.731   2.217  1.00  0.00     0.049 C 
HETATM    8  C16         0      24.844  87.899   3.318  1.00  0.00     0.093 C 
HETATM    9  C18         0      24.011  88.182   4.394  1.00  0.00     0.048 C 
HETATM   10  C19         0      22.832  88.890   4.206  1.00  0.00     0.096 C 
HETATM   11  C21         0      22.494  89.326   2.954  1.00  0.00     0.084 C 
ENDROOT
BRANCH  10  12
HETATM   12  O20         0      21.821  88.793   5.158  1.00  0.00    -0.359 OA
HETATM   13  H20         0      22.050  88.946   6.067  1.00  0.00     0.218 HD
ENDBRANCH  10  12
BRANCH   4  14
HETATM   14  C5          0      21.701  90.326  -0.971  1.00  0.00     0.025 C 
HETATM   15  C6          0      21.350  91.492  -1.637  1.00  0.00     0.004 C 
HETATM   16  C7          0      21.837  91.668  -2.928  1.00  0.00     0.026 C 
HETATM   17  C8          0      22.538  90.663  -3.587  1.00  0.00     0.112 C 
HETATM   18  C10         0      22.289  89.380  -3.119  1.00  0.00     0.112 C 
HETATM   19  C12         0      21.884  89.226  -1.798  1.00  0.00     0.028 C 
BRANCH  17  20
HETATM   20  O9          0      23.548  90.972  -4.480  1.00  0.00    -0.357 OA
HETATM   21  H9          0      24.255  91.578  -4.290  1.00  0.00     0.218 HD
ENDBRANCH  17  20
BRANCH  18  22
HETATM   22  O11         0      22.812  88.329  -3.858  1.00  0.00    -0.357 OA
HETATM   23  H11         0      23.719  88.096  -3.693  1.00  0.00     0.218 HD
ENDBRANCH  18  22
ENDBRANCH   4  14
BRANCH   8  24
HETATM   24  O17         0      25.532  86.684   3.220  1.00  0.00    -0.359 OA
HETATM   25  H17         0      25.922  86.396   2.403  1.00  0.00     0.218 HD
ENDBRANCH   8  24
TORSDOF 5
ENDMDL
MODEL 3
REMARK VINA RESULT:      -7.2      3.178      5.951
REMARK  5 active torsions:
REMARK  status: ('A' for Active; 'I' for Inactive)
REMARK    1  A    between atoms: C4_4  and  C5_5 
REMARK    2  A    between atoms: C8_8  and  O9_9 
REMARK    3  A    between atoms: C10_11  and  O11_12 
REMARK    4  A    between atoms: C16_18  and  O17_19 
REMARK    5  A    between atoms: C19_22  and  O20_23 
ROOT
HETATM    1  O1          0      22.866  87.630  -2.970  1.00  0.00    -0.286 OA
HETATM    2  C2          0      22.995  88.483  -3.890  1.00  0.00     0.201 C 
HETATM    3  C3          0      23.406  88.150  -5.170  1.00  0.00     0.067 C 
HETATM    4  C4          0      23.639  89.122  -6.136  1.00  0.00     0.103 C 
HETATM    5  O13         0      23.441  90.390  -5.822  1.00  0.00    -0.307 OA
HETATM    6  C14         0      23.087  90.763  -4.612  1.00  0.00     0.107 C 
HETATM    7  C15         0      23.264  92.066  -4.167  1.00  0.00     0.049 C 
HETATM    8  C16         0      23.130  92.394  -2.824  1.00  0.00     0.093 C 
HETATM    9  C18         0      22.325  91.534  -2.087  1.00  0.00     0.048 C 
HETATM   10  C19         0      22.089  90.239  -2.526  1.00  0.00     0.096 C 
HETATM   11  C21         0      22.639  89.810  -3.703  1.00  0.00     0.084 C 
ENDROOT
BRANCH  10  12
HETATM   12  O20         0      21.671  89.276  -1.612  1.00  0.00    -0.359 OA
HETATM   13  H20         0      22.311  88.941  -0.996  1.00  0.00     0.218 HD
ENDBRANCH  10  12
BRANCH   4  14
HETATM   14  C5          0      24.601  88.800  -7.192  1.00  0.00     0.025 C 
HETATM   15  C6          0      25.973  88.840  -6.997  1.00  0.00     0.004 C 
HETATM   16  C7          0      26.741  87.856  -7.611  1.00  0.00     0.026 C 
HETATM   17  C8          0      26.182  86.941  -8.497  1.00  0.00     0.112 C 
HETATM   18  C10         0      25.002  87.362  -9.096  1.00  0.00     0.112 C 
HETATM   19  C12         0      24.211  88.284  -8.421  1.00  0.00     0.028 C 
BRANCH  17  20
HETATM   20  O9          0      26.671  85.650  -8.585  1.00  0.00    -0.357 OA
HETATM   21  H9          0      27.460  85.415  -9.060  1.00  0.00     0.218 HD
ENDBRANCH  17  20
BRANCH  18  22
HETATM   22  O11         0      24.505  86.575 -10.125  1.00  0.00    -0.357 OA
HETATM   23  H11         0      24.118  87.028 -10.865  1.00  0.00     0.218 HD
ENDBRANCH  18  22
ENDBRANCH   4  14
BRANCH   8  24
HETATM   24  O17         0      23.996  93.302  -2.205  1.00  0.00    -0.359 OA
HETATM   25  H17         0      24.871  93.052  -1.934  1.00  0.00     0.218 HD
ENDBRANCH   8  24
TORSDOF 5
ENDMDL
MODEL 4
REMARK VINA RESULT:      -6.9      3.469      6.287
REMARK  5 active torsions:
REMARK  status: ('A' for Active; 'I' for Inactive)
REMARK    1  A    between atoms: C4_4  and  C5_5 
REMARK    2  A    between atoms: C8_8  and  O9_9 
REMARK    3  A    between atoms: C10_11  and  O11_12 
REMARK    4  A    between atoms: C16_18  and  O17_19 
REMARK    5  A    between atoms: C19_22  and  O20_23 
ROOT
HETATM    1  O1          0      22.341  89.122  -2.418  1.00  0.00    -0.286 OA
HETATM    2  C2          0      22.482  89.613  -3.571  1.00  0.00     0.201 C 
HETATM    3  C3          0      22.854  88.856  -4.669  1.00  0.00     0.067 C 
HETATM    4  C4          0      23.103  89.440  -5.906  1.00  0.00     0.103 C 
HETATM    5  O13         0      22.958  90.747  -6.031  1.00  0.00    -0.307 OA
HETATM    6  C14         0      22.643  91.517  -5.013  1.00  0.00     0.107 C 
HETATM    7  C15         0      22.876  92.884  -5.030  1.00  0.00     0.049 C 
HETATM    8  C16         0      22.782  93.647  -3.872  1.00  0.00     0.093 C 
HETATM    9  C18         0      21.961  93.116  -2.884  1.00  0.00     0.048 C 
HETATM   10  C19         0      21.669  91.759  -2.864  1.00  0.00     0.096 C 
HETATM   11  C21         0      22.179  90.940  -3.835  1.00  0.00     0.084 C 
ENDROOT
BRANCH  10  12
HETATM   12  O20         0      21.235  91.173  -1.679  1.00  0.00    -0.359 OA
HETATM   13  H20         0      21.094  91.739  -0.929  1.00  0.00     0.218 HD
ENDBRANCH  10  12
BRANCH   4  14
HETATM   14  C5          0      24.030  88.745  -6.800  1.00  0.00     0.025 C 
HETATM   15  C6          0      23.747  88.503  -8.137  1.00  0.00     0.004 C 
HETATM   16  C7          0      24.792  88.619  -9.048  1.00  0.00     0.026 C 
HETATM   17  C8          0      26.101  88.834  -8.633  1.00  0.00     0.112 C 
HETATM   18  C10         0      26.370  88.433  -7.331  1.00  0.00     0.112 C 
HETATM   19  C12         0      25.322  88.408  -6.418  1.00  0.00     0.028 C 
BRANCH  17  20
HETATM   20  O9          0      26.975  89.581  -9.403  1.00  0.00    -0.357 OA
HETATM   21  H9          0      27.606  89.202 -10.004  1.00  0.00     0.218 HD
ENDBRANCH  17  20
BRANCH  18  22
HETATM   22  O11         0      27.698  88.450  -6.930  1.00  0.00    -0.357 OA
HETATM   23  H11         0      28.011  87.693  -6.447  1.00  0.00     0.218 HD
ENDBRANCH  18  22
ENDBRANCH   4  14
BRANCH   8  24
HETATM   24  O17         0      23.694  94.672  -3.598  1.00  0.00    -0.359 OA
HETATM   25  H17         0      24.323  94.967  -4.246  1.00  0.00     0.218 HD
ENDBRANCH   8  24
TORSDOF 5
ENDMDL
MODEL 5
REMARK VINA RESULT:      -6.6      3.678      5.765
REMARK  5 active torsions:
REMARK  status: ('A' for Active; 'I' for Inactive)
REMARK    1  A    between atoms: C4_4  and  C5_5 
REMARK    2  A    between atoms: C8_8  and  O9_9 
REMARK    3  A    between atoms: C10_11  and  O11_12 
REMARK    4  A    between atoms: C16_18  and  O17_19 
REMARK    5  A    between atoms: C19_22  and  O20_23 
ROOT
HETATM    1  O1          0      22.434  92.619  -5.410  1.00  0.00    -0.286 OA
HETATM    2  C2          0      23.014  91.501  -5.336  1.00  0.00     0.201 C 
HETATM    3  C3          0      23.727  90.955  -6.389  1.00  0.00     0.067 C 
HETATM    4  C4          0      24.270  89.677  -6.316  1.00  0.00     0.103 C 
HETATM    5  O13         0      24.113  88.984  -5.202  1.00  0.00    -0.307 OA
HETATM    6  C14         0      23.414  89.441  -4.187  1.00  0.00     0.107 C 
HETATM    7  C15         0      22.913  88.597  -3.206  1.00  0.00     0.049 C 
HETATM    8  C16         0      21.970  89.040  -2.285  1.00  0.00     0.093 C 
HETATM    9  C18         0      21.969  90.411  -2.060  1.00  0.00     0.048 C 
HETATM   10  C19         0      22.505  91.281  -3.000  1.00  0.00     0.096 C 
HETATM   11  C21         0      23.054  90.783  -4.151  1.00  0.00     0.084 C 
ENDROOT
BRANCH  10  12
HETATM   12  O20         0      22.122  92.619  -2.986  1.00  0.00    -0.359 OA
HETATM   13  H20         0      22.799  93.277  -3.088  1.00  0.00     0.218 HD
ENDBRANCH  10  12
BRANCH   4  14
HETATM   14  C5          0      24.455  88.954  -7.576  1.00  0.00     0.025 C 
HETATM   15  C6          0      24.426  89.581  -8.813  1.00  0.00     0.004 C 
HETATM   16  C7          0      25.323  89.139  -9.781  1.00  0.00     0.026 C 
HETATM   17  C8          0      26.129  88.025  -9.573  1.00  0.00     0.112 C 
HETATM   18  C10         0      25.650  87.131  -8.625  1.00  0.00     0.112 C 
HETATM   19  C12         0      24.823  87.616  -7.619  1.00  0.00     0.028 C 
BRANCH  17  20
HETATM   20  O9          0      27.396  87.955 -10.125  1.00  0.00    -0.357 OA
HETATM   21  H9          0      27.712  88.546 -10.799  1.00  0.00     0.218 HD
ENDBRANCH  17  20
BRANCH  18  22
HETATM   22  O11         0      26.313  85.917  -8.515  1.00  0.00    -0.357 OA
HETATM   23  H11         0      26.716  85.574  -9.305  1.00  0.00     0.218 HD
ENDBRANCH  18  22
ENDBRANCH   4  14
BRANCH   8  24
HETATM   24  O17         0      20.902  88.229  -1.887  1.00  0.00    -0.359 OA
HETATM   25  H17         0      20.205  88.558  -1.332  1.00  0.00     0.218 HD
ENDBRANCH   8  24
TORSDOF 5
ENDMDL
MODEL 6
REMARK VINA RESULT:      -6.5      6.002      9.566
REMARK  5 active torsions:
REMARK  status: ('A' for Active; 'I' for Inactive)
REMARK    1  A    between atoms: C4_4  and  C5_5 
REMARK    2  A    between atoms: C8_8  and  O9_9 
REMARK    3  A    between atoms: C10_11  and  O11_12 
REMARK    4  A    between atoms: C16_18  and  O17_19 
REMARK    5  A    between atoms: C19_22  and  O20_23 
ROOT
HETATM    1  O1          0      23.845  92.217   0.929  1.00  0.00    -0.286 OA
HETATM    2  C2          0      23.390  92.490  -0.216  1.00  0.00     0.201 C 
HETATM    3  C3          0      22.672  91.580  -0.974  1.00  0.00     0.067 C 
HETATM    4  C4          0      22.271  91.871  -2.273  1.00  0.00     0.103 C 
HETATM    5  O13         0      22.568  93.055  -2.779  1.00  0.00    -0.307 OA
HETATM    6  C14         0      23.279  93.941  -2.116  1.00  0.00     0.107 C 
HETATM    7  C15         0      23.925  94.988  -2.757  1.00  0.00     0.049 C 
HETATM    8  C16         0      24.873  95.762  -2.098  1.00  0.00     0.093 C 
HETATM    9  C18         0      24.745  95.795  -0.715  1.00  0.00     0.048 C 
HETATM   10  C19         0      24.064  94.788  -0.045  1.00  0.00     0.096 C 
HETATM   11  C21         0      23.499  93.763  -0.754  1.00  0.00     0.084 C 
ENDROOT
BRANCH  10  12
HETATM   12  O20         0      24.306  94.587   1.310  1.00  0.00    -0.359 OA
HETATM   13  H20         0      24.859  93.857   1.560  1.00  0.00     0.218 HD
ENDBRANCH  10  12
BRANCH   4  14
HETATM   14  C5          0      22.084  90.742  -3.185  1.00  0.00     0.025 C 
HETATM   15  C6          0      21.969  90.896  -4.559  1.00  0.00     0.004 C 
HETATM   16  C7          0      22.576  89.940  -5.368  1.00  0.00     0.026 C 
HETATM   17  C8          0      23.161  88.797  -4.833  1.00  0.00     0.112 C 
HETATM   18  C10         0      22.681  88.431  -3.583  1.00  0.00     0.112 C 
HETATM   19  C12         0      22.157  89.421  -2.760  1.00  0.00     0.028 C 
BRANCH  17  20
HETATM   20  O9          0      24.273  88.226  -5.427  1.00  0.00    -0.357 OA
HETATM   21  H9          0      24.685  87.428  -5.117  1.00  0.00     0.218 HD
ENDBRANCH  17  20
BRANCH  18  22
HETATM   22  O11         0      23.091  87.201  -3.088  1.00  0.00    -0.357 OA
HETATM   23  H11         0      22.958  87.045  -2.160  1.00  0.00     0.218 HD
ENDBRANCH  18  22
ENDBRANCH   4  14
BRANCH   8  24
HETATM   24  O17         0      26.042  96.186  -2.739  1.00  0.00    -0.359 OA
HETATM   25  H17         0      26.158  97.085  -3.022  1.00  0.00     0.218 HD
ENDBRANCH   8  24
TORSDOF 5
ENDMDL
MODEL 7
REMARK VINA RESULT:      -6.2      7.555     11.058
REMARK  5 active torsions:
REMARK  status: ('A' for Active; 'I' for Inactive)
REMARK    1  A    between atoms: C4_4  and  C5_5 
REMARK    2  A    between atoms: C8_8  and  O9_9 
REMARK    3  A    between atoms: C10_11  and  O11_12 
REMARK    4  A    between atoms: C16_18  and  O17_19 
REMARK    5  A    between atoms: C19_22  and  O20_23 
ROOT
HETATM    1  O1          0      24.013  92.955  -0.597  1.00  0.00    -0.286 OA
HETATM    2  C2          0      23.150  92.088  -0.289  1.00  0.00     0.201 C 
HETATM    3  C3          0      22.747  91.861   1.016  1.00  0.00     0.067 C 
HETATM    4  C4          0      21.871  90.830   1.339  1.00  0.00     0.103 C 
HETATM    5  O13         0      21.403  90.067   0.368  1.00  0.00    -0.307 OA
HETATM    6  C14         0      21.782  90.216  -0.883  1.00  0.00     0.107 C 
HETATM    7  C15         0      21.623  89.205  -1.819  1.00  0.00     0.049 C 
HETATM    8  C16         0      22.248  89.265  -3.059  1.00  0.00     0.093 C 
HETATM    9  C18         0      22.561  90.547  -3.497  1.00  0.00     0.048 C 
HETATM   10  C19         0      22.682  91.592  -2.591  1.00  0.00     0.096 C 
HETATM   11  C21         0      22.474  91.362  -1.258  1.00  0.00     0.084 C 
ENDROOT
BRANCH  10  12
HETATM   12  O20         0      23.401  92.727  -2.953  1.00  0.00    -0.359 OA
HETATM   13  H20         0      23.898  93.173  -2.278  1.00  0.00     0.218 HD
ENDBRANCH  10  12
BRANCH   4  14
HETATM   14  C5          0      21.961  90.275   2.691  1.00  0.00     0.025 C 
HETATM   15  C6          0      20.912  90.330   3.597  1.00  0.00     0.004 C 
HETATM   16  C7          0      20.710  89.224   4.417  1.00  0.00     0.026 C 
HETATM   17  C8          0      21.599  88.154   4.431  1.00  0.00     0.112 C 
HETATM   18  C10         0      22.883  88.462   4.002  1.00  0.00     0.112 C 
HETATM   19  C12         0      23.047  89.520   3.115  1.00  0.00     0.028 C 
BRANCH  17  20
HETATM   20  O9          0      21.152  86.864   4.655  1.00  0.00    -0.357 OA
HETATM   21  H9          0      20.358  86.656   5.134  1.00  0.00     0.218 HD
ENDBRANCH  17  20
BRANCH  18  22
HETATM   22  O11         0      23.854  87.486   4.173  1.00  0.00    -0.357 OA
HETATM   23  H11         0      24.579  87.698   4.750  1.00  0.00     0.218 HD
ENDBRANCH  18  22
ENDBRANCH   4  14
BRANCH   8  24
HETATM   24  O17         0      22.814  88.128  -3.647  1.00  0.00    -0.359 OA
HETATM   25  H17         0      22.787  87.280  -3.220  1.00  0.00     0.218 HD
ENDBRANCH   8  24
TORSDOF 5
ENDMDL
MODEL 8
REMARK VINA RESULT:      -6.0      5.572      9.077
REMARK  5 active torsions:
REMARK  status: ('A' for Active; 'I' for Inactive)
REMARK    1  A    between atoms: C4_4  and  C5_5 
REMARK    2  A    between atoms: C8_8  and  O9_9 
REMARK    3  A    between atoms: C10_11  and  O11_12 
REMARK    4  A    between atoms: C16_18  and  O17_19 
REMARK    5  A    between atoms: C19_22  and  O20_23 
ROOT
HETATM    1  O1          0      22.874  89.884   0.454  1.00  0.00    -0.286 OA
HETATM    2  C2          0      22.584  90.662  -0.495  1.00  0.00     0.201 C 
HETATM    3  C3          0      22.319  90.216  -1.778  1.00  0.00     0.067 C 
HETATM    4  C4          0      22.103  91.101  -2.828  1.00  0.00     0.103 C 
HETATM    5  O13         0      22.134  92.399  -2.580  1.00  0.00    -0.307 OA
HETATM    6  C14         0      22.418  92.876  -1.389  1.00  0.00     0.107 C 
HETATM    7  C15         0      22.842  94.185  -1.208  1.00  0.00     0.049 C 
HETATM    8  C16         0      23.380  94.609   0.001  1.00  0.00     0.093 C 
HETATM    9  C18         0      22.990  93.867   1.110  1.00  0.00     0.048 C 
HETATM   10  C19         0      22.517  92.571   0.960  1.00  0.00     0.096 C 
HETATM   11  C21         0      22.419  92.024  -0.290  1.00  0.00     0.084 C 
ENDROOT
BRANCH  10  12
HETATM   12  O20         0      22.546  91.706   2.050  1.00  0.00    -0.359 OA
HETATM   13  H20         0      22.006  90.926   2.014  1.00  0.00     0.218 HD
ENDBRANCH  10  12
BRANCH   4  14
HETATM   14  C5          0      22.428  90.633  -4.177  1.00  0.00     0.025 C 
HETATM   15  C6          0      22.838  91.487  -5.190  1.00  0.00     0.004 C 
HETATM   16  C7          0      23.825  91.030  -6.057  1.00  0.00     0.026 C 
HETATM   17  C8          0      24.295  89.722  -6.004  1.00  0.00     0.112 C 
HETATM   18  C10         0      23.417  88.814  -5.428  1.00  0.00     0.112 C 
HETATM   19  C12         0      22.495  89.284  -4.500  1.00  0.00     0.028 C 
BRANCH  17  20
HETATM   20  O9          0      25.612  89.429  -6.311  1.00  0.00    -0.357 OA
HETATM   21  H9          0      26.336  90.022  -6.150  1.00  0.00     0.218 HD
ENDBRANCH  17  20
BRANCH  18  22
HETATM   22  O11         0      23.753  87.471  -5.519  1.00  0.00    -0.357 OA
HETATM   23  H11         0      23.447  87.002  -6.287  1.00  0.00     0.218 HD
ENDBRANCH  18  22
ENDBRANCH   4  14
BRANCH   8  24
HETATM   24  O17         0      24.475  95.479   0.047  1.00  0.00    -0.359 OA
HETATM   25  H17         0      25.267  95.311  -0.450  1.00  0.00     0.218 HD
ENDBRANCH   8  24
TORSDOF 5
ENDMDL
MODEL 9
REMARK VINA RESULT:      -5.8      7.112      9.448
REMARK  5 active torsions:
REMARK  status: ('A' for Active; 'I' for Inactive)
REMARK    1  A    between atoms: C4_4  and  C5_5 
REMARK    2  A    between atoms: C8_8  and  O9_9 
REMARK    3  A    between atoms: C10_11  and  O11_12 
REMARK    4  A    between atoms: C16_18  and  O17_19 
REMARK    5  A    between atoms: C19_22  and  O20_23 
ROOT
HETATM    1  O1          0      22.980  89.195  -4.968  1.00  0.00    -0.286 OA
HETATM    2  C2          0      22.418  90.221  -4.496  1.00  0.00     0.201 C 
HETATM    3  C3          0      22.082  91.317  -5.273  1.00  0.00     0.067 C 
HETATM    4  C4          0      21.558  92.475  -4.711  1.00  0.00     0.103 C 
HETATM    5  O13         0      21.361  92.514  -3.405  1.00  0.00    -0.307 OA
HETATM    6  C14         0      21.699  91.517  -2.617  1.00  0.00     0.107 C 
HETATM    7  C15         0      21.873  91.690  -1.252  1.00  0.00     0.049 C 
HETATM    8  C16         0      22.470  90.709  -0.470  1.00  0.00     0.093 C 
HETATM    9  C18         0      22.384  89.419  -0.980  1.00  0.00     0.048 C 
HETATM   10  C19         0      22.163  89.209  -2.334  1.00  0.00     0.096 C 
HETATM   11  C21         0      22.013  90.281  -3.172  1.00  0.00     0.084 C 
ENDROOT
BRANCH  10  12
HETATM   12  O20         0      22.507  87.984  -2.898  1.00  0.00    -0.359 OA
HETATM   13  H20         0      21.925  87.248  -2.751  1.00  0.00     0.218 HD
ENDBRANCH  10  12
BRANCH   4  14
HETATM   14  C5          0      21.790  93.731  -5.427  1.00  0.00     0.025 C 
HETATM   15  C6          0      22.951  94.476  -5.282  1.00  0.00     0.004 C 
HETATM   16  C7          0      23.469  95.089  -6.419  1.00  0.00     0.026 C 
HETATM   17  C8          0      22.787  95.076  -7.630  1.00  0.00     0.112 C 
HETATM   18  C10         0      21.416  94.884  -7.521  1.00  0.00     0.112 C 
HETATM   19  C12         0      20.932  94.193  -6.417  1.00  0.00     0.028 C 
BRANCH  17  20
HETATM   20  O9          0      23.474  95.045  -8.831  1.00  0.00    -0.357 OA
HETATM   21  H9          0      23.983  95.773  -9.167  1.00  0.00     0.218 HD
ENDBRANCH  17  20
BRANCH  18  22
HETATM   22  O11         0      20.664  95.051  -8.675  1.00  0.00    -0.357 OA
HETATM   23  H11         0      20.114  95.824  -8.723  1.00  0.00     0.218 HD
ENDBRANCH  18  22
ENDBRANCH   4  14
BRANCH   8  24
HETATM   24  O17         0      23.366  91.037   0.554  1.00  0.00    -0.359 OA
HETATM   25  H17         0      23.579  90.423   1.246  1.00  0.00     0.218 HD
ENDBRANCH   8  24
TORSDOF 5
ENDMDL
