MODEL 1
REMARK VINA RESULT:      -6.4      0.000      0.000
REMARK  5 active torsions:
REMARK  status: ('A' for Active; 'I' for Inactive)
REMARK    1  A    between atoms: C4_4  and  C5_5 
REMARK    2  A    between atoms: C8_8  and  O9_9 
REMARK    3  A    between atoms: C10_11  and  O11_12 
REMARK    4  A    between atoms: C16_18  and  O17_19 
REMARK    5  A    between atoms: C19_22  and  O20_23 
ROOT
HETATM    1  O1          0      51.589  51.539  24.008  1.00  0.00    -0.286 OA
HETATM    2  C2          0      52.338  52.520  24.270  1.00  0.00     0.201 C 
HETATM    3  C3          0      52.991  52.662  25.483  1.00  0.00     0.067 C 
HETATM    4  C4          0      53.727  53.802  25.785  1.00  0.00     0.103 C 
HETATM    5  O13         0      53.816  54.759  24.878  1.00  0.00    -0.307 OA
HETATM    6  C14         0      53.185  54.691  23.726  1.00  0.00     0.107 C 
HETATM    7  C15         0      52.943  55.821  22.958  1.00  0.00     0.049 C 
HETATM    8  C16         0      52.064  55.787  21.881  1.00  0.00     0.093 C 
HETATM    9  C18         0      51.882  54.532  21.312  1.00  0.00     0.048 C 
HETATM   10  C19         0      52.160  53.381  22.037  1.00  0.00     0.096 C 
HETATM   11  C21         0      52.632  53.483  23.317  1.00  0.00     0.084 C 
ENDROOT
BRANCH  10  12
HETATM   12  O20         0      51.582  52.177  21.648  1.00  0.00    -0.359 OA
HETATM   13  H20         0      52.069  51.377  21.808  1.00  0.00     0.218 HD
ENDBRANCH  10  12
BRANCH   4  14
HETATM   14  C5          0      53.864  54.157  27.199  1.00  0.00     0.025 C 
HETATM   15  C6          0      53.945  53.208  28.207  1.00  0.00     0.004 C 
HETATM   16  C7          0      54.812  53.463  29.264  1.00  0.00     0.026 C 
HETATM   17  C8          0      55.476  54.679  29.386  1.00  0.00     0.112 C 
HETATM   18  C10         0      54.868  55.740  28.728  1.00  0.00     0.112 C 
HETATM   19  C12         0      54.074  55.463  27.622  1.00  0.00     0.028 C 
BRANCH  17  20
HETATM   20  O9          0      56.742  54.743  29.940  1.00  0.00    -0.357 OA
HETATM   21  H9          0      57.009  54.248  30.706  1.00  0.00     0.218 HD
ENDBRANCH  17  20
BRANCH  18  22
HETATM   22  O11         0      55.381  57.006  28.970  1.00  0.00    -0.357 OA
HETATM   23  H11         0      54.947  57.735  28.541  1.00  0.00     0.218 HD
ENDBRANCH  18  22
ENDBRANCH   4  14
BRANCH   8  24
HETATM   24  O17         0      51.189  56.847  21.620  1.00  0.00    -0.359 OA
HETATM   25  H17         0      51.412  57.538  21.007  1.00  0.00     0.218 HD
ENDBRANCH   8  24
TORSDOF 5
ENDMDL
MODEL 2
REMARK VINA RESULT:      -6.3      1.940      6.920
REMARK  5 active torsions:
REMARK  status: ('A' for Active; 'I' for Inactive)
REMARK    1  A    between atoms: C4_4  and  C5_5 
REMARK    2  A    between atoms: C8_8  and  O9_9 
REMARK    3  A    between atoms: C10_11  and  O11_12 
REMARK    4  A    between atoms: C16_18  and  O17_19 
REMARK    5  A    between atoms: C19_22  and  O20_23 
ROOT
HETATM    1  O1          0      54.295  56.768  27.608  1.00  0.00    -0.286 OA
HETATM    2  C2          0      54.251  55.596  27.144  1.00  0.00     0.201 C 
HETATM    3  C3          0      53.810  55.311  25.863  1.00  0.00     0.067 C 
HETATM    4  C4          0      53.674  54.003  25.413  1.00  0.00     0.103 C 
HETATM    5  O13         0      53.995  53.014  26.229  1.00  0.00    -0.307 OA
HETATM    6  C14         0      54.383  53.228  27.467  1.00  0.00     0.107 C 
HETATM    7  C15         0      54.334  52.231  28.430  1.00  0.00     0.049 C 
HETATM    8  C16         0      54.499  52.522  29.779  1.00  0.00     0.093 C 
HETATM    9  C18         0      55.215  53.683  30.046  1.00  0.00     0.048 C 
HETATM   10  C19         0      55.323  54.681  29.087  1.00  0.00     0.096 C 
HETATM   11  C21         0      54.734  54.514  27.864  1.00  0.00     0.084 C 
ENDROOT
BRANCH  10  12
HETATM   12  O20         0      55.644  55.975  29.486  1.00  0.00    -0.359 OA
HETATM   13  H20         0      55.045  56.421  30.072  1.00  0.00     0.218 HD
ENDBRANCH  10  12
BRANCH   4  14
HETATM   14  C5          0      52.686  53.756  24.361  1.00  0.00     0.025 C 
HETATM   15  C6          0      52.958  52.986  23.240  1.00  0.00     0.004 C 
HETATM   16  C7          0      51.946  52.158  22.765  1.00  0.00     0.026 C 
HETATM   17  C8          0      50.664  52.192  23.302  1.00  0.00     0.112 C 
HETATM   18  C10         0      50.333  53.381  23.939  1.00  0.00     0.112 C 
HETATM   19  C12         0      51.359  54.148  24.479  1.00  0.00     0.028 C 
BRANCH  17  20
HETATM   20  O9          0      49.891  51.046  23.366  1.00  0.00    -0.357 OA
HETATM   21  H9          0      49.821  50.498  24.140  1.00  0.00     0.218 HD
ENDBRANCH  17  20
BRANCH  18  22
HETATM   22  O11         0      49.010  53.540  24.325  1.00  0.00    -0.357 OA
HETATM   23  H11         0      48.813  53.414  25.246  1.00  0.00     0.218 HD
ENDBRANCH  18  22
ENDBRANCH   4  14
BRANCH   8  24
HETATM   24  O17         0      53.725  51.893  30.761  1.00  0.00    -0.359 OA
HETATM   25  H17         0      54.107  51.580  31.572  1.00  0.00     0.218 HD
ENDBRANCH   8  24
TORSDOF 5
ENDMDL
MODEL 3
REMARK VINA RESULT:      -6.1      1.903      2.495
REMARK  5 active torsions:
REMARK  status: ('A' for Active; 'I' for Inactive)
REMARK    1  A    between atoms: C4_4  and  C5_5 
REMARK    2  A    between atoms: C8_8  and  O9_9 
REMARK    3  A    between atoms: C10_11  and  O11_12 
REMARK    4  A    between atoms: C16_18  and  O17_19 
REMARK    5  A    between atoms: C19_22  and  O20_23 
ROOT
HETATM    1  O1          0      51.149  52.838  24.967  1.00  0.00    -0.286 OA
HETATM    2  C2          0      52.318  53.239  25.222  1.00  0.00     0.201 C 
HETATM    3  C3          0      53.004  52.872  26.368  1.00  0.00     0.067 C 
HETATM    4  C4          0      54.249  53.409  26.675  1.00  0.00     0.103 C 
HETATM    5  O13         0      54.791  54.275  25.837  1.00  0.00    -0.307 OA
HETATM    6  C14         0      54.166  54.685  24.755  1.00  0.00     0.107 C 
HETATM    7  C15         0      54.528  55.854  24.101  1.00  0.00     0.049 C 
HETATM    8  C16         0      53.716  56.414  23.122  1.00  0.00     0.093 C 
HETATM    9  C18         0      52.865  55.521  22.483  1.00  0.00     0.048 C 
HETATM   10  C19         0      52.520  54.320  23.088  1.00  0.00     0.096 C 
HETATM   11  C21         0      53.034  54.006  24.317  1.00  0.00     0.084 C 
ENDROOT
BRANCH  10  12
HETATM   12  O20         0      51.370  53.655  22.674  1.00  0.00    -0.359 OA
HETATM   13  H20         0      50.593  54.174  22.504  1.00  0.00     0.218 HD
ENDBRANCH  10  12
BRANCH   4  14
HETATM   14  C5          0      54.621  53.470  28.090  1.00  0.00     0.025 C 
HETATM   15  C6          0      54.961  54.654  28.728  1.00  0.00     0.004 C 
HETATM   16  C7          0      54.529  54.827  30.039  1.00  0.00     0.026 C 
HETATM   17  C8          0      53.896  53.805  30.739  1.00  0.00     0.112 C 
HETATM   18  C10         0      54.169  52.527  30.271  1.00  0.00     0.112 C 
HETATM   19  C12         0      54.517  52.372  28.935  1.00  0.00     0.028 C 
BRANCH  17  20
HETATM   20  O9          0      52.919  54.088  31.677  1.00  0.00    -0.357 OA
HETATM   21  H9          0      53.010  53.907  32.605  1.00  0.00     0.218 HD
ENDBRANCH  17  20
BRANCH  18  22
HETATM   22  O11         0      53.719  51.466  31.044  1.00  0.00    -0.357 OA
HETATM   23  H11         0      52.824  51.514  31.361  1.00  0.00     0.218 HD
ENDBRANCH  18  22
ENDBRANCH   4  14
BRANCH   8  24
HETATM   24  O17         0      53.532  57.798  23.031  1.00  0.00    -0.359 OA
HETATM   25  H17         0      54.242  58.408  23.194  1.00  0.00     0.218 HD
ENDBRANCH   8  24
TORSDOF 5
ENDMDL
MODEL 4
REMARK VINA RESULT:      -5.9      1.625      7.023
REMARK  5 active torsions:
REMARK  status: ('A' for Active; 'I' for Inactive)
REMARK    1  A    between atoms: C4_4  and  C5_5 
REMARK    2  A    between atoms: C8_8  and  O9_9 
REMARK    3  A    between atoms: C10_11  and  O11_12 
REMARK    4  A    between atoms: C16_18  and  O17_19 
REMARK    5  A    between atoms: C19_22  and  O20_23 
ROOT
HETATM    1  O1          0      54.098  56.699  27.545  1.00  0.00    -0.286 OA
HETATM    2  C2          0      54.067  55.517  27.105  1.00  0.00     0.201 C 
HETATM    3  C3          0      53.570  55.195  25.853  1.00  0.00     0.067 C 
HETATM    4  C4          0      53.452  53.875  25.433  1.00  0.00     0.103 C 
HETATM    5  O13         0      53.847  52.913  26.248  1.00  0.00    -0.307 OA
HETATM    6  C14         0      54.291  53.161  27.461  1.00  0.00     0.107 C 
HETATM    7  C15         0      54.324  52.181  28.442  1.00  0.00     0.049 C 
HETATM    8  C16         0      54.548  52.502  29.775  1.00  0.00     0.093 C 
HETATM    9  C18         0      55.240  53.689  29.985  1.00  0.00     0.048 C 
HETATM   10  C19         0      55.267  54.672  29.005  1.00  0.00     0.096 C 
HETATM   11  C21         0      54.621  54.464  27.817  1.00  0.00     0.084 C 
ENDROOT
BRANCH  10  12
HETATM   12  O20         0      55.566  55.983  29.364  1.00  0.00    -0.359 OA
HETATM   13  H20         0      55.113  56.683  28.910  1.00  0.00     0.218 HD
ENDBRANCH  10  12
BRANCH   4  14
HETATM   14  C5          0      52.420  53.578  24.439  1.00  0.00     0.025 C 
HETATM   15  C6          0      51.064  53.697  24.704  1.00  0.00     0.004 C 
HETATM   16  C7          0      50.249  54.190  23.690  1.00  0.00     0.026 C 
HETATM   17  C8          0      50.741  54.430  22.411  1.00  0.00     0.112 C 
HETATM   18  C10         0      51.881  53.709  22.084  1.00  0.00     0.112 C 
HETATM   19  C12         0      52.723  53.301  23.112  1.00  0.00     0.028 C 
BRANCH  17  20
HETATM   20  O9          0      50.237  55.463  21.641  1.00  0.00    -0.357 OA
HETATM   21  H9          0      49.364  55.465  21.266  1.00  0.00     0.218 HD
ENDBRANCH  17  20
BRANCH  18  22
HETATM   22  O11         0      52.303  53.766  20.763  1.00  0.00    -0.357 OA
HETATM   23  H11         0      53.045  54.329  20.573  1.00  0.00     0.218 HD
ENDBRANCH  18  22
ENDBRANCH   4  14
BRANCH   8  24
HETATM   24  O17         0      53.847  51.868  30.806  1.00  0.00    -0.359 OA
HETATM   25  H17         0      54.295  51.459  31.537  1.00  0.00     0.218 HD
ENDBRANCH   8  24
TORSDOF 5
ENDMDL
MODEL 5
REMARK VINA RESULT:      -5.9      3.060      5.655
REMARK  5 active torsions:
REMARK  status: ('A' for Active; 'I' for Inactive)
REMARK    1  A    between atoms: C4_4  and  C5_5 
REMARK    2  A    between atoms: C8_8  and  O9_9 
REMARK    3  A    between atoms: C10_11  and  O11_12 
REMARK    4  A    between atoms: C16_18  and  O17_19 
REMARK    5  A    between atoms: C19_22  and  O20_23 
ROOT
HETATM    1  O1          0      53.250  54.532  26.272  1.00  0.00    -0.286 OA
HETATM    2  C2          0      53.763  54.620  25.123  1.00  0.00     0.201 C 
HETATM    3  C3          0      54.670  55.608  24.780  1.00  0.00     0.067 C 
HETATM    4  C4          0      55.142  55.744  23.479  1.00  0.00     0.103 C 
HETATM    5  O13         0      54.724  54.892  22.560  1.00  0.00    -0.307 OA
HETATM    6  C14         0      53.835  53.959  22.824  1.00  0.00     0.107 C 
HETATM    7  C15         0      53.105  53.340  21.819  1.00  0.00     0.049 C 
HETATM    8  C16         0      52.000  52.550  22.113  1.00  0.00     0.093 C 
HETATM    9  C18         0      51.995  51.998  23.388  1.00  0.00     0.048 C 
HETATM   10  C19         0      52.751  52.565  24.405  1.00  0.00     0.096 C 
HETATM   11  C21         0      53.520  53.666  24.146  1.00  0.00     0.084 C 
ENDROOT
BRANCH  10  12
HETATM   12  O20         0      52.418  52.298  25.729  1.00  0.00    -0.359 OA
HETATM   13  H20         0      51.500  52.330  25.973  1.00  0.00     0.218 HD
ENDBRANCH  10  12
BRANCH   4  14
HETATM   14  C5          0      55.573  57.078  23.059  1.00  0.00     0.025 C 
HETATM   15  C6          0      56.873  57.535  23.223  1.00  0.00     0.004 C 
HETATM   16  C7          0      57.415  58.317  22.208  1.00  0.00     0.026 C 
HETATM   17  C8          0      56.648  58.744  21.129  1.00  0.00     0.112 C 
HETATM   18  C10         0      55.281  58.784  21.368  1.00  0.00     0.112 C 
HETATM   19  C12         0      54.754  57.930  22.329  1.00  0.00     0.028 C 
BRANCH  17  20
HETATM   20  O9          0      57.214  58.901  19.876  1.00  0.00    -0.357 OA
HETATM   21  H9          0      58.027  58.488  19.608  1.00  0.00     0.218 HD
ENDBRANCH  17  20
BRANCH  18  22
HETATM   22  O11         0      54.490  59.379  20.395  1.00  0.00    -0.357 OA
HETATM   23  H11         0      54.387  60.322  20.442  1.00  0.00     0.218 HD
ENDBRANCH  18  22
ENDBRANCH   4  14
BRANCH   8  24
HETATM   24  O17         0      50.845  52.591  21.324  1.00  0.00    -0.359 OA
HETATM   25  H17         0      50.187  53.267  21.436  1.00  0.00     0.218 HD
ENDBRANCH   8  24
TORSDOF 5
ENDMDL
MODEL 6
REMARK VINA RESULT:      -5.9      4.359      6.607
REMARK  5 active torsions:
REMARK  status: ('A' for Active; 'I' for Inactive)
REMARK    1  A    between atoms: C4_4  and  C5_5 
REMARK    2  A    between atoms: C8_8  and  O9_9 
REMARK    3  A    between atoms: C10_11  and  O11_12 
REMARK    4  A    between atoms: C16_18  and  O17_19 
REMARK    5  A    between atoms: C19_22  and  O20_23 
ROOT
HETATM    1  O1          0      47.898  54.157  25.919  1.00  0.00    -0.286 OA
HETATM    2  C2          0      48.468  53.378  25.106  1.00  0.00     0.201 C 
HETATM    3  C3          0      49.710  53.645  24.556  1.00  0.00     0.067 C 
HETATM    4  C4          0      50.269  52.821  23.585  1.00  0.00     0.103 C 
HETATM    5  O13         0      49.600  51.749  23.200  1.00  0.00    -0.307 OA
HETATM    6  C14         0      48.401  51.469  23.663  1.00  0.00     0.107 C 
HETATM    7  C15         0      47.543  50.606  22.997  1.00  0.00     0.049 C 
HETATM    8  C16         0      46.201  50.512  23.344  1.00  0.00     0.093 C 
HETATM    9  C18         0      45.906  50.879  24.652  1.00  0.00     0.048 C 
HETATM   10  C19         0      46.766  51.704  25.364  1.00  0.00     0.096 C 
HETATM   11  C21         0      47.922  52.145  24.780  1.00  0.00     0.084 C 
ENDROOT
BRANCH  10  12
HETATM   12  O20         0      46.281  52.406  26.463  1.00  0.00    -0.359 OA
HETATM   13  H20         0      46.727  52.295  27.295  1.00  0.00     0.218 HD
ENDBRANCH  10  12
BRANCH   4  14
HETATM   14  C5          0      51.216  53.433  22.652  1.00  0.00     0.025 C 
HETATM   15  C6          0      50.932  54.591  21.943  1.00  0.00     0.004 C 
HETATM   16  C7          0      51.963  55.508  21.766  1.00  0.00     0.026 C 
HETATM   17  C8          0      53.266  55.226  22.161  1.00  0.00     0.112 C 
HETATM   18  C10         0      53.563  53.873  22.257  1.00  0.00     0.112 C 
HETATM   19  C12         0      52.525  52.987  22.519  1.00  0.00     0.028 C 
BRANCH  17  20
HETATM   20  O9          0      54.101  56.230  22.618  1.00  0.00    -0.357 OA
HETATM   21  H9          0      53.903  56.782  23.366  1.00  0.00     0.218 HD
ENDBRANCH  17  20
BRANCH  18  22
HETATM   22  O11         0      54.893  53.535  22.462  1.00  0.00    -0.357 OA
HETATM   23  H11         0      55.509  53.784  21.783  1.00  0.00     0.218 HD
ENDBRANCH  18  22
ENDBRANCH   4  14
BRANCH   8  24
HETATM   24  O17         0      45.202  50.390  22.372  1.00  0.00    -0.359 OA
HETATM   25  H17         0      44.994  51.101  21.778  1.00  0.00     0.218 HD
ENDBRANCH   8  24
TORSDOF 5
ENDMDL
MODEL 7
REMARK VINA RESULT:      -5.7      4.071      7.516
REMARK  5 active torsions:
REMARK  status: ('A' for Active; 'I' for Inactive)
REMARK    1  A    between atoms: C4_4  and  C5_5 
REMARK    2  A    between atoms: C8_8  and  O9_9 
REMARK    3  A    between atoms: C10_11  and  O11_12 
REMARK    4  A    between atoms: C16_18  and  O17_19 
REMARK    5  A    between atoms: C19_22  and  O20_23 
ROOT
HETATM    1  O1          0      49.619  51.541  23.460  1.00  0.00    -0.286 OA
HETATM    2  C2          0      49.697  52.782  23.675  1.00  0.00     0.201 C 
HETATM    3  C3          0      48.589  53.612  23.686  1.00  0.00     0.067 C 
HETATM    4  C4          0      48.713  54.990  23.822  1.00  0.00     0.103 C 
HETATM    5  O13         0      49.920  55.508  23.965  1.00  0.00    -0.307 OA
HETATM    6  C14         0      51.007  54.769  23.924  1.00  0.00     0.107 C 
HETATM    7  C15         0      52.255  55.319  23.672  1.00  0.00     0.049 C 
HETATM    8  C16         0      53.351  54.516  23.379  1.00  0.00     0.093 C 
HETATM    9  C18         0      53.273  53.216  23.862  1.00  0.00     0.048 C 
HETATM   10  C19         0      52.042  52.650  24.169  1.00  0.00     0.096 C 
HETATM   11  C21         0      50.899  53.385  24.010  1.00  0.00     0.084 C 
ENDROOT
BRANCH  10  12
HETATM   12  O20         0      51.925  51.265  24.224  1.00  0.00    -0.359 OA
HETATM   13  H20         0      51.102  50.900  24.526  1.00  0.00     0.218 HD
ENDBRANCH  10  12
BRANCH   4  14
HETATM   14  C5          0      47.655  55.819  23.241  1.00  0.00     0.025 C 
HETATM   15  C6          0      47.909  56.831  22.327  1.00  0.00     0.004 C 
HETATM   16  C7          0      47.003  57.000  21.284  1.00  0.00     0.026 C 
HETATM   17  C8          0      45.816  56.278  21.225  1.00  0.00     0.112 C 
HETATM   18  C10         0      45.369  55.796  22.448  1.00  0.00     0.112 C 
HETATM   19  C12         0      46.306  55.555  23.446  1.00  0.00     0.028 C 
BRANCH  17  20
HETATM   20  O9          0      45.270  55.910  20.008  1.00  0.00    -0.357 OA
HETATM   21  H9          0      45.674  55.286  19.415  1.00  0.00     0.218 HD
ENDBRANCH  17  20
BRANCH  18  22
HETATM   22  O11         0      44.100  55.235  22.476  1.00  0.00    -0.357 OA
HETATM   23  H11         0      43.381  55.810  22.712  1.00  0.00     0.218 HD
ENDBRANCH  18  22
ENDBRANCH   4  14
BRANCH   8  24
HETATM   24  O17         0      54.282  54.883  22.400  1.00  0.00    -0.359 OA
HETATM   25  H17         0      55.118  55.272  22.628  1.00  0.00     0.218 HD
ENDBRANCH   8  24
TORSDOF 5
ENDMDL
MODEL 8
REMARK VINA RESULT:      -5.6      4.390      7.038
REMARK  5 active torsions:
REMARK  status: ('A' for Active; 'I' for Inactive)
REMARK    1  A    between atoms: C4_4  and  C5_5 
REMARK    2  A    between atoms: C8_8  and  O9_9 
REMARK    3  A    between atoms: C10_11  and  O11_12 
REMARK    4  A    between atoms: C16_18  and  O17_19 
REMARK    5  A    between atoms: C19_22  and  O20_23 
ROOT
HETATM    1  O1          0      49.078  58.749  22.070  1.00  0.00    -0.286 OA
HETATM    2  C2          0      48.824  57.586  22.488  1.00  0.00     0.201 C 
HETATM    3  C3          0      49.794  56.606  22.615  1.00  0.00     0.067 C 
HETATM    4  C4          0      49.471  55.303  22.980  1.00  0.00     0.103 C 
HETATM    5  O13         0      48.206  55.009  23.228  1.00  0.00    -0.307 OA
HETATM    6  C14         0      47.242  55.892  23.085  1.00  0.00     0.107 C 
HETATM    7  C15         0      45.915  55.510  22.950  1.00  0.00     0.049 C 
HETATM    8  C16         0      44.941  56.415  22.548  1.00  0.00     0.093 C 
HETATM    9  C18         0      45.235  57.748  22.809  1.00  0.00     0.048 C 
HETATM   10  C19         0      46.549  58.157  22.996  1.00  0.00     0.096 C 
HETATM   11  C21         0      47.560  57.238  22.940  1.00  0.00     0.084 C 
ENDROOT
BRANCH  10  12
HETATM   12  O20         0      46.875  59.498  22.820  1.00  0.00    -0.359 OA
HETATM   13  H20         0      47.758  59.709  22.542  1.00  0.00     0.218 HD
ENDBRANCH  10  12
BRANCH   4  14
HETATM   14  C5          0      50.366  54.239  22.524  1.00  0.00     0.025 C 
HETATM   15  C6          0      51.135  54.343  21.374  1.00  0.00     0.004 C 
HETATM   16  C7          0      52.419  53.809  21.406  1.00  0.00     0.026 C 
HETATM   17  C8          0      52.877  53.078  22.496  1.00  0.00     0.112 C 
HETATM   18  C10         0      51.878  52.504  23.271  1.00  0.00     0.112 C 
HETATM   19  C12         0      50.626  53.108  23.287  1.00  0.00     0.028 C 
BRANCH  17  20
HETATM   20  O9          0      54.209  53.119  22.867  1.00  0.00    -0.357 OA
HETATM   21  H9          0      54.685  52.371  23.212  1.00  0.00     0.218 HD
ENDBRANCH  17  20
BRANCH  18  22
HETATM   22  O11         0      52.280  51.612  24.255  1.00  0.00    -0.357 OA
HETATM   23  H11         0      51.601  51.088  24.663  1.00  0.00     0.218 HD
ENDBRANCH  18  22
ENDBRANCH   4  14
BRANCH   8  24
HETATM   24  O17         0      43.924  56.046  21.661  1.00  0.00    -0.359 OA
HETATM   25  H17         0      44.103  55.857  20.748  1.00  0.00     0.218 HD
ENDBRANCH   8  24
TORSDOF 5
ENDMDL
MODEL 9
REMARK VINA RESULT:      -5.5      1.770      2.673
REMARK  5 active torsions:
REMARK  status: ('A' for Active; 'I' for Inactive)
REMARK    1  A    between atoms: C4_4  and  C5_5 
REMARK    2  A    between atoms: C8_8  and  O9_9 
REMARK    3  A    between atoms: C10_11  and  O11_12 
REMARK    4  A    between atoms: C16_18  and  O17_19 
REMARK    5  A    between atoms: C19_22  and  O20_23 
ROOT
HETATM    1  O1          0      51.840  52.366  27.050  1.00  0.00    -0.286 OA
HETATM    2  C2          0      52.873  53.091  27.048  1.00  0.00     0.201 C 
HETATM    3  C3          0      53.522  53.477  28.208  1.00  0.00     0.067 C 
HETATM    4  C4          0      54.596  54.359  28.184  1.00  0.00     0.103 C 
HETATM    5  O13         0      55.012  54.820  27.017  1.00  0.00    -0.307 OA
HETATM    6  C14         0      54.409  54.515  25.890  1.00  0.00     0.107 C 
HETATM    7  C15         0      54.570  55.281  24.744  1.00  0.00     0.049 C 
HETATM    8  C16         0      53.744  55.111  23.640  1.00  0.00     0.093 C 
HETATM    9  C18         0      53.157  53.856  23.534  1.00  0.00     0.048 C 
HETATM   10  C19         0      53.021  53.044  24.652  1.00  0.00     0.096 C 
HETATM   11  C21         0      53.485  53.476  25.865  1.00  0.00     0.084 C 
ENDROOT
BRANCH  10  12
HETATM   12  O20         0      52.076  52.024  24.641  1.00  0.00    -0.359 OA
HETATM   13  H20         0      51.466  51.974  25.367  1.00  0.00     0.218 HD
ENDBRANCH  10  12
BRANCH   4  14
HETATM   14  C5          0      54.827  55.166  29.384  1.00  0.00     0.025 C 
HETATM   15  C6          0      55.050  54.607  30.634  1.00  0.00     0.004 C 
HETATM   16  C7          0      55.985  55.224  31.458  1.00  0.00     0.026 C 
HETATM   17  C8          0      56.581  56.431  31.110  1.00  0.00     0.112 C 
HETATM   18  C10         0      55.857  57.195  30.205  1.00  0.00     0.112 C 
HETATM   19  C12         0      54.992  56.544  29.334  1.00  0.00     0.028 C 
BRANCH  17  20
HETATM   20  O9          0      57.883  56.713  31.485  1.00  0.00    -0.357 OA
HETATM   21  H9          0      58.143  56.915  32.376  1.00  0.00     0.218 HD
ENDBRANCH  17  20
BRANCH  18  22
HETATM   22  O11         0      56.310  58.485  29.968  1.00  0.00    -0.357 OA
HETATM   23  H11         0      56.439  58.736  29.061  1.00  0.00     0.218 HD
ENDBRANCH  18  22
ENDBRANCH   4  14
BRANCH   8  24
HETATM   24  O17         0      53.282  56.205  22.900  1.00  0.00    -0.359 OA
HETATM   25  H17         0      52.903  56.099  22.035  1.00  0.00     0.218 HD
ENDBRANCH   8  24
TORSDOF 5
ENDMDL
