MODEL 1
REMARK VINA RESULT:      -6.2      0.000      0.000
REMARK  5 active torsions:
REMARK  status: ('A' for Active; 'I' for Inactive)
REMARK    1  A    between atoms: C4_4  and  C5_5 
REMARK    2  A    between atoms: C8_8  and  O9_9 
REMARK    3  A    between atoms: C10_11  and  O11_12 
REMARK    4  A    between atoms: C16_18  and  O17_19 
REMARK    5  A    between atoms: C19_22  and  O20_23 
ROOT
HETATM    1  O1          0      18.109  86.291 -22.781  1.00  0.00    -0.286 OA
HETATM    2  C2          0      17.345  85.776 -23.644  1.00  0.00     0.201 C 
HETATM    3  C3          0      15.965  85.813 -23.541  1.00  0.00     0.067 C 
HETATM    4  C4          0      15.149  85.149 -24.451  1.00  0.00     0.103 C 
HETATM    5  O13         0      15.714  84.487 -25.445  1.00  0.00    -0.307 OA
HETATM    6  C14         0      17.020  84.389 -25.567  1.00  0.00     0.107 C 
HETATM    7  C15         0      17.610  83.398 -26.338  1.00  0.00     0.049 C 
HETATM    8  C16         0      18.973  83.141 -26.262  1.00  0.00     0.093 C 
HETATM    9  C18         0      19.749  84.209 -25.829  1.00  0.00     0.048 C 
HETATM   10  C19         0      19.181  85.241 -25.095  1.00  0.00     0.096 C 
HETATM   11  C21         0      17.843  85.216 -24.810  1.00  0.00     0.084 C 
ENDROOT
BRANCH  10  12
HETATM   12  O20         0      20.000  86.050 -24.312  1.00  0.00    -0.359 OA
HETATM   13  H20         0      20.399  85.665 -23.541  1.00  0.00     0.218 HD
ENDBRANCH  10  12
BRANCH   4  14
HETATM   14  C5          0      13.830  84.723 -23.980  1.00  0.00     0.025 C 
HETATM   15  C6          0      13.432  83.394 -23.958  1.00  0.00     0.004 C 
HETATM   16  C7          0      12.662  82.970 -22.879  1.00  0.00     0.026 C 
HETATM   17  C8          0      12.189  83.864 -21.924  1.00  0.00     0.112 C 
HETATM   18  C10         0      12.093  85.179 -22.359  1.00  0.00     0.112 C 
HETATM   19  C12         0      12.934  85.600 -23.381  1.00  0.00     0.028 C 
BRANCH  17  20
HETATM   20  O9          0      12.042  83.478 -20.604  1.00  0.00    -0.357 OA
HETATM   21  H9          0      11.503  82.747 -20.324  1.00  0.00     0.218 HD
ENDBRANCH  17  20
BRANCH  18  22
HETATM   22  O11         0      11.452  86.074 -21.514  1.00  0.00    -0.357 OA
HETATM   23  H11         0      10.775  85.722 -20.948  1.00  0.00     0.218 HD
ENDBRANCH  18  22
ENDBRANCH   4  14
BRANCH   8  24
HETATM   24  O17         0      19.471  81.833 -26.289  1.00  0.00    -0.359 OA
HETATM   25  H17         0      20.060  81.509 -25.618  1.00  0.00     0.218 HD
ENDBRANCH   8  24
TORSDOF 5
ENDMDL
MODEL 2
REMARK VINA RESULT:      -6.1      4.571      6.867
REMARK  5 active torsions:
REMARK  status: ('A' for Active; 'I' for Inactive)
REMARK    1  A    between atoms: C4_4  and  C5_5 
REMARK    2  A    between atoms: C8_8  and  O9_9 
REMARK    3  A    between atoms: C10_11  and  O11_12 
REMARK    4  A    between atoms: C16_18  and  O17_19 
REMARK    5  A    between atoms: C19_22  and  O20_23 
ROOT
HETATM    1  O1          0      10.942  83.708 -21.715  1.00  0.00    -0.286 OA
HETATM    2  C2          0      11.148  82.895 -22.658  1.00  0.00     0.201 C 
HETATM    3  C3          0      10.317  81.817 -22.915  1.00  0.00     0.067 C 
HETATM    4  C4          0      10.623  80.879 -23.894  1.00  0.00     0.103 C 
HETATM    5  O13         0      11.725  81.039 -24.605  1.00  0.00    -0.307 OA
HETATM    6  C14         0      12.567  82.023 -24.377  1.00  0.00     0.107 C 
HETATM    7  C15         0      13.881  81.978 -24.820  1.00  0.00     0.049 C 
HETATM    8  C16         0      14.828  82.887 -24.364  1.00  0.00     0.093 C 
HETATM    9  C18         0      14.311  84.094 -23.910  1.00  0.00     0.048 C 
HETATM   10  C19         0      12.987  84.186 -23.503  1.00  0.00     0.096 C 
HETATM   11  C21         0      12.180  83.084 -23.565  1.00  0.00     0.084 C 
ENDROOT
BRANCH  10  12
HETATM   12  O20         0      12.604  85.229 -22.665  1.00  0.00    -0.359 OA
HETATM   13  H20         0      13.285  85.784 -22.304  1.00  0.00     0.218 HD
ENDBRANCH  10  12
BRANCH   4  14
HETATM   14  C5          0      10.089  79.527 -23.716  1.00  0.00     0.025 C 
HETATM   15  C6          0       8.846  79.278 -23.152  1.00  0.00     0.004 C 
HETATM   16  C7          0       8.088  78.245 -23.695  1.00  0.00     0.026 C 
HETATM   17  C8          0       8.600  77.401 -24.675  1.00  0.00     0.112 C 
HETATM   18  C10         0       9.986  77.321 -24.704  1.00  0.00     0.112 C 
HETATM   19  C12         0      10.720  78.403 -24.233  1.00  0.00     0.028 C 
BRANCH  17  20
HETATM   20  O9          0       7.779  76.871 -25.654  1.00  0.00    -0.357 OA
HETATM   21  H9          0       7.954  76.052 -26.103  1.00  0.00     0.218 HD
ENDBRANCH  17  20
BRANCH  18  22
HETATM   22  O11         0      10.543  76.355 -25.531  1.00  0.00    -0.357 OA
HETATM   23  H11         0      10.422  76.469 -26.466  1.00  0.00     0.218 HD
ENDBRANCH  18  22
ENDBRANCH   4  14
BRANCH   8  24
HETATM   24  O17         0      16.138  82.492 -24.073  1.00  0.00    -0.359 OA
HETATM   25  H17         0      16.698  82.095 -24.731  1.00  0.00     0.218 HD
ENDBRANCH   8  24
TORSDOF 5
ENDMDL
MODEL 3
REMARK VINA RESULT:      -5.9      8.351     10.904
REMARK  5 active torsions:
REMARK  status: ('A' for Active; 'I' for Inactive)
REMARK    1  A    between atoms: C4_4  and  C5_5 
REMARK    2  A    between atoms: C8_8  and  O9_9 
REMARK    3  A    between atoms: C10_11  and  O11_12 
REMARK    4  A    between atoms: C16_18  and  O17_19 
REMARK    5  A    between atoms: C19_22  and  O20_23 
ROOT
HETATM    1  O1          0       9.117  78.106 -28.155  1.00  0.00    -0.286 OA
HETATM    2  C2          0       8.944  77.953 -26.915  1.00  0.00     0.201 C 
HETATM    3  C3          0       7.801  77.381 -26.382  1.00  0.00     0.067 C 
HETATM    4  C4          0       7.590  77.318 -25.009  1.00  0.00     0.103 C 
HETATM    5  O13         0       8.518  77.801 -24.202  1.00  0.00    -0.307 OA
HETATM    6  C14         0       9.603  78.388 -24.656  1.00  0.00     0.107 C 
HETATM    7  C15         0      10.365  79.233 -23.861  1.00  0.00     0.049 C 
HETATM    8  C16         0      11.352  80.043 -24.408  1.00  0.00     0.093 C 
HETATM    9  C18         0      11.880  79.593 -25.612  1.00  0.00     0.048 C 
HETATM   10  C19         0      11.165  78.711 -26.410  1.00  0.00     0.096 C 
HETATM   11  C21         0       9.937  78.267 -26.000  1.00  0.00     0.084 C 
ENDROOT
BRANCH  10  12
HETATM   12  O20         0      11.477  78.611 -27.763  1.00  0.00    -0.359 OA
HETATM   13  H20         0      12.385  78.720 -28.020  1.00  0.00     0.218 HD
ENDBRANCH  10  12
BRANCH   4  14
HETATM   14  C5          0       6.202  77.283 -24.546  1.00  0.00     0.025 C 
HETATM   15  C6          0       5.119  77.421 -25.402  1.00  0.00     0.004 C 
HETATM   16  C7          0       3.996  76.639 -25.153  1.00  0.00     0.026 C 
HETATM   17  C8          0       3.897  75.847 -24.014  1.00  0.00     0.112 C 
HETATM   18  C10         0       4.699  76.251 -22.955  1.00  0.00     0.112 C 
HETATM   19  C12         0       5.861  76.958 -23.239  1.00  0.00     0.028 C 
BRANCH  17  20
HETATM   20  O9          0       3.213  74.645 -24.044  1.00  0.00    -0.357 OA
HETATM   21  H9          0       3.307  74.001 -24.737  1.00  0.00     0.218 HD
ENDBRANCH  17  20
BRANCH  18  22
HETATM   22  O11         0       4.501  75.614 -21.738  1.00  0.00    -0.357 OA
HETATM   23  H11         0       3.603  75.423 -21.494  1.00  0.00     0.218 HD
ENDBRANCH  18  22
ENDBRANCH   4  14
BRANCH   8  24
HETATM   24  O17         0      11.548  81.356 -23.964  1.00  0.00    -0.359 OA
HETATM   25  H17         0      11.472  81.589 -23.046  1.00  0.00     0.218 HD
ENDBRANCH   8  24
TORSDOF 5
ENDMDL
MODEL 4
REMARK VINA RESULT:      -5.8      8.562     12.922
REMARK  5 active torsions:
REMARK  status: ('A' for Active; 'I' for Inactive)
REMARK    1  A    between atoms: C4_4  and  C5_5 
REMARK    2  A    between atoms: C8_8  and  O9_9 
REMARK    3  A    between atoms: C10_11  and  O11_12 
REMARK    4  A    between atoms: C16_18  and  O17_19 
REMARK    5  A    between atoms: C19_22  and  O20_23 
ROOT
HETATM    1  O1          0       6.625  77.750 -20.345  1.00  0.00    -0.286 OA
HETATM    2  C2          0       6.619  77.592 -21.596  1.00  0.00     0.201 C 
HETATM    3  C3          0       7.749  77.757 -22.379  1.00  0.00     0.067 C 
HETATM    4  C4          0       7.692  77.678 -23.766  1.00  0.00     0.103 C 
HETATM    5  O13         0       6.531  77.419 -24.340  1.00  0.00    -0.307 OA
HETATM    6  C14         0       5.421  77.290 -23.646  1.00  0.00     0.107 C 
HETATM    7  C15         0       4.171  77.419 -24.235  1.00  0.00     0.049 C 
HETATM    8  C16         0       3.020  77.537 -23.466  1.00  0.00     0.093 C 
HETATM    9  C18         0       3.110  77.000 -22.188  1.00  0.00     0.048 C 
HETATM   10  C19         0       4.348  76.814 -21.587  1.00  0.00     0.096 C 
HETATM   11  C21         0       5.489  77.146 -22.265  1.00  0.00     0.084 C 
ENDROOT
BRANCH  10  12
HETATM   12  O20         0       4.421  76.702 -20.202  1.00  0.00    -0.359 OA
HETATM   13  H20         0       4.438  75.830 -19.826  1.00  0.00     0.218 HD
ENDBRANCH  10  12
BRANCH   4  14
HETATM   14  C5          0       8.700  78.424 -24.521  1.00  0.00     0.025 C 
HETATM   15  C6          0       9.893  78.856 -23.960  1.00  0.00     0.004 C 
HETATM   16  C7          0      11.037  78.795 -24.750  1.00  0.00     0.026 C 
HETATM   17  C8          0      10.977  78.444 -26.094  1.00  0.00     0.112 C 
HETATM   18  C10         0       9.741  78.653 -26.693  1.00  0.00     0.112 C 
HETATM   19  C12         0       8.606  78.625 -25.892  1.00  0.00     0.028 C 
BRANCH  17  20
HETATM   20  O9          0      12.013  77.750 -26.693  1.00  0.00    -0.357 OA
HETATM   21  H9          0      12.521  77.077 -26.254  1.00  0.00     0.218 HD
ENDBRANCH  17  20
BRANCH  18  22
HETATM   22  O11         0       9.677  78.500 -28.071  1.00  0.00    -0.357 OA
HETATM   23  H11         0       9.412  77.648 -28.397  1.00  0.00     0.218 HD
ENDBRANCH  18  22
ENDBRANCH   4  14
BRANCH   8  24
HETATM   24  O17         0       1.990  78.414 -23.825  1.00  0.00    -0.359 OA
HETATM   25  H17         0       1.360  78.731 -23.189  1.00  0.00     0.218 HD
ENDBRANCH   8  24
TORSDOF 5
ENDMDL
MODEL 5
REMARK VINA RESULT:      -5.7      7.579     12.149
REMARK  5 active torsions:
REMARK  status: ('A' for Active; 'I' for Inactive)
REMARK    1  A    between atoms: C4_4  and  C5_5 
REMARK    2  A    between atoms: C8_8  and  O9_9 
REMARK    3  A    between atoms: C10_11  and  O11_12 
REMARK    4  A    between atoms: C16_18  and  O17_19 
REMARK    5  A    between atoms: C19_22  and  O20_23 
ROOT
HETATM    1  O1          0       5.004  79.839 -24.535  1.00  0.00    -0.286 OA
HETATM    2  C2          0       5.915  79.549 -23.713  1.00  0.00     0.201 C 
HETATM    3  C3          0       7.259  79.556 -24.048  1.00  0.00     0.067 C 
HETATM    4  C4          0       8.235  79.133 -23.154  1.00  0.00     0.103 C 
HETATM    5  O13         0       7.864  78.736 -21.949  1.00  0.00    -0.307 OA
HETATM    6  C14         0       6.600  78.675 -21.592  1.00  0.00     0.107 C 
HETATM    7  C15         0       6.180  77.905 -20.517  1.00  0.00     0.049 C 
HETATM    8  C16         0       4.833  77.641 -20.301  1.00  0.00     0.093 C 
HETATM    9  C18         0       3.957  78.572 -20.845  1.00  0.00     0.048 C 
HETATM   10  C19         0       4.360  79.392 -21.891  1.00  0.00     0.096 C 
HETATM   11  C21         0       5.634  79.293 -22.379  1.00  0.00     0.084 C 
ENDROOT
BRANCH  10  12
HETATM   12  O20         0       3.395  79.985 -22.700  1.00  0.00    -0.359 OA
HETATM   13  H20         0       3.191  80.901 -22.549  1.00  0.00     0.218 HD
ENDBRANCH  10  12
BRANCH   4  14
HETATM   14  C5          0       9.477  78.601 -23.719  1.00  0.00     0.025 C 
HETATM   15  C6          0       9.581  77.314 -24.227  1.00  0.00     0.004 C 
HETATM   16  C7          0      10.355  77.132 -25.368  1.00  0.00     0.026 C 
HETATM   17  C8          0      11.110  78.167 -25.910  1.00  0.00     0.112 C 
HETATM   18  C10         0      11.437  79.177 -25.015  1.00  0.00     0.112 C 
HETATM   19  C12         0      10.599  79.393 -23.928  1.00  0.00     0.028 C 
BRANCH  17  20
HETATM   20  O9          0      11.315  78.255 -27.276  1.00  0.00    -0.357 OA
HETATM   21  H9          0      12.039  78.726 -27.671  1.00  0.00     0.218 HD
ENDBRANCH  17  20
BRANCH  18  22
HETATM   22  O11         0      12.343  80.134 -25.450  1.00  0.00    -0.357 OA
HETATM   23  H11         0      13.254  80.004 -25.212  1.00  0.00     0.218 HD
ENDBRANCH  18  22
ENDBRANCH   4  14
BRANCH   8  24
HETATM   24  O17         0       4.397  76.381 -19.875  1.00  0.00    -0.359 OA
HETATM   25  H17         0       4.966  75.621 -19.898  1.00  0.00     0.218 HD
ENDBRANCH   8  24
TORSDOF 5
ENDMDL
MODEL 6
REMARK VINA RESULT:      -5.7      1.315      2.669
REMARK  5 active torsions:
REMARK  status: ('A' for Active; 'I' for Inactive)
REMARK    1  A    between atoms: C4_4  and  C5_5 
REMARK    2  A    between atoms: C8_8  and  O9_9 
REMARK    3  A    between atoms: C10_11  and  O11_12 
REMARK    4  A    between atoms: C16_18  and  O17_19 
REMARK    5  A    between atoms: C19_22  and  O20_23 
ROOT
HETATM    1  O1          0      17.870  82.404 -26.796  1.00  0.00    -0.286 OA
HETATM    2  C2          0      17.492  83.131 -25.836  1.00  0.00     0.201 C 
HETATM    3  C3          0      16.290  82.939 -25.178  1.00  0.00     0.067 C 
HETATM    4  C4          0      15.850  83.816 -24.192  1.00  0.00     0.103 C 
HETATM    5  O13         0      16.616  84.844 -23.871  1.00  0.00    -0.307 OA
HETATM    6  C14         0      17.748  85.093 -24.491  1.00  0.00     0.107 C 
HETATM    7  C15         0      18.343  86.346 -24.450  1.00  0.00     0.049 C 
HETATM    8  C16         0      19.389  86.676 -25.303  1.00  0.00     0.093 C 
HETATM    9  C18         0      20.125  85.595 -25.775  1.00  0.00     0.048 C 
HETATM   10  C19         0      19.577  84.320 -25.786  1.00  0.00     0.096 C 
HETATM   11  C21         0      18.308  84.122 -25.313  1.00  0.00     0.084 C 
ENDROOT
BRANCH  10  12
HETATM   12  O20         0      20.116  83.356 -26.632  1.00  0.00    -0.359 OA
HETATM   13  H20         0      19.699  82.503 -26.657  1.00  0.00     0.218 HD
ENDBRANCH  10  12
BRANCH   4  14
HETATM   14  C5          0      14.405  83.922 -23.986  1.00  0.00     0.025 C 
HETATM   15  C6          0      13.589  82.815 -23.798  1.00  0.00     0.004 C 
HETATM   16  C7          0      12.550  82.929 -22.880  1.00  0.00     0.026 C 
HETATM   17  C8          0      12.246  84.141 -22.269  1.00  0.00     0.112 C 
HETATM   18  C10         0      12.669  85.264 -22.966  1.00  0.00     0.112 C 
HETATM   19  C12         0      13.765  85.142 -23.813  1.00  0.00     0.028 C 
BRANCH  17  20
HETATM   20  O9          0      11.756  84.179 -20.976  1.00  0.00    -0.357 OA
HETATM   21  H9          0      10.832  84.250 -20.763  1.00  0.00     0.218 HD
ENDBRANCH  17  20
BRANCH  18  22
HETATM   22  O11         0      12.230  86.496 -22.501  1.00  0.00    -0.357 OA
HETATM   23  H11         0      12.579  86.789 -21.667  1.00  0.00     0.218 HD
ENDBRANCH  18  22
ENDBRANCH   4  14
BRANCH   8  24
HETATM   24  O17         0      19.475  87.940 -25.897  1.00  0.00    -0.359 OA
HETATM   25  H17         0      19.967  88.083 -26.697  1.00  0.00     0.218 HD
ENDBRANCH   8  24
TORSDOF 5
ENDMDL
MODEL 7
REMARK VINA RESULT:      -5.6      2.548      6.924
REMARK  5 active torsions:
REMARK  status: ('A' for Active; 'I' for Inactive)
REMARK    1  A    between atoms: C4_4  and  C5_5 
REMARK    2  A    between atoms: C8_8  and  O9_9 
REMARK    3  A    between atoms: C10_11  and  O11_12 
REMARK    4  A    between atoms: C16_18  and  O17_19 
REMARK    5  A    between atoms: C19_22  and  O20_23 
ROOT
HETATM    1  O1          0      10.691  85.806 -23.459  1.00  0.00    -0.286 OA
HETATM    2  C2          0      11.519  84.855 -23.469  1.00  0.00     0.201 C 
HETATM    3  C3          0      12.888  85.051 -23.388  1.00  0.00     0.067 C 
HETATM    4  C4          0      13.783  83.994 -23.505  1.00  0.00     0.103 C 
HETATM    5  O13         0      13.306  82.774 -23.678  1.00  0.00    -0.307 OA
HETATM    6  C14         0      12.018  82.538 -23.799  1.00  0.00     0.107 C 
HETATM    7  C15         0      11.540  81.366 -24.368  1.00  0.00     0.049 C 
HETATM    8  C16         0      10.204  81.230 -24.726  1.00  0.00     0.093 C 
HETATM    9  C18         0       9.324  82.049 -24.029  1.00  0.00     0.048 C 
HETATM   10  C19         0       9.777  83.205 -23.409  1.00  0.00     0.096 C 
HETATM   11  C21         0      11.104  83.532 -23.469  1.00  0.00     0.084 C 
ENDROOT
BRANCH  10  12
HETATM   12  O20         0       8.869  84.215 -23.106  1.00  0.00    -0.359 OA
HETATM   13  H20         0       8.965  85.048 -23.551  1.00  0.00     0.218 HD
ENDBRANCH  10  12
BRANCH   4  14
HETATM   14  C5          0      15.123  84.304 -24.005  1.00  0.00     0.025 C 
HETATM   15  C6          0      15.712  85.552 -23.857  1.00  0.00     0.004 C 
HETATM   16  C7          0      17.075  85.593 -23.584  1.00  0.00     0.026 C 
HETATM   17  C8          0      17.856  84.442 -23.591  1.00  0.00     0.112 C 
HETATM   18  C10         0      17.341  83.397 -24.345  1.00  0.00     0.112 C 
HETATM   19  C12         0      15.965  83.332 -24.532  1.00  0.00     0.028 C 
BRANCH  17  20
HETATM   20  O9          0      18.936  84.313 -22.736  1.00  0.00    -0.357 OA
HETATM   21  H9          0      19.622  83.665 -22.846  1.00  0.00     0.218 HD
ENDBRANCH  17  20
BRANCH  18  22
HETATM   22  O11         0      18.164  82.297 -24.541  1.00  0.00    -0.357 OA
HETATM   23  H11         0      17.747  81.493 -24.829  1.00  0.00     0.218 HD
ENDBRANCH  18  22
ENDBRANCH   4  14
BRANCH   8  24
HETATM   24  O17         0       9.828  80.582 -25.908  1.00  0.00    -0.359 OA
HETATM   25  H17         0       9.505  79.689 -25.906  1.00  0.00     0.218 HD
ENDBRANCH   8  24
TORSDOF 5
ENDMDL
MODEL 8
REMARK VINA RESULT:      -5.6     10.615     12.841
REMARK  5 active torsions:
REMARK  status: ('A' for Active; 'I' for Inactive)
REMARK    1  A    between atoms: C4_4  and  C5_5 
REMARK    2  A    between atoms: C8_8  and  O9_9 
REMARK    3  A    between atoms: C10_11  and  O11_12 
REMARK    4  A    between atoms: C16_18  and  O17_19 
REMARK    5  A    between atoms: C19_22  and  O20_23 
ROOT
HETATM    1  O1          0       5.166  78.022 -26.475  1.00  0.00    -0.286 OA
HETATM    2  C2          0       6.358  78.000 -26.890  1.00  0.00     0.201 C 
HETATM    3  C3          0       6.688  78.115 -28.229  1.00  0.00     0.067 C 
HETATM    4  C4          0       8.000  77.985 -28.670  1.00  0.00     0.103 C 
HETATM    5  O13         0       8.950  77.766 -27.778  1.00  0.00    -0.307 OA
HETATM    6  C14         0       8.686  77.612 -26.499  1.00  0.00     0.107 C 
HETATM    7  C15         0       9.584  76.999 -25.636  1.00  0.00     0.049 C 
HETATM    8  C16         0       9.205  76.610 -24.357  1.00  0.00     0.093 C 
HETATM    9  C18         0       8.130  77.312 -23.825  1.00  0.00     0.048 C 
HETATM   10  C19         0       7.239  77.976 -24.657  1.00  0.00     0.096 C 
HETATM   11  C21         0       7.429  77.953 -26.012  1.00  0.00     0.084 C 
ENDROOT
BRANCH  10  12
HETATM   12  O20         0       5.970  78.290 -24.182  1.00  0.00    -0.359 OA
HETATM   13  H20         0       5.667  77.852 -23.396  1.00  0.00     0.218 HD
ENDBRANCH  10  12
BRANCH   4  14
HETATM   14  C5          0       8.203  77.521 -30.044  1.00  0.00     0.025 C 
HETATM   15  C6          0       9.182  78.042 -30.876  1.00  0.00     0.004 C 
HETATM   16  C7          0       9.848  77.158 -31.720  1.00  0.00     0.026 C 
HETATM   17  C8          0       9.463  75.826 -31.831  1.00  0.00     0.112 C 
HETATM   18  C10         0       8.145  75.572 -31.476  1.00  0.00     0.112 C 
HETATM   19  C12         0       7.531  76.423 -30.565  1.00  0.00     0.028 C 
BRANCH  17  20
HETATM   20  O9          0      10.399  74.836 -32.072  1.00  0.00    -0.357 OA
HETATM   21  H9          0      11.225  74.987 -32.517  1.00  0.00     0.218 HD
ENDBRANCH  17  20
BRANCH  18  22
HETATM   22  O11         0       7.656  74.302 -31.746  1.00  0.00    -0.357 OA
HETATM   23  H11         0       7.661  73.678 -31.030  1.00  0.00     0.218 HD
ENDBRANCH  18  22
ENDBRANCH   4  14
BRANCH   8  24
HETATM   24  O17         0       9.641  75.402 -23.802  1.00  0.00    -0.359 OA
HETATM   25  H17         0       9.170  74.589 -23.942  1.00  0.00     0.218 HD
ENDBRANCH   8  24
TORSDOF 5
ENDMDL
MODEL 9
REMARK VINA RESULT:      -5.5      1.912      6.934
REMARK  5 active torsions:
REMARK  status: ('A' for Active; 'I' for Inactive)
REMARK    1  A    between atoms: C4_4  and  C5_5 
REMARK    2  A    between atoms: C8_8  and  O9_9 
REMARK    3  A    between atoms: C10_11  and  O11_12 
REMARK    4  A    between atoms: C16_18  and  O17_19 
REMARK    5  A    between atoms: C19_22  and  O20_23 
ROOT
HETATM    1  O1          0      12.996  80.964 -25.533  1.00  0.00    -0.286 OA
HETATM    2  C2          0      13.465  82.019 -25.023  1.00  0.00     0.201 C 
HETATM    3  C3          0      14.738  82.485 -25.302  1.00  0.00     0.067 C 
HETATM    4  C4          0      15.267  83.592 -24.649  1.00  0.00     0.103 C 
HETATM    5  O13         0      14.522  84.219 -23.756  1.00  0.00    -0.307 OA
HETATM    6  C14         0      13.321  83.796 -23.427  1.00  0.00     0.107 C 
HETATM    7  C15         0      12.708  84.184 -22.244  1.00  0.00     0.049 C 
HETATM    8  C16         0      11.565  83.545 -21.780  1.00  0.00     0.093 C 
HETATM    9  C18         0      10.804  82.919 -22.760  1.00  0.00     0.048 C 
HETATM   10  C19         0      11.374  82.559 -23.974  1.00  0.00     0.096 C 
HETATM   11  C21         0      12.692  82.837 -24.214  1.00  0.00     0.084 C 
ENDROOT
BRANCH  10  12
HETATM   12  O20         0      10.763  81.578 -24.748  1.00  0.00    -0.359 OA
HETATM   13  H20         0       9.823  81.471 -24.671  1.00  0.00     0.218 HD
ENDBRANCH  10  12
BRANCH   4  14
HETATM   14  C5          0      16.725  83.663 -24.525  1.00  0.00     0.025 C 
HETATM   15  C6          0      17.584  82.915 -25.317  1.00  0.00     0.004 C 
HETATM   16  C7          0      18.760  83.523 -25.744  1.00  0.00     0.026 C 
HETATM   17  C8          0      19.136  84.783 -25.292  1.00  0.00     0.112 C 
HETATM   18  C10         0      18.577  85.153 -24.076  1.00  0.00     0.112 C 
HETATM   19  C12         0      17.358  84.594 -23.712  1.00  0.00     0.028 C 
BRANCH  17  20
HETATM   20  O9          0      19.835  85.651 -26.111  1.00  0.00    -0.357 OA
HETATM   21  H9          0      19.678  85.739 -27.044  1.00  0.00     0.218 HD
ENDBRANCH  17  20
BRANCH  18  22
HETATM   22  O11         0      19.062  86.313 -23.488  1.00  0.00    -0.357 OA
HETATM   23  H11         0      19.244  86.279 -22.556  1.00  0.00     0.218 HD
ENDBRANCH  18  22
ENDBRANCH   4  14
BRANCH   8  24
HETATM   24  O17         0      11.385  83.268 -20.421  1.00  0.00    -0.359 OA
HETATM   25  H17         0      10.528  83.304 -20.013  1.00  0.00     0.218 HD
ENDBRANCH   8  24
TORSDOF 5
ENDMDL
