MODEL 1
REMARK VINA RESULT:      -5.2      0.000      0.000
REMARK  5 active torsions:
REMARK  status: ('A' for Active; 'I' for Inactive)
REMARK    1  A    between atoms: C4_4  and  C5_5 
REMARK    2  A    between atoms: C8_8  and  O9_9 
REMARK    3  A    between atoms: C10_11  and  O11_12 
REMARK    4  A    between atoms: C16_18  and  O17_19 
REMARK    5  A    between atoms: C19_22  and  O20_23 
ROOT
HETATM    1  O1          0      44.548  68.433 -19.888  1.00  0.00    -0.286 OA
HETATM    2  C2          0      43.875  67.414 -20.205  1.00  0.00     0.201 C 
HETATM    3  C3          0      44.409  66.137 -20.223  1.00  0.00     0.067 C 
HETATM    4  C4          0      43.676  65.046 -20.676  1.00  0.00     0.103 C 
HETATM    5  O13         0      42.432  65.240 -21.077  1.00  0.00    -0.307 OA
HETATM    6  C14         0      41.888  66.437 -21.115  1.00  0.00     0.107 C 
HETATM    7  C15         0      40.768  66.706 -21.888  1.00  0.00     0.049 C 
HETATM    8  C16         0      40.352  68.011 -22.127  1.00  0.00     0.093 C 
HETATM    9  C18         0      40.751  68.938 -21.171  1.00  0.00     0.048 C 
HETATM   10  C19         0      41.840  68.680 -20.349  1.00  0.00     0.096 C 
HETATM   11  C21         0      42.516  67.497 -20.469  1.00  0.00     0.084 C 
ENDROOT
BRANCH  10  12
HETATM   12  O20         0      42.489  69.742 -19.727  1.00  0.00    -0.359 OA
HETATM   13  H20         0      43.069  69.546 -19.001  1.00  0.00     0.218 HD
ENDBRANCH  10  12
BRANCH   4  14
HETATM   14  C5          0      44.426  63.916 -21.227  1.00  0.00     0.025 C 
HETATM   15  C6          0      45.811  63.841 -21.184  1.00  0.00     0.004 C 
HETATM   16  C7          0      46.381  62.595 -20.945  1.00  0.00     0.026 C 
HETATM   17  C8          0      45.610  61.439 -20.884  1.00  0.00     0.112 C 
HETATM   18  C10         0      44.393  61.519 -21.548  1.00  0.00     0.112 C 
HETATM   19  C12         0      43.803  62.768 -21.699  1.00  0.00     0.028 C 
BRANCH  17  20
HETATM   20  O9          0      45.961  60.396 -20.046  1.00  0.00    -0.357 OA
HETATM   21  H9          0      46.767  60.370 -19.544  1.00  0.00     0.218 HD
ENDBRANCH  17  20
BRANCH  18  22
HETATM   22  O11         0      43.671  60.341 -21.680  1.00  0.00    -0.357 OA
HETATM   23  H11         0      42.842  60.291 -21.218  1.00  0.00     0.218 HD
ENDBRANCH  18  22
ENDBRANCH   4  14
BRANCH   8  24
HETATM   24  O17         0      39.875  68.406 -23.381  1.00  0.00    -0.359 OA
HETATM   25  H17         0      39.598  67.772 -24.032  1.00  0.00     0.218 HD
ENDBRANCH   8  24
TORSDOF 5
ENDMDL
MODEL 2
REMARK VINA RESULT:      -5.1      1.839      2.739
REMARK  5 active torsions:
REMARK  status: ('A' for Active; 'I' for Inactive)
REMARK    1  A    between atoms: C4_4  and  C5_5 
REMARK    2  A    between atoms: C8_8  and  O9_9 
REMARK    3  A    between atoms: C10_11  and  O11_12 
REMARK    4  A    between atoms: C16_18  and  O17_19 
REMARK    5  A    between atoms: C19_22  and  O20_23 
ROOT
HETATM    1  O1          0      44.188  66.351 -20.166  1.00  0.00    -0.286 OA
HETATM    2  C2          0      43.106  65.763 -20.440  1.00  0.00     0.201 C 
HETATM    3  C3          0      42.987  64.384 -20.468  1.00  0.00     0.067 C 
HETATM    4  C4          0      41.812  63.762 -20.874  1.00  0.00     0.103 C 
HETATM    5  O13         0      40.782  64.514 -21.219  1.00  0.00    -0.307 OA
HETATM    6  C14         0      40.853  65.827 -21.245  1.00  0.00     0.107 C 
HETATM    7  C15         0      39.950  66.594 -21.967  1.00  0.00     0.049 C 
HETATM    8  C16         0      40.175  67.945 -22.201  1.00  0.00     0.093 C 
HETATM    9  C18         0      41.001  68.571 -21.276  1.00  0.00     0.048 C 
HETATM   10  C19         0      41.884  67.829 -20.503  1.00  0.00     0.096 C 
HETATM   11  C21         0      41.929  66.468 -20.641  1.00  0.00     0.084 C 
ENDROOT
BRANCH  10  12
HETATM   12  O20         0      42.979  68.462 -19.924  1.00  0.00    -0.359 OA
HETATM   13  H20         0      42.923  69.398 -19.770  1.00  0.00     0.218 HD
ENDBRANCH  10  12
BRANCH   4  14
HETATM   14  C5          0      41.927  62.420 -21.447  1.00  0.00     0.025 C 
HETATM   15  C6          0      40.884  61.795 -22.115  1.00  0.00     0.004 C 
HETATM   16  C7          0      41.201  61.030 -23.233  1.00  0.00     0.026 C 
HETATM   17  C8          0      42.520  60.784 -23.599  1.00  0.00     0.112 C 
HETATM   18  C10         0      43.439  60.896 -22.564  1.00  0.00     0.112 C 
HETATM   19  C12         0      43.134  61.733 -21.497  1.00  0.00     0.028 C 
BRANCH  17  20
HETATM   20  O9          0      42.874  60.653 -24.930  1.00  0.00    -0.357 OA
HETATM   21  H9          0      43.768  60.537 -25.229  1.00  0.00     0.218 HD
ENDBRANCH  17  20
BRANCH  18  22
HETATM   22  O11         0      44.736  60.478 -22.827  1.00  0.00    -0.357 OA
HETATM   23  H11         0      45.161  60.852 -23.591  1.00  0.00     0.218 HD
ENDBRANCH  18  22
ENDBRANCH   4  14
BRANCH   8  24
HETATM   24  O17         0      39.877  68.531 -23.436  1.00  0.00    -0.359 OA
HETATM   25  H17         0      40.129  68.123 -24.256  1.00  0.00     0.218 HD
ENDBRANCH   8  24
TORSDOF 5
ENDMDL
MODEL 3
REMARK VINA RESULT:      -5.1      2.150      3.944
REMARK  5 active torsions:
REMARK  status: ('A' for Active; 'I' for Inactive)
REMARK    1  A    between atoms: C4_4  and  C5_5 
REMARK    2  A    between atoms: C8_8  and  O9_9 
REMARK    3  A    between atoms: C10_11  and  O11_12 
REMARK    4  A    between atoms: C16_18  and  O17_19 
REMARK    5  A    between atoms: C19_22  and  O20_23 
ROOT
HETATM    1  O1          0      39.875  67.202 -21.472  1.00  0.00    -0.286 OA
HETATM    2  C2          0      40.861  66.415 -21.458  1.00  0.00     0.201 C 
HETATM    3  C3          0      40.822  65.151 -22.022  1.00  0.00     0.067 C 
HETATM    4  C4          0      41.887  64.267 -21.902  1.00  0.00     0.103 C 
HETATM    5  O13         0      42.968  64.658 -21.249  1.00  0.00    -0.307 OA
HETATM    6  C14         0      43.043  65.833 -20.663  1.00  0.00     0.107 C 
HETATM    7  C15         0      43.971  66.094 -19.666  1.00  0.00     0.049 C 
HETATM    8  C16         0      43.883  67.236 -18.879  1.00  0.00     0.093 C 
HETATM    9  C18         0      43.201  68.299 -19.460  1.00  0.00     0.048 C 
HETATM   10  C19         0      42.299  68.078 -20.492  1.00  0.00     0.096 C 
HETATM   11  C21         0      42.092  66.806 -20.952  1.00  0.00     0.084 C 
ENDROOT
BRANCH  10  12
HETATM   12  O20         0      41.327  69.036 -20.763  1.00  0.00    -0.359 OA
HETATM   13  H20         0      40.480  68.736 -21.070  1.00  0.00     0.218 HD
ENDBRANCH  10  12
BRANCH   4  14
HETATM   14  C5          0      41.580  62.836 -21.962  1.00  0.00     0.025 C 
HETATM   15  C6          0      40.359  62.347 -22.403  1.00  0.00     0.004 C 
HETATM   16  C7          0      40.369  61.186 -23.170  1.00  0.00     0.026 C 
HETATM   17  C8          0      41.536  60.460 -23.379  1.00  0.00     0.112 C 
HETATM   18  C10         0      42.520  60.654 -22.418  1.00  0.00     0.112 C 
HETATM   19  C12         0      42.538  61.859 -21.726  1.00  0.00     0.028 C 
BRANCH  17  20
HETATM   20  O9          0      41.745  59.781 -24.566  1.00  0.00    -0.357 OA
HETATM   21  H9          0      41.956  58.855 -24.615  1.00  0.00     0.218 HD
ENDBRANCH  17  20
BRANCH  18  22
HETATM   22  O11         0      43.625  59.817 -22.473  1.00  0.00    -0.357 OA
HETATM   23  H11         0      44.260  59.988 -23.158  1.00  0.00     0.218 HD
ENDBRANCH  18  22
ENDBRANCH   4  14
BRANCH   8  24
HETATM   24  O17         0      44.154  67.199 -17.507  1.00  0.00    -0.359 OA
HETATM   25  H17         0      43.458  67.189 -16.860  1.00  0.00     0.218 HD
ENDBRANCH   8  24
TORSDOF 5
ENDMDL
MODEL 4
REMARK VINA RESULT:      -5.1      3.751      4.846
REMARK  5 active torsions:
REMARK  status: ('A' for Active; 'I' for Inactive)
REMARK    1  A    between atoms: C4_4  and  C5_5 
REMARK    2  A    between atoms: C8_8  and  O9_9 
REMARK    3  A    between atoms: C10_11  and  O11_12 
REMARK    4  A    between atoms: C16_18  and  O17_19 
REMARK    5  A    between atoms: C19_22  and  O20_23 
ROOT
HETATM    1  O1          0      46.184  68.449 -22.302  1.00  0.00    -0.286 OA
HETATM    2  C2          0      45.007  68.304 -22.732  1.00  0.00     0.201 C 
HETATM    3  C3          0      43.997  67.733 -21.976  1.00  0.00     0.067 C 
HETATM    4  C4          0      42.736  67.492 -22.510  1.00  0.00     0.103 C 
HETATM    5  O13         0      42.500  67.838 -23.763  1.00  0.00    -0.307 OA
HETATM    6  C14         0      43.434  68.349 -24.535  1.00  0.00     0.107 C 
HETATM    7  C15         0      43.325  68.341 -25.918  1.00  0.00     0.049 C 
HETATM    8  C16         0      44.411  68.644 -26.729  1.00  0.00     0.093 C 
HETATM    9  C18         0      45.384  69.438 -26.135  1.00  0.00     0.048 C 
HETATM   10  C19         0      45.492  69.506 -24.753  1.00  0.00     0.096 C 
HETATM   11  C21         0      44.622  68.799 -23.968  1.00  0.00     0.084 C 
ENDROOT
BRANCH  10  12
HETATM   12  O20         0      46.691  69.925 -24.183  1.00  0.00    -0.359 OA
HETATM   13  H20         0      47.007  70.793 -24.402  1.00  0.00     0.218 HD
ENDBRANCH  10  12
BRANCH   4  14
HETATM   14  C5          0      41.958  66.400 -21.922  1.00  0.00     0.025 C 
HETATM   15  C6          0      41.780  65.178 -22.554  1.00  0.00     0.004 C 
HETATM   16  C7          0      41.794  64.035 -21.761  1.00  0.00     0.026 C 
HETATM   17  C8          0      41.847  64.109 -20.374  1.00  0.00     0.112 C 
HETATM   18  C10         0      41.389  65.307 -19.840  1.00  0.00     0.112 C 
HETATM   19  C12         0      41.466  66.452 -20.624  1.00  0.00     0.028 C 
BRANCH  17  20
HETATM   20  O9          0      42.505  63.141 -19.636  1.00  0.00    -0.357 OA
HETATM   21  H9          0      42.091  62.626 -18.953  1.00  0.00     0.218 HD
ENDBRANCH  17  20
BRANCH  18  22
HETATM   22  O11         0      41.243  65.365 -18.461  1.00  0.00    -0.357 OA
HETATM   23  H11         0      41.893  64.906 -17.940  1.00  0.00     0.218 HD
ENDBRANCH  18  22
ENDBRANCH   4  14
BRANCH   8  24
HETATM   24  O17         0      44.660  67.934 -27.909  1.00  0.00    -0.359 OA
HETATM   25  H17         0      44.523  66.996 -27.966  1.00  0.00     0.218 HD
ENDBRANCH   8  24
TORSDOF 5
ENDMDL
MODEL 5
REMARK VINA RESULT:      -5.0      3.149      5.698
REMARK  5 active torsions:
REMARK  status: ('A' for Active; 'I' for Inactive)
REMARK    1  A    between atoms: C4_4  and  C5_5 
REMARK    2  A    between atoms: C8_8  and  O9_9 
REMARK    3  A    between atoms: C10_11  and  O11_12 
REMARK    4  A    between atoms: C16_18  and  O17_19 
REMARK    5  A    between atoms: C19_22  and  O20_23 
ROOT
HETATM    1  O1          0      44.371  64.868 -23.559  1.00  0.00    -0.286 OA
HETATM    2  C2          0      43.577  65.432 -22.757  1.00  0.00     0.201 C 
HETATM    3  C3          0      43.931  66.538 -22.003  1.00  0.00     0.067 C 
HETATM    4  C4          0      43.071  67.076 -21.052  1.00  0.00     0.103 C 
HETATM    5  O13         0      41.882  66.525 -20.886  1.00  0.00    -0.307 OA
HETATM    6  C14         0      41.511  65.452 -21.549  1.00  0.00     0.107 C 
HETATM    7  C15         0      40.468  64.647 -21.113  1.00  0.00     0.049 C 
HETATM    8  C16         0      40.246  63.391 -21.665  1.00  0.00     0.093 C 
HETATM    9  C18         0      40.732  63.223 -22.956  1.00  0.00     0.048 C 
HETATM   10  C19         0      41.743  64.041 -23.441  1.00  0.00     0.096 C 
HETATM   11  C21         0      42.253  65.033 -22.648  1.00  0.00     0.084 C 
ENDROOT
BRANCH  10  12
HETATM   12  O20         0      42.508  63.610 -24.520  1.00  0.00    -0.359 OA
HETATM   13  H20         0      42.097  63.040 -25.158  1.00  0.00     0.218 HD
ENDBRANCH  10  12
BRANCH   4  14
HETATM   14  C5          0      43.679  67.792 -19.928  1.00  0.00     0.025 C 
HETATM   15  C6          0      43.396  69.119 -19.640  1.00  0.00     0.004 C 
HETATM   16  C7          0      43.296  69.481 -18.301  1.00  0.00     0.026 C 
HETATM   17  C8          0      43.600  68.587 -17.279  1.00  0.00     0.112 C 
HETATM   18  C10         0      44.451  67.553 -17.648  1.00  0.00     0.112 C 
HETATM   19  C12         0      44.467  67.155 -18.979  1.00  0.00     0.028 C 
BRANCH  17  20
HETATM   20  O9          0      42.926  68.634 -16.072  1.00  0.00    -0.357 OA
HETATM   21  H9          0      42.237  68.027 -15.829  1.00  0.00     0.218 HD
ENDBRANCH  17  20
BRANCH  18  22
HETATM   22  O11         0      44.936  66.745 -16.629  1.00  0.00    -0.357 OA
HETATM   23  H11         0      45.282  67.184 -15.860  1.00  0.00     0.218 HD
ENDBRANCH  18  22
ENDBRANCH   4  14
BRANCH   8  24
HETATM   24  O17         0      39.875  62.301 -20.870  1.00  0.00    -0.359 OA
HETATM   25  H17         0      39.715  61.442 -21.244  1.00  0.00     0.218 HD
ENDBRANCH   8  24
TORSDOF 5
ENDMDL
MODEL 6
REMARK VINA RESULT:      -4.9     12.698     17.222
REMARK  5 active torsions:
REMARK  status: ('A' for Active; 'I' for Inactive)
REMARK    1  A    between atoms: C4_4  and  C5_5 
REMARK    2  A    between atoms: C8_8  and  O9_9 
REMARK    3  A    between atoms: C10_11  and  O11_12 
REMARK    4  A    between atoms: C16_18  and  O17_19 
REMARK    5  A    between atoms: C19_22  and  O20_23 
ROOT
HETATM    1  O1          0      53.595  51.639 -12.879  1.00  0.00    -0.286 OA
HETATM    2  C2          0      53.259  52.853 -12.796  1.00  0.00     0.201 C 
HETATM    3  C3          0      52.163  53.375 -13.461  1.00  0.00     0.067 C 
HETATM    4  C4          0      51.875  54.735 -13.435  1.00  0.00     0.103 C 
HETATM    5  O13         0      52.662  55.537 -12.740  1.00  0.00    -0.307 OA
HETATM    6  C14         0      53.737  55.099 -12.123  1.00  0.00     0.107 C 
HETATM    7  C15         0      54.762  55.954 -11.743  1.00  0.00     0.049 C 
HETATM    8  C16         0      55.994  55.463 -11.327  1.00  0.00     0.093 C 
HETATM    9  C18         0      55.969  54.172 -10.815  1.00  0.00     0.048 C 
HETATM   10  C19         0      54.933  53.305 -11.136  1.00  0.00     0.096 C 
HETATM   11  C21         0      53.920  53.731 -11.951  1.00  0.00     0.084 C 
ENDROOT
BRANCH  10  12
HETATM   12  O20         0      55.125  51.934 -10.996  1.00  0.00    -0.359 OA
HETATM   13  H20         0      55.808  51.525 -11.513  1.00  0.00     0.218 HD
ENDBRANCH  10  12
BRANCH   4  14
HETATM   14  C5          0      51.136  55.285 -14.573  1.00  0.00     0.025 C 
HETATM   15  C6          0      50.682  56.595 -14.613  1.00  0.00     0.004 C 
HETATM   16  C7          0      50.750  57.264 -15.831  1.00  0.00     0.026 C 
HETATM   17  C8          0      51.129  56.614 -17.000  1.00  0.00     0.112 C 
HETATM   18  C10         0      50.943  55.238 -16.984  1.00  0.00     0.112 C 
HETATM   19  C12         0      50.965  54.582 -15.759  1.00  0.00     0.028 C 
BRANCH  17  20
HETATM   20  O9          0      51.826  57.283 -17.990  1.00  0.00    -0.357 OA
HETATM   21  H9          0      52.383  56.852 -18.627  1.00  0.00     0.218 HD
ENDBRANCH  17  20
BRANCH  18  22
HETATM   22  O11         0      51.125  54.565 -18.184  1.00  0.00    -0.357 OA
HETATM   23  H11         0      51.942  54.092 -18.293  1.00  0.00     0.218 HD
ENDBRANCH  18  22
ENDBRANCH   4  14
BRANCH   8  24
HETATM   24  O17         0      57.191  56.081 -11.707  1.00  0.00    -0.359 OA
HETATM   25  H17         0      57.208  56.966 -12.052  1.00  0.00     0.218 HD
ENDBRANCH   8  24
TORSDOF 5
ENDMDL
MODEL 7
REMARK VINA RESULT:      -4.8     14.395     19.508
REMARK  5 active torsions:
REMARK  status: ('A' for Active; 'I' for Inactive)
REMARK    1  A    between atoms: C4_4  and  C5_5 
REMARK    2  A    between atoms: C8_8  and  O9_9 
REMARK    3  A    between atoms: C10_11  and  O11_12 
REMARK    4  A    between atoms: C16_18  and  O17_19 
REMARK    5  A    between atoms: C19_22  and  O20_23 
ROOT
HETATM    1  O1          0      57.043  52.916 -15.043  1.00  0.00    -0.286 OA
HETATM    2  C2          0      56.005  52.447 -14.500  1.00  0.00     0.201 C 
HETATM    3  C3          0      54.736  52.938 -14.757  1.00  0.00     0.067 C 
HETATM    4  C4          0      53.622  52.472 -14.068  1.00  0.00     0.103 C 
HETATM    5  O13         0      53.786  51.524 -13.162  1.00  0.00    -0.307 OA
HETATM    6  C14         0      54.973  51.050 -12.853  1.00  0.00     0.107 C 
HETATM    7  C15         0      55.203  50.374 -11.664  1.00  0.00     0.049 C 
HETATM    8  C16         0      56.494  50.102 -11.226  1.00  0.00     0.093 C 
HETATM    9  C18         0      57.454  50.048 -12.229  1.00  0.00     0.048 C 
HETATM   10  C19         0      57.237  50.674 -13.449  1.00  0.00     0.096 C 
HETATM   11  C21         0      56.060  51.336 -13.672  1.00  0.00     0.084 C 
ENDROOT
BRANCH  10  12
HETATM   12  O20         0      58.326  50.990 -14.255  1.00  0.00    -0.359 OA
HETATM   13  H20         0      58.223  51.689 -14.889  1.00  0.00     0.218 HD
ENDBRANCH  10  12
BRANCH   4  14
HETATM   14  C5          0      52.488  53.388 -13.933  1.00  0.00     0.025 C 
HETATM   15  C6          0      52.315  54.213 -12.831  1.00  0.00     0.004 C 
HETATM   16  C7          0      51.819  55.493 -13.055  1.00  0.00     0.026 C 
HETATM   17  C8          0      51.384  55.897 -14.313  1.00  0.00     0.112 C 
HETATM   18  C10         0      51.008  54.860 -15.156  1.00  0.00     0.112 C 
HETATM   19  C12         0      51.583  53.609 -14.963  1.00  0.00     0.028 C 
BRANCH  17  20
HETATM   20  O9          0      51.530  57.209 -14.727  1.00  0.00    -0.357 OA
HETATM   21  H9          0      50.936  57.642 -15.328  1.00  0.00     0.218 HD
ENDBRANCH  17  20
BRANCH  18  22
HETATM   22  O11         0      50.390  55.212 -16.348  1.00  0.00    -0.357 OA
HETATM   23  H11         0      49.619  55.763 -16.286  1.00  0.00     0.218 HD
ENDBRANCH  18  22
ENDBRANCH   4  14
BRANCH   8  24
HETATM   24  O17         0      56.845  50.214  -9.876  1.00  0.00    -0.359 OA
HETATM   25  H17         0      57.656  50.627  -9.604  1.00  0.00     0.218 HD
ENDBRANCH   8  24
TORSDOF 5
ENDMDL
MODEL 8
REMARK VINA RESULT:      -4.7     10.580     14.302
REMARK  5 active torsions:
REMARK  status: ('A' for Active; 'I' for Inactive)
REMARK    1  A    between atoms: C4_4  and  C5_5 
REMARK    2  A    between atoms: C8_8  and  O9_9 
REMARK    3  A    between atoms: C10_11  and  O11_12 
REMARK    4  A    between atoms: C16_18  and  O17_19 
REMARK    5  A    between atoms: C19_22  and  O20_23 
ROOT
HETATM    1  O1          0      54.521  58.650 -15.717  1.00  0.00    -0.286 OA
HETATM    2  C2          0      53.516  57.937 -15.446  1.00  0.00     0.201 C 
HETATM    3  C3          0      53.617  56.697 -14.838  1.00  0.00     0.067 C 
HETATM    4  C4          0      52.503  55.887 -14.644  1.00  0.00     0.103 C 
HETATM    5  O13         0      51.321  56.330 -15.035  1.00  0.00    -0.307 OA
HETATM    6  C14         0      51.175  57.482 -15.651  1.00  0.00     0.107 C 
HETATM    7  C15         0      50.046  57.770 -16.405  1.00  0.00     0.049 C 
HETATM    8  C16         0      50.006  58.870 -17.253  1.00  0.00     0.093 C 
HETATM    9  C18         0      50.873  59.903 -16.916  1.00  0.00     0.048 C 
HETATM   10  C19         0      51.987  59.659 -16.124  1.00  0.00     0.096 C 
HETATM   11  C21         0      52.224  58.395 -15.657  1.00  0.00     0.084 C 
ENDROOT
BRANCH  10  12
HETATM   12  O20         0      53.051  60.554 -16.153  1.00  0.00    -0.359 OA
HETATM   13  H20         0      53.928  60.208 -16.035  1.00  0.00     0.218 HD
ENDBRANCH  10  12
BRANCH   4  14
HETATM   14  C5          0      52.729  54.442 -14.580  1.00  0.00     0.025 C 
HETATM   15  C6          0      53.925  53.850 -14.958  1.00  0.00     0.004 C 
HETATM   16  C7          0      54.381  52.776 -14.200  1.00  0.00     0.026 C 
HETATM   17  C8          0      53.611  52.222 -13.183  1.00  0.00     0.112 C 
HETATM   18  C10         0      52.246  52.444 -13.303  1.00  0.00     0.112 C 
HETATM   19  C12         0      51.818  53.572 -13.994  1.00  0.00     0.028 C 
BRANCH  17  20
HETATM   20  O9          0      54.206  51.688 -12.054  1.00  0.00    -0.357 OA
HETATM   21  H9          0      54.899  52.119 -11.568  1.00  0.00     0.218 HD
ENDBRANCH  17  20
BRANCH  18  22
HETATM   22  O11         0      51.418  51.758 -12.426  1.00  0.00    -0.357 OA
HETATM   23  H11         0      50.738  51.217 -12.810  1.00  0.00     0.218 HD
ENDBRANCH  18  22
ENDBRANCH   4  14
BRANCH   8  24
HETATM   24  O17         0      49.403  58.798 -18.514  1.00  0.00    -0.359 OA
HETATM   25  H17         0      49.015  57.993 -18.836  1.00  0.00     0.218 HD
ENDBRANCH   8  24
TORSDOF 5
ENDMDL
MODEL 9
REMARK VINA RESULT:      -4.7      1.895      6.575
REMARK  5 active torsions:
REMARK  status: ('A' for Active; 'I' for Inactive)
REMARK    1  A    between atoms: C4_4  and  C5_5 
REMARK    2  A    between atoms: C8_8  and  O9_9 
REMARK    3  A    between atoms: C10_11  and  O11_12 
REMARK    4  A    between atoms: C16_18  and  O17_19 
REMARK    5  A    between atoms: C19_22  and  O20_23 
ROOT
HETATM    1  O1          0      47.796  65.630 -18.878  1.00  0.00    -0.286 OA
HETATM    2  C2          0      46.823  65.357 -19.633  1.00  0.00     0.201 C 
HETATM    3  C3          0      45.765  66.227 -19.837  1.00  0.00     0.067 C 
HETATM    4  C4          0      44.656  65.861 -20.592  1.00  0.00     0.103 C 
HETATM    5  O13         0      44.630  64.659 -21.140  1.00  0.00    -0.307 OA
HETATM    6  C14         0      45.590  63.782 -20.946  1.00  0.00     0.107 C 
HETATM    7  C15         0      45.397  62.426 -21.167  1.00  0.00     0.049 C 
HETATM    8  C16         0      46.318  61.484 -20.724  1.00  0.00     0.093 C 
HETATM    9  C18         0      47.612  61.961 -20.557  1.00  0.00     0.048 C 
HETATM   10  C19         0      47.846  63.318 -20.381  1.00  0.00     0.096 C 
HETATM   11  C21         0      46.795  64.195 -20.388  1.00  0.00     0.084 C 
ENDROOT
BRANCH  10  12
HETATM   12  O20         0      49.037  63.732 -19.793  1.00  0.00    -0.359 OA
HETATM   13  H20         0      49.378  63.220 -19.069  1.00  0.00     0.218 HD
ENDBRANCH  10  12
BRANCH   4  14
HETATM   14  C5          0      43.387  66.522 -20.282  1.00  0.00     0.025 C 
HETATM   15  C6          0      43.286  67.887 -20.056  1.00  0.00     0.004 C 
HETATM   16  C7          0      42.163  68.541 -20.552  1.00  0.00     0.026 C 
HETATM   17  C8          0      41.111  67.843 -21.135  1.00  0.00     0.112 C 
HETATM   18  C10         0      41.014  66.513 -20.750  1.00  0.00     0.112 C 
HETATM   19  C12         0      42.169  65.858 -20.339  1.00  0.00     0.028 C 
BRANCH  17  20
HETATM   20  O9          0      40.377  68.400 -22.168  1.00  0.00    -0.357 OA
HETATM   21  H9          0      40.160  67.939 -22.970  1.00  0.00     0.218 HD
ENDBRANCH  17  20
BRANCH  18  22
HETATM   22  O11         0      39.878  65.824 -21.152  1.00  0.00    -0.357 OA
HETATM   23  H11         0      39.076  66.327 -21.234  1.00  0.00     0.218 HD
ENDBRANCH  18  22
ENDBRANCH   4  14
BRANCH   8  24
HETATM   24  O17         0      45.906  60.265 -20.173  1.00  0.00    -0.359 OA
HETATM   25  H17         0      45.425  60.224 -19.355  1.00  0.00     0.218 HD
ENDBRANCH   8  24
TORSDOF 5
ENDMDL
