MODEL 1
REMARK VINA RESULT:      -0.0      0.000      0.000
REMARK  5 active torsions:
REMARK  status: ('A' for Active; 'I' for Inactive)
REMARK    1  A    between atoms: C4_4  and  C5_5 
REMARK    2  A    between atoms: C8_8  and  O9_9 
REMARK    3  A    between atoms: C10_11  and  O11_12 
REMARK    4  A    between atoms: C16_18  and  O17_19 
REMARK    5  A    between atoms: C19_22  and  O20_23 
ROOT
HETATM    1  O1          0      20.590  69.934  32.679  1.00  0.00    -0.286 OA
HETATM    2  C2          0      21.127  70.897  32.066  1.00  0.00     0.201 C 
HETATM    3  C3          0      22.128  70.723  31.126  1.00  0.00     0.067 C 
HETATM    4  C4          0      22.774  71.807  30.540  1.00  0.00     0.103 C 
HETATM    5  O13         0      22.402  73.028  30.881  1.00  0.00    -0.307 OA
HETATM    6  C14         0      21.483  73.248  31.796  1.00  0.00     0.107 C 
HETATM    7  C15         0      21.370  74.473  32.438  1.00  0.00     0.049 C 
HETATM    8  C16         0      20.578  74.624  33.570  1.00  0.00     0.093 C 
HETATM    9  C18         0      19.545  73.702  33.690  1.00  0.00     0.048 C 
HETATM   10  C19         0      19.603  72.486  33.023  1.00  0.00     0.096 C 
HETATM   11  C21         0      20.678  72.199  32.227  1.00  0.00     0.084 C 
ENDROOT
BRANCH  10  12
HETATM   12  O20         0      18.823  71.425  33.473  1.00  0.00    -0.359 OA
HETATM   13  H20         0      18.462  70.832  32.825  1.00  0.00     0.218 HD
ENDBRANCH  10  12
BRANCH   4  14
HETATM   14  C5          0      24.143  71.594  30.066  1.00  0.00     0.025 C 
HETATM   15  C6          0      25.051  72.630  29.902  1.00  0.00     0.004 C 
HETATM   16  C7          0      26.377  72.385  30.245  1.00  0.00     0.026 C 
HETATM   17  C8          0      26.813  71.116  30.611  1.00  0.00     0.112 C 
HETATM   18  C10         0      26.024  70.074  30.143  1.00  0.00     0.112 C 
HETATM   19  C12         0      24.681  70.326  29.889  1.00  0.00     0.028 C 
BRANCH  17  20
HETATM   20  O9          0      27.826  70.955  31.540  1.00  0.00    -0.357 OA
HETATM   21  H9          0      28.286  71.679  31.950  1.00  0.00     0.218 HD
ENDBRANCH  17  20
BRANCH  18  22
HETATM   22  O11         0      26.513  68.787  30.317  1.00  0.00    -0.357 OA
HETATM   23  H11         0      27.174  68.492  29.701  1.00  0.00     0.218 HD
ENDBRANCH  18  22
ENDBRANCH   4  14
BRANCH   8  24
HETATM   24  O17         0      20.992  75.410  34.651  1.00  0.00    -0.359 OA
HETATM   25  H17         0      21.427  76.244  34.523  1.00  0.00     0.218 HD
ENDBRANCH   8  24
TORSDOF 5
ENDMDL
MODEL 2
REMARK VINA RESULT:      -0.0      2.263      3.038
REMARK  5 active torsions:
REMARK  status: ('A' for Active; 'I' for Inactive)
REMARK    1  A    between atoms: C4_4  and  C5_5 
REMARK    2  A    between atoms: C8_8  and  O9_9 
REMARK    3  A    between atoms: C10_11  and  O11_12 
REMARK    4  A    between atoms: C16_18  and  O17_19 
REMARK    5  A    between atoms: C19_22  and  O20_23 
ROOT
HETATM    1  O1          0      21.295  73.251  33.286  1.00  0.00    -0.286 OA
HETATM    2  C2          0      22.259  73.813  32.697  1.00  0.00     0.201 C 
HETATM    3  C3          0      22.878  73.270  31.584  1.00  0.00     0.067 C 
HETATM    4  C4          0      24.003  73.857  31.017  1.00  0.00     0.103 C 
HETATM    5  O13         0      24.474  74.972  31.549  1.00  0.00    -0.307 OA
HETATM    6  C14         0      23.947  75.508  32.627  1.00  0.00     0.107 C 
HETATM    7  C15         0      24.647  76.416  33.409  1.00  0.00     0.049 C 
HETATM    8  C16         0      24.194  76.782  34.671  1.00  0.00     0.093 C 
HETATM    9  C18         0      22.826  76.638  34.868  1.00  0.00     0.048 C 
HETATM   10  C19         0      22.086  75.773  34.072  1.00  0.00     0.096 C 
HETATM   11  C21         0      22.705  75.070  33.075  1.00  0.00     0.084 C 
ENDROOT
BRANCH  10  12
HETATM   12  O20         0      20.858  75.308  34.533  1.00  0.00    -0.359 OA
HETATM   13  H20         0      20.782  74.386  34.743  1.00  0.00     0.218 HD
ENDBRANCH  10  12
BRANCH   4  14
HETATM   14  C5          0      24.923  72.979  30.292  1.00  0.00     0.025 C 
HETATM   15  C6          0      26.251  73.307  30.061  1.00  0.00     0.004 C 
HETATM   16  C7          0      27.191  72.285  30.142  1.00  0.00     0.026 C 
HETATM   17  C8          0      26.813  70.958  30.314  1.00  0.00     0.112 C 
HETATM   18  C10         0      25.519  70.666  29.903  1.00  0.00     0.112 C 
HETATM   19  C12         0      24.577  71.688  29.913  1.00  0.00     0.028 C 
BRANCH  17  20
HETATM   20  O9          0      27.607  70.082  31.031  1.00  0.00    -0.357 OA
HETATM   21  H9          0      28.556  70.069  30.984  1.00  0.00     0.218 HD
ENDBRANCH  17  20
BRANCH  18  22
HETATM   22  O11         0      25.155  69.328  29.875  1.00  0.00    -0.357 OA
HETATM   23  H11         0      24.262  69.119  30.125  1.00  0.00     0.218 HD
ENDBRANCH  18  22
ENDBRANCH   4  14
BRANCH   8  24
HETATM   24  O17         0      25.078  76.951  35.742  1.00  0.00    -0.359 OA
HETATM   25  H17         0      25.384  76.215  36.258  1.00  0.00     0.218 HD
ENDBRANCH   8  24
TORSDOF 5
ENDMDL
MODEL 3
REMARK VINA RESULT:      -0.0      4.186      6.792
REMARK  5 active torsions:
REMARK  status: ('A' for Active; 'I' for Inactive)
REMARK    1  A    between atoms: C4_4  and  C5_5 
REMARK    2  A    between atoms: C8_8  and  O9_9 
REMARK    3  A    between atoms: C10_11  and  O11_12 
REMARK    4  A    between atoms: C16_18  and  O17_19 
REMARK    5  A    between atoms: C19_22  and  O20_23 
ROOT
HETATM    1  O1          0      25.600  72.763  34.064  1.00  0.00    -0.286 OA
HETATM    2  C2          0      25.531  71.708  33.375  1.00  0.00     0.201 C 
HETATM    3  C3          0      24.915  70.554  33.828  1.00  0.00     0.067 C 
HETATM    4  C4          0      24.944  69.375  33.092  1.00  0.00     0.103 C 
HETATM    5  O13         0      25.559  69.372  31.922  1.00  0.00    -0.307 OA
HETATM    6  C14         0      26.192  70.430  31.463  1.00  0.00     0.107 C 
HETATM    7  C15         0      27.153  70.331  30.467  1.00  0.00     0.049 C 
HETATM    8  C16         0      27.992  71.396  30.166  1.00  0.00     0.093 C 
HETATM    9  C18         0      27.492  72.649  30.498  1.00  0.00     0.048 C 
HETATM   10  C19         0      26.497  72.781  31.456  1.00  0.00     0.096 C 
HETATM   11  C21         0      25.992  71.666  32.068  1.00  0.00     0.084 C 
ENDROOT
BRANCH  10  12
HETATM   12  O20         0      26.317  74.008  32.086  1.00  0.00    -0.359 OA
HETATM   13  H20         0      25.642  74.586  31.750  1.00  0.00     0.218 HD
ENDBRANCH  10  12
BRANCH   4  14
HETATM   14  C5          0      24.836  68.119  33.835  1.00  0.00     0.025 C 
HETATM   15  C6          0      25.514  66.966  33.465  1.00  0.00     0.004 C 
HETATM   16  C7          0      26.028  66.167  34.481  1.00  0.00     0.026 C 
HETATM   17  C8          0      25.764  66.430  35.821  1.00  0.00     0.112 C 
HETATM   18  C10         0      24.612  67.171  36.050  1.00  0.00     0.112 C 
HETATM   19  C12         0      24.167  68.026  35.049  1.00  0.00     0.028 C 
BRANCH  17  20
HETATM   20  O9          0      26.702  66.148  36.797  1.00  0.00    -0.357 OA
HETATM   21  H9          0      27.235  65.361  36.806  1.00  0.00     0.218 HD
ENDBRANCH  17  20
BRANCH  18  22
HETATM   22  O11         0      24.200  67.301  37.368  1.00  0.00    -0.357 OA
HETATM   23  H11         0      23.845  66.525  37.786  1.00  0.00     0.218 HD
ENDBRANCH  18  22
ENDBRANCH   4  14
BRANCH   8  24
HETATM   24  O17         0      29.347  71.198  29.875  1.00  0.00    -0.359 OA
HETATM   25  H17         0      29.926  71.924  29.675  1.00  0.00     0.218 HD
ENDBRANCH   8  24
TORSDOF 5
ENDMDL
MODEL 4
REMARK VINA RESULT:      -0.0      3.326      4.282
REMARK  5 active torsions:
REMARK  status: ('A' for Active; 'I' for Inactive)
REMARK    1  A    between atoms: C4_4  and  C5_5 
REMARK    2  A    between atoms: C8_8  and  O9_9 
REMARK    3  A    between atoms: C10_11  and  O11_12 
REMARK    4  A    between atoms: C16_18  and  O17_19 
REMARK    5  A    between atoms: C19_22  and  O20_23 
ROOT
HETATM    1  O1          0      25.052  68.954  36.142  1.00  0.00    -0.286 OA
HETATM    2  C2          0      24.365  68.939  35.084  1.00  0.00     0.201 C 
HETATM    3  C3          0      24.931  68.969  33.821  1.00  0.00     0.067 C 
HETATM    4  C4          0      24.150  69.055  32.674  1.00  0.00     0.103 C 
HETATM    5  O13         0      22.835  69.090  32.803  1.00  0.00    -0.307 OA
HETATM    6  C14         0      22.248  69.102  33.980  1.00  0.00     0.107 C 
HETATM    7  C15         0      20.939  69.534  34.139  1.00  0.00     0.049 C 
HETATM    8  C16         0      20.410  69.787  35.399  1.00  0.00     0.093 C 
HETATM    9  C18         0      21.027  69.105  36.441  1.00  0.00     0.048 C 
HETATM   10  C19         0      22.319  68.618  36.300  1.00  0.00     0.096 C 
HETATM   11  C21         0      22.986  68.797  35.118  1.00  0.00     0.084 C 
ENDROOT
BRANCH  10  12
HETATM   12  O20         0      23.071  68.342  37.437  1.00  0.00    -0.359 OA
HETATM   13  H20         0      24.017  68.366  37.363  1.00  0.00     0.218 HD
ENDBRANCH  10  12
BRANCH   4  14
HETATM   14  C5          0      24.759  69.671  31.494  1.00  0.00     0.025 C 
HETATM   15  C6          0      24.013  70.275  30.492  1.00  0.00     0.004 C 
HETATM   16  C7          0      24.525  71.434  29.917  1.00  0.00     0.026 C 
HETATM   17  C8          0      25.795  71.905  30.231  1.00  0.00     0.112 C 
HETATM   18  C10         0      26.667  70.939  30.717  1.00  0.00     0.112 C 
HETATM   19  C12         0      26.132  69.831  31.363  1.00  0.00     0.028 C 
BRANCH  17  20
HETATM   20  O9          0      26.065  73.262  30.249  1.00  0.00    -0.357 OA
HETATM   21  H9          0      25.425  73.930  30.030  1.00  0.00     0.218 HD
ENDBRANCH  17  20
BRANCH  18  22
HETATM   22  O11         0      27.996  71.310  30.867  1.00  0.00    -0.357 OA
HETATM   23  H11         0      28.643  70.615  30.837  1.00  0.00     0.218 HD
ENDBRANCH  18  22
ENDBRANCH   4  14
BRANCH   8  24
HETATM   24  O17         0      19.569  70.880  35.631  1.00  0.00    -0.359 OA
HETATM   25  H17         0      19.911  71.729  35.885  1.00  0.00     0.218 HD
ENDBRANCH   8  24
TORSDOF 5
ENDMDL
MODEL 5
REMARK VINA RESULT:      -0.0      3.124      3.829
REMARK  5 active torsions:
REMARK  status: ('A' for Active; 'I' for Inactive)
REMARK    1  A    between atoms: C4_4  and  C5_5 
REMARK    2  A    between atoms: C8_8  and  O9_9 
REMARK    3  A    between atoms: C10_11  and  O11_12 
REMARK    4  A    between atoms: C16_18  and  O17_19 
REMARK    5  A    between atoms: C19_22  and  O20_23 
ROOT
HETATM    1  O1          0      25.948  72.467  36.409  1.00  0.00    -0.286 OA
HETATM    2  C2          0      25.307  72.437  35.322  1.00  0.00     0.201 C 
HETATM    3  C3          0      25.556  71.505  34.330  1.00  0.00     0.067 C 
HETATM    4  C4          0      24.908  71.557  33.101  1.00  0.00     0.103 C 
HETATM    5  O13         0      24.019  72.512  32.893  1.00  0.00    -0.307 OA
HETATM    6  C14         0      23.772  73.445  33.787  1.00  0.00     0.107 C 
HETATM    7  C15         0      23.166  74.645  33.444  1.00  0.00     0.049 C 
HETATM    8  C16         0      23.139  75.718  34.327  1.00  0.00     0.093 C 
HETATM    9  C18         0      23.244  75.376  35.670  1.00  0.00     0.048 C 
HETATM   10  C19         0      23.803  74.162  36.047  1.00  0.00     0.096 C 
HETATM   11  C21         0      24.237  73.288  35.088  1.00  0.00     0.084 C 
ENDROOT
BRANCH  10  12
HETATM   12  O20         0      24.298  74.013  37.339  1.00  0.00    -0.359 OA
HETATM   13  H20         0      24.061  74.668  37.984  1.00  0.00     0.218 HD
ENDBRANCH  10  12
BRANCH   4  14
HETATM   14  C5          0      25.605  70.981  31.950  1.00  0.00     0.025 C 
HETATM   15  C6          0      25.504  71.505  30.670  1.00  0.00     0.004 C 
HETATM   16  C7          0      26.651  71.509  29.883  1.00  0.00     0.026 C 
HETATM   17  C8          0      27.825  70.892  30.301  1.00  0.00     0.112 C 
HETATM   18  C10         0      27.649  69.892  31.248  1.00  0.00     0.112 C 
HETATM   19  C12         0      26.537  69.959  32.080  1.00  0.00     0.028 C 
BRANCH  17  20
HETATM   20  O9          0      29.060  71.402  29.943  1.00  0.00    -0.357 OA
HETATM   21  H9          0      29.214  72.317  29.734  1.00  0.00     0.218 HD
ENDBRANCH  17  20
BRANCH  18  22
HETATM   22  O11         0      28.758  69.119  31.560  1.00  0.00    -0.357 OA
HETATM   23  H11         0      29.450  69.079  30.910  1.00  0.00     0.218 HD
ENDBRANCH  18  22
ENDBRANCH   4  14
BRANCH   8  24
HETATM   24  O17         0      23.333  77.031  33.885  1.00  0.00    -0.359 OA
HETATM   25  H17         0      23.935  77.236  33.179  1.00  0.00     0.218 HD
ENDBRANCH   8  24
TORSDOF 5
ENDMDL
MODEL 6
REMARK VINA RESULT:      -0.0      2.974      6.882
REMARK  5 active torsions:
REMARK  status: ('A' for Active; 'I' for Inactive)
REMARK    1  A    between atoms: C4_4  and  C5_5 
REMARK    2  A    between atoms: C8_8  and  O9_9 
REMARK    3  A    between atoms: C10_11  and  O11_12 
REMARK    4  A    between atoms: C16_18  and  O17_19 
REMARK    5  A    between atoms: C19_22  and  O20_23 
ROOT
HETATM    1  O1          0      27.210  72.656  31.989  1.00  0.00    -0.286 OA
HETATM    2  C2          0      26.026  72.226  32.055  1.00  0.00     0.201 C 
HETATM    3  C3          0      25.073  72.779  32.893  1.00  0.00     0.067 C 
HETATM    4  C4          0      23.805  72.222  33.022  1.00  0.00     0.103 C 
HETATM    5  O13         0      23.507  71.151  32.309  1.00  0.00    -0.307 OA
HETATM    6  C14         0      24.387  70.564  31.527  1.00  0.00     0.107 C 
HETATM    7  C15         0      24.227  69.254  31.101  1.00  0.00     0.049 C 
HETATM    8  C16         0      25.267  68.559  30.495  1.00  0.00     0.093 C 
HETATM    9  C18         0      26.223  69.357  29.878  1.00  0.00     0.048 C 
HETATM   10  C19         0      26.379  70.686  30.247  1.00  0.00     0.096 C 
HETATM   11  C21         0      25.573  71.220  31.215  1.00  0.00     0.084 C 
ENDROOT
BRANCH  10  12
HETATM   12  O20         0      27.577  71.335  29.965  1.00  0.00    -0.359 OA
HETATM   13  H20         0      28.227  71.390  30.654  1.00  0.00     0.218 HD
ENDBRANCH  10  12
BRANCH   4  14
HETATM   14  C5          0      23.101  72.446  34.286  1.00  0.00     0.025 C 
HETATM   15  C6          0      22.277  71.493  34.867  1.00  0.00     0.004 C 
HETATM   16  C7          0      22.307  71.373  36.253  1.00  0.00     0.026 C 
HETATM   17  C8          0      23.029  72.259  37.046  1.00  0.00     0.112 C 
HETATM   18  C10         0      23.275  73.494  36.460  1.00  0.00     0.112 C 
HETATM   19  C12         0      23.323  73.569  35.073  1.00  0.00     0.028 C 
BRANCH  17  20
HETATM   20  O9          0      23.619  71.836  38.224  1.00  0.00    -0.357 OA
HETATM   21  H9          0      23.663  72.366  39.012  1.00  0.00     0.218 HD
ENDBRANCH  17  20
BRANCH  18  22
HETATM   22  O11         0      23.822  74.476  37.272  1.00  0.00    -0.357 OA
HETATM   23  H11         0      23.706  75.378  36.995  1.00  0.00     0.218 HD
ENDBRANCH  18  22
ENDBRANCH   4  14
BRANCH   8  24
HETATM   24  O17         0      25.505  67.210  30.777  1.00  0.00    -0.359 OA
HETATM   25  H17         0      25.863  66.619  30.125  1.00  0.00     0.218 HD
ENDBRANCH   8  24
TORSDOF 5
ENDMDL
MODEL 7
REMARK VINA RESULT:      -0.0      3.659      6.354
REMARK  5 active torsions:
REMARK  status: ('A' for Active; 'I' for Inactive)
REMARK    1  A    between atoms: C4_4  and  C5_5 
REMARK    2  A    between atoms: C8_8  and  O9_9 
REMARK    3  A    between atoms: C10_11  and  O11_12 
REMARK    4  A    between atoms: C16_18  and  O17_19 
REMARK    5  A    between atoms: C19_22  and  O20_23 
ROOT
HETATM    1  O1          0      24.630  70.520  34.261  1.00  0.00    -0.286 OA
HETATM    2  C2          0      24.354  70.331  33.045  1.00  0.00     0.201 C 
HETATM    3  C3          0      23.234  69.629  32.630  1.00  0.00     0.067 C 
HETATM    4  C4          0      23.007  69.347  31.288  1.00  0.00     0.103 C 
HETATM    5  O13         0      23.877  69.781  30.392  1.00  0.00    -0.307 OA
HETATM    6  C14         0      24.974  70.418  30.735  1.00  0.00     0.107 C 
HETATM    7  C15         0      26.059  70.519  29.876  1.00  0.00     0.049 C 
HETATM    8  C16         0      27.297  70.964  30.326  1.00  0.00     0.093 C 
HETATM    9  C18         0      27.255  71.771  31.457  1.00  0.00     0.048 C 
HETATM   10  C19         0      26.163  71.729  32.313  1.00  0.00     0.096 C 
HETATM   11  C21         0      25.111  70.900  32.032  1.00  0.00     0.084 C 
ENDROOT
BRANCH  10  12
HETATM   12  O20         0      26.306  72.181  33.621  1.00  0.00    -0.359 OA
HETATM   13  H20         0      26.943  71.746  34.175  1.00  0.00     0.218 HD
ENDBRANCH  10  12
BRANCH   4  14
HETATM   14  C5          0      22.211  68.158  30.979  1.00  0.00     0.025 C 
HETATM   15  C6          0      22.459  67.352  29.877  1.00  0.00     0.004 C 
HETATM   16  C7          0      22.308  65.978  30.037  1.00  0.00     0.026 C 
HETATM   17  C8          0      21.799  65.432  31.210  1.00  0.00     0.112 C 
HETATM   18  C10         0      21.015  66.298  31.960  1.00  0.00     0.112 C 
HETATM   19  C12         0      21.244  67.664  31.845  1.00  0.00     0.028 C 
BRANCH  17  20
HETATM   20  O9          0      22.233  64.199  31.664  1.00  0.00    -0.357 OA
HETATM   21  H9          0      22.816  63.631  31.174  1.00  0.00     0.218 HD
ENDBRANCH  17  20
BRANCH  18  22
HETATM   22  O11         0      20.331  65.752  33.037  1.00  0.00    -0.357 OA
HETATM   23  H11         0      20.749  65.813  33.888  1.00  0.00     0.218 HD
ENDBRANCH  18  22
ENDBRANCH   4  14
BRANCH   8  24
HETATM   24  O17         0      28.488  70.375  29.886  1.00  0.00    -0.359 OA
HETATM   25  H17         0      28.499  69.739  29.181  1.00  0.00     0.218 HD
ENDBRANCH   8  24
TORSDOF 5
ENDMDL
MODEL 8
REMARK VINA RESULT:      -0.0      4.393      6.586
REMARK  5 active torsions:
REMARK  status: ('A' for Active; 'I' for Inactive)
REMARK    1  A    between atoms: C4_4  and  C5_5 
REMARK    2  A    between atoms: C8_8  and  O9_9 
REMARK    3  A    between atoms: C10_11  and  O11_12 
REMARK    4  A    between atoms: C16_18  and  O17_19 
REMARK    5  A    between atoms: C19_22  and  O20_23 
ROOT
HETATM    1  O1          0      24.658  70.602  34.459  1.00  0.00    -0.286 OA
HETATM    2  C2          0      24.807  69.836  33.468  1.00  0.00     0.201 C 
HETATM    3  C3          0      24.573  68.472  33.533  1.00  0.00     0.067 C 
HETATM    4  C4          0      24.843  67.635  32.456  1.00  0.00     0.103 C 
HETATM    5  O13         0      25.315  68.166  31.342  1.00  0.00    -0.307 OA
HETATM    6  C14         0      25.590  69.448  31.240  1.00  0.00     0.107 C 
HETATM    7  C15         0      26.436  69.939  30.256  1.00  0.00     0.049 C 
HETATM    8  C16         0      26.923  71.239  30.306  1.00  0.00     0.093 C 
HETATM    9  C18         0      26.140  72.132  31.027  1.00  0.00     0.048 C 
HETATM   10  C19         0      25.248  71.673  31.987  1.00  0.00     0.096 C 
HETATM   11  C21         0      25.127  70.328  32.213  1.00  0.00     0.084 C 
ENDROOT
BRANCH  10  12
HETATM   12  O20         0      24.809  72.543  32.980  1.00  0.00    -0.359 OA
HETATM   13  H20         0      25.413  72.763  33.678  1.00  0.00     0.218 HD
ENDBRANCH  10  12
BRANCH   4  14
HETATM   14  C5          0      25.153  66.237  32.757  1.00  0.00     0.025 C 
HETATM   15  C6          0      26.075  65.498  32.030  1.00  0.00     0.004 C 
HETATM   16  C7          0      26.886  64.610  32.730  1.00  0.00     0.026 C 
HETATM   17  C8          0      26.698  64.364  34.086  1.00  0.00     0.112 C 
HETATM   18  C10         0      25.418  64.636  34.552  1.00  0.00     0.112 C 
HETATM   19  C12         0      24.661  65.590  33.883  1.00  0.00     0.028 C 
BRANCH  17  20
HETATM   20  O9          0      27.771  64.080  34.910  1.00  0.00    -0.357 OA
HETATM   21  H9          0      27.683  63.789  35.811  1.00  0.00     0.218 HD
ENDBRANCH  17  20
BRANCH  18  22
HETATM   22  O11         0      25.122  64.233  35.846  1.00  0.00    -0.357 OA
HETATM   23  H11         0      24.433  63.586  35.948  1.00  0.00     0.218 HD
ENDBRANCH  18  22
ENDBRANCH   4  14
BRANCH   8  24
HETATM   24  O17         0      28.244  71.537  29.953  1.00  0.00    -0.359 OA
HETATM   25  H17         0      28.692  72.301  30.297  1.00  0.00     0.218 HD
ENDBRANCH   8  24
TORSDOF 5
ENDMDL
MODEL 9
REMARK VINA RESULT:      -0.0      3.698      4.612
REMARK  5 active torsions:
REMARK  status: ('A' for Active; 'I' for Inactive)
REMARK    1  A    between atoms: C4_4  and  C5_5 
REMARK    2  A    between atoms: C8_8  and  O9_9 
REMARK    3  A    between atoms: C10_11  and  O11_12 
REMARK    4  A    between atoms: C16_18  and  O17_19 
REMARK    5  A    between atoms: C19_22  and  O20_23 
ROOT
HETATM    1  O1          0      25.687  69.344  36.612  1.00  0.00    -0.286 OA
HETATM    2  C2          0      24.998  69.047  35.597  1.00  0.00     0.201 C 
HETATM    3  C3          0      25.560  68.611  34.409  1.00  0.00     0.067 C 
HETATM    4  C4          0      24.788  68.390  33.275  1.00  0.00     0.103 C 
HETATM    5  O13         0      23.483  68.583  33.349  1.00  0.00    -0.307 OA
HETATM    6  C14         0      22.903  69.032  34.440  1.00  0.00     0.107 C 
HETATM    7  C15         0      21.641  69.609  34.414  1.00  0.00     0.049 C 
HETATM    8  C16         0      21.143  70.306  35.508  1.00  0.00     0.093 C 
HETATM    9  C18         0      21.695  69.948  36.732  1.00  0.00     0.048 C 
HETATM   10  C19         0      22.935  69.327  36.793  1.00  0.00     0.096 C 
HETATM   11  C21         0      23.612  69.049  35.636  1.00  0.00     0.084 C 
ENDROOT
BRANCH  10  12
HETATM   12  O20         0      23.660  69.370  37.979  1.00  0.00    -0.359 OA
HETATM   13  H20         0      24.604  69.282  37.927  1.00  0.00     0.218 HD
ENDBRANCH  10  12
BRANCH   4  14
HETATM   14  C5          0      25.449  68.529  31.976  1.00  0.00     0.025 C 
HETATM   15  C6          0      24.827  69.095  30.873  1.00  0.00     0.004 C 
HETATM   16  C7          0      25.598  69.899  30.040  1.00  0.00     0.026 C 
HETATM   17  C8          0      26.971  70.030  30.220  1.00  0.00     0.112 C 
HETATM   18  C10         0      27.569  68.979  30.902  1.00  0.00     0.112 C 
HETATM   19  C12         0      26.796  68.244  31.792  1.00  0.00     0.028 C 
BRANCH  17  20
HETATM   20  O9          0      27.615  71.218  29.921  1.00  0.00    -0.357 OA
HETATM   21  H9          0      27.163  72.040  29.772  1.00  0.00     0.218 HD
ENDBRANCH  17  20
BRANCH  18  22
HETATM   22  O11         0      28.956  68.965  30.943  1.00  0.00    -0.357 OA
HETATM   23  H11         0      29.387  68.164  30.669  1.00  0.00     0.218 HD
ENDBRANCH  18  22
ENDBRANCH   4  14
BRANCH   8  24
HETATM   24  O17         0      20.409  71.486  35.348  1.00  0.00    -0.359 OA
HETATM   25  H17         0      19.460  71.485  35.325  1.00  0.00     0.218 HD
ENDBRANCH   8  24
TORSDOF 5
ENDMDL
