MODEL 1
REMARK VINA RESULT:      -0.6      0.000      0.000
REMARK  5 active torsions:
REMARK  status: ('A' for Active; 'I' for Inactive)
REMARK    1  A    between atoms: C4_4  and  C5_5 
REMARK    2  A    between atoms: C8_8  and  O9_9 
REMARK    3  A    between atoms: C10_11  and  O11_12 
REMARK    4  A    between atoms: C16_18  and  O17_19 
REMARK    5  A    between atoms: C19_22  and  O20_23 
ROOT
HETATM    1  O1          0      60.444  65.712 -30.613  1.00  0.00    -0.286 OA
HETATM    2  C2          0      60.294  66.940 -30.858  1.00  0.00     0.201 C 
HETATM    3  C3          0      60.122  67.435 -32.139  1.00  0.00     0.067 C 
HETATM    4  C4          0      60.062  68.801 -32.391  1.00  0.00     0.103 C 
HETATM    5  O13         0      60.150  69.638 -31.373  1.00  0.00    -0.307 OA
HETATM    6  C14         0      60.350  69.223 -30.142  1.00  0.00     0.107 C 
HETATM    7  C15         0      60.835  70.069 -29.155  1.00  0.00     0.049 C 
HETATM    8  C16         0      61.284  69.574 -27.936  1.00  0.00     0.093 C 
HETATM    9  C18         0      60.746  68.348 -27.567  1.00  0.00     0.048 C 
HETATM   10  C19         0      60.209  67.496 -28.524  1.00  0.00     0.096 C 
HETATM   11  C21         0      60.195  67.875 -29.838  1.00  0.00     0.084 C 
ENDROOT
BRANCH  10  12
HETATM   12  O20         0      60.082  66.141 -28.234  1.00  0.00    -0.359 OA
HETATM   13  H20         0      59.667  65.898 -27.415  1.00  0.00     0.218 HD
ENDBRANCH  10  12
BRANCH   4  14
HETATM   14  C5          0      60.482  69.257 -33.718  1.00  0.00     0.025 C 
HETATM   15  C6          0      61.605  70.046 -33.921  1.00  0.00     0.004 C 
HETATM   16  C7          0      62.377  69.789 -35.049  1.00  0.00     0.026 C 
HETATM   17  C8          0      61.977  68.870 -36.014  1.00  0.00     0.112 C 
HETATM   18  C10         0      60.611  68.626 -36.050  1.00  0.00     0.112 C 
HETATM   19  C12         0      59.876  68.810 -34.885  1.00  0.00     0.028 C 
BRANCH  17  20
HETATM   20  O9          0      62.910  68.125 -36.713  1.00  0.00    -0.357 OA
HETATM   21  H9          0      62.798  67.854 -37.617  1.00  0.00     0.218 HD
ENDBRANCH  17  20
BRANCH  18  22
HETATM   22  O11         0      60.136  67.868 -37.110  1.00  0.00    -0.357 OA
HETATM   23  H11         0      59.737  68.340 -37.833  1.00  0.00     0.218 HD
ENDBRANCH  18  22
ENDBRANCH   4  14
BRANCH   8  24
HETATM   24  O17         0      62.422  70.097 -27.311  1.00  0.00    -0.359 OA
HETATM   25  H17         0      63.097  70.550 -27.802  1.00  0.00     0.218 HD
ENDBRANCH   8  24
TORSDOF 5
ENDMDL
MODEL 2
REMARK VINA RESULT:      -0.6      2.405      7.124
REMARK  5 active torsions:
REMARK  status: ('A' for Active; 'I' for Inactive)
REMARK    1  A    between atoms: C4_4  and  C5_5 
REMARK    2  A    between atoms: C8_8  and  O9_9 
REMARK    3  A    between atoms: C10_11  and  O11_12 
REMARK    4  A    between atoms: C16_18  and  O17_19 
REMARK    5  A    between atoms: C19_22  and  O20_23 
ROOT
HETATM    1  O1          0      64.419  68.190 -31.183  1.00  0.00    -0.286 OA
HETATM    2  C2          0      63.327  68.704 -30.816  1.00  0.00     0.201 C 
HETATM    3  C3          0      62.820  68.554 -29.536  1.00  0.00     0.067 C 
HETATM    4  C4          0      61.567  69.044 -29.187  1.00  0.00     0.103 C 
HETATM    5  O13         0      60.858  69.684 -30.100  1.00  0.00    -0.307 OA
HETATM    6  C14         0      61.276  69.821 -31.339  1.00  0.00     0.107 C 
HETATM    7  C15         0      60.403  70.119 -32.376  1.00  0.00     0.049 C 
HETATM    8  C16         0      60.797  70.012 -33.704  1.00  0.00     0.093 C 
HETATM    9  C18         0      62.165  70.124 -33.921  1.00  0.00     0.048 C 
HETATM   10  C19         0      63.065  69.878 -32.893  1.00  0.00     0.096 C 
HETATM   11  C21         0      62.601  69.539 -31.652  1.00  0.00     0.084 C 
ENDROOT
BRANCH  10  12
HETATM   12  O20         0      64.385  69.565 -33.205  1.00  0.00    -0.359 OA
HETATM   13  H20         0      65.021  70.269 -33.205  1.00  0.00     0.218 HD
ENDBRANCH  10  12
BRANCH   4  14
HETATM   14  C5          0      60.863  68.366 -28.096  1.00  0.00     0.025 C 
HETATM   15  C6          0      60.517  67.024 -28.144  1.00  0.00     0.004 C 
HETATM   16  C7          0      60.626  66.288 -26.969  1.00  0.00     0.026 C 
HETATM   17  C8          0      60.940  66.892 -25.756  1.00  0.00     0.112 C 
HETATM   18  C10         0      60.644  68.247 -25.689  1.00  0.00     0.112 C 
HETATM   19  C12         0      60.625  68.977 -26.871  1.00  0.00     0.028 C 
BRANCH  17  20
HETATM   20  O9          0      61.679  66.219 -24.799  1.00  0.00    -0.357 OA
HETATM   21  H9          0      62.119  65.391 -24.957  1.00  0.00     0.218 HD
ENDBRANCH  17  20
BRANCH  18  22
HETATM   22  O11         0      60.760  68.855 -24.447  1.00  0.00    -0.357 OA
HETATM   23  H11         0      60.381  69.722 -24.356  1.00  0.00     0.218 HD
ENDBRANCH  18  22
ENDBRANCH   4  14
BRANCH   8  24
HETATM   24  O17         0      59.937  69.499 -34.681  1.00  0.00    -0.359 OA
HETATM   25  H17         0      59.085  69.142 -34.458  1.00  0.00     0.218 HD
ENDBRANCH   8  24
TORSDOF 5
ENDMDL
MODEL 3
REMARK VINA RESULT:      -0.6      1.831      2.658
REMARK  5 active torsions:
REMARK  status: ('A' for Active; 'I' for Inactive)
REMARK    1  A    between atoms: C4_4  and  C5_5 
REMARK    2  A    between atoms: C8_8  and  O9_9 
REMARK    3  A    between atoms: C10_11  and  O11_12 
REMARK    4  A    between atoms: C16_18  and  O17_19 
REMARK    5  A    between atoms: C19_22  and  O20_23 
ROOT
HETATM    1  O1          0      60.635  65.052 -28.788  1.00  0.00    -0.286 OA
HETATM    2  C2          0      60.491  66.304 -28.733  1.00  0.00     0.201 C 
HETATM    3  C3          0      60.247  67.081 -29.853  1.00  0.00     0.067 C 
HETATM    4  C4          0      60.194  68.468 -29.779  1.00  0.00     0.103 C 
HETATM    5  O13         0      60.362  69.048 -28.604  1.00  0.00    -0.307 OA
HETATM    6  C14         0      60.634  68.360 -27.517  1.00  0.00     0.107 C 
HETATM    7  C15         0      61.196  68.955 -26.397  1.00  0.00     0.049 C 
HETATM    8  C16         0      61.712  68.191 -25.357  1.00  0.00     0.093 C 
HETATM    9  C18         0      61.177  66.914 -25.245  1.00  0.00     0.048 C 
HETATM   10  C19         0      60.565  66.307 -26.333  1.00  0.00     0.096 C 
HETATM   11  C21         0      60.474  66.979 -27.522  1.00  0.00     0.084 C 
ENDROOT
BRANCH  10  12
HETATM   12  O20         0      60.433  64.922 -26.355  1.00  0.00    -0.359 OA
HETATM   13  H20         0      60.068  64.498 -25.588  1.00  0.00     0.218 HD
ENDBRANCH  10  12
BRANCH   4  14
HETATM   14  C5          0      60.537  69.216 -30.990  1.00  0.00     0.025 C 
HETATM   15  C6          0      61.609  70.094 -31.054  1.00  0.00     0.004 C 
HETATM   16  C7          0      62.348  70.125 -32.233  1.00  0.00     0.026 C 
HETATM   17  C8          0      61.955  69.409 -33.358  1.00  0.00     0.112 C 
HETATM   18  C10         0      60.603  69.099 -33.406  1.00  0.00     0.112 C 
HETATM   19  C12         0      59.907  68.991 -32.208  1.00  0.00     0.028 C 
BRANCH  17  20
HETATM   20  O9          0      62.895  68.882 -34.227  1.00  0.00    -0.357 OA
HETATM   21  H9          0      62.761  68.802 -35.164  1.00  0.00     0.218 HD
ENDBRANCH  17  20
BRANCH  18  22
HETATM   22  O11         0      60.124  68.554 -34.589  1.00  0.00    -0.357 OA
HETATM   23  H11         0      59.564  69.107 -35.122  1.00  0.00     0.218 HD
ENDBRANCH  18  22
ENDBRANCH   4  14
BRANCH   8  24
HETATM   24  O17         0      62.897  68.553 -24.706  1.00  0.00    -0.359 OA
HETATM   25  H17         0      63.547  69.106 -25.122  1.00  0.00     0.218 HD
ENDBRANCH   8  24
TORSDOF 5
ENDMDL
MODEL 4
REMARK VINA RESULT:      -0.6      3.284      6.424
REMARK  5 active torsions:
REMARK  status: ('A' for Active; 'I' for Inactive)
REMARK    1  A    between atoms: C4_4  and  C5_5 
REMARK    2  A    between atoms: C8_8  and  O9_9 
REMARK    3  A    between atoms: C10_11  and  O11_12 
REMARK    4  A    between atoms: C16_18  and  O17_19 
REMARK    5  A    between atoms: C19_22  and  O20_23 
ROOT
HETATM    1  O1          0      61.426  68.041 -26.157  1.00  0.00    -0.286 OA
HETATM    2  C2          0      60.954  67.403 -27.138  1.00  0.00     0.201 C 
HETATM    3  C3          0      60.997  66.022 -27.226  1.00  0.00     0.067 C 
HETATM    4  C4          0      60.564  65.350 -28.363  1.00  0.00     0.103 C 
HETATM    5  O13         0      60.081  66.055 -29.371  1.00  0.00    -0.307 OA
HETATM    6  C14         0      60.052  67.369 -29.354  1.00  0.00     0.107 C 
HETATM    7  C15         0      59.933  68.112 -30.520  1.00  0.00     0.049 C 
HETATM    8  C16         0      60.158  69.484 -30.527  1.00  0.00     0.093 C 
HETATM    9  C18         0      59.973  70.115 -29.303  1.00  0.00     0.048 C 
HETATM   10  C19         0      60.038  69.393 -28.120  1.00  0.00     0.096 C 
HETATM   11  C21         0      60.270  68.045 -28.159  1.00  0.00     0.084 C 
ENDROOT
BRANCH  10  12
HETATM   12  O20         0      60.289  70.064 -26.927  1.00  0.00    -0.359 OA
HETATM   13  H20         0      59.754  70.821 -26.721  1.00  0.00     0.218 HD
ENDBRANCH  10  12
BRANCH   4  14
HETATM   14  C5          0      61.165  64.044 -28.640  1.00  0.00     0.025 C 
HETATM   15  C6          0      61.106  63.438 -29.886  1.00  0.00     0.004 C 
HETATM   16  C7          0      62.231  62.743 -30.319  1.00  0.00     0.026 C 
HETATM   17  C8          0      63.328  62.542 -29.489  1.00  0.00     0.112 C 
HETATM   18  C10         0      63.048  62.613 -28.131  1.00  0.00     0.112 C 
HETATM   19  C12         0      61.968  63.384 -27.718  1.00  0.00     0.028 C 
BRANCH  17  20
HETATM   20  O9          0      64.610  62.492 -30.008  1.00  0.00    -0.357 OA
HETATM   21  H9          0      64.845  62.824 -30.867  1.00  0.00     0.218 HD
ENDBRANCH  17  20
BRANCH  18  22
HETATM   22  O11         0      64.061  62.235 -27.260  1.00  0.00    -0.357 OA
HETATM   23  H11         0      63.834  61.609 -26.583  1.00  0.00     0.218 HD
ENDBRANCH  18  22
ENDBRANCH   4  14
BRANCH   8  24
HETATM   24  O17         0      60.836  70.106 -31.581  1.00  0.00    -0.359 OA
HETATM   25  H17         0      61.132  71.007 -31.522  1.00  0.00     0.218 HD
ENDBRANCH   8  24
TORSDOF 5
ENDMDL
MODEL 5
REMARK VINA RESULT:      -0.5      3.689      5.685
REMARK  5 active torsions:
REMARK  status: ('A' for Active; 'I' for Inactive)
REMARK    1  A    between atoms: C4_4  and  C5_5 
REMARK    2  A    between atoms: C8_8  and  O9_9 
REMARK    3  A    between atoms: C10_11  and  O11_12 
REMARK    4  A    between atoms: C16_18  and  O17_19 
REMARK    5  A    between atoms: C19_22  and  O20_23 
ROOT
HETATM    1  O1          0      62.874  64.391 -26.636  1.00  0.00    -0.286 OA
HETATM    2  C2          0      61.991  65.288 -26.556  1.00  0.00     0.201 C 
HETATM    3  C3          0      61.819  66.262 -27.525  1.00  0.00     0.067 C 
HETATM    4  C4          0      60.907  67.298 -27.362  1.00  0.00     0.103 C 
HETATM    5  O13         0      60.177  67.335 -26.262  1.00  0.00    -0.307 OA
HETATM    6  C14         0      60.326  66.457 -25.295  1.00  0.00     0.107 C 
HETATM    7  C15         0      59.875  66.705 -24.006  1.00  0.00     0.049 C 
HETATM    8  C16         0      60.256  65.898 -22.940  1.00  0.00     0.093 C 
HETATM    9  C18         0      60.627  64.605 -23.287  1.00  0.00     0.048 C 
HETATM   10  C19         0      61.039  64.311 -24.580  1.00  0.00     0.096 C 
HETATM   11  C21         0      61.063  65.300 -25.525  1.00  0.00     0.084 C 
ENDROOT
BRANCH  10  12
HETATM   12  O20         0      61.803  63.171 -24.808  1.00  0.00    -0.359 OA
HETATM   13  H20         0      61.617  62.659 -25.586  1.00  0.00     0.218 HD
ENDBRANCH  10  12
BRANCH   4  14
HETATM   14  C5          0      61.187  68.552 -28.065  1.00  0.00     0.025 C 
HETATM   15  C6          0      62.424  69.179 -28.020  1.00  0.00     0.004 C 
HETATM   16  C7          0      62.883  69.782 -29.187  1.00  0.00     0.026 C 
HETATM   17  C8          0      62.085  69.878 -30.322  1.00  0.00     0.112 C 
HETATM   18  C10         0      60.719  69.811 -30.077  1.00  0.00     0.112 C 
HETATM   19  C12         0      60.283  69.128 -28.948  1.00  0.00     0.028 C 
BRANCH  17  20
HETATM   20  O9          0      62.642  69.826 -31.587  1.00  0.00    -0.357 OA
HETATM   21  H9          0      62.431  69.159 -32.230  1.00  0.00     0.218 HD
ENDBRANCH  17  20
BRANCH  18  22
HETATM   22  O11         0      59.876  70.088 -31.144  1.00  0.00    -0.357 OA
HETATM   23  H11         0      59.279  69.399 -31.411  1.00  0.00     0.218 HD
ENDBRANCH  18  22
ENDBRANCH   4  14
BRANCH   8  24
HETATM   24  O17         0      60.562  66.442 -21.688  1.00  0.00    -0.359 OA
HETATM   25  H17         0      60.903  67.323 -21.596  1.00  0.00     0.218 HD
ENDBRANCH   8  24
TORSDOF 5
ENDMDL
MODEL 6
REMARK VINA RESULT:      -0.5      2.756      6.666
REMARK  5 active torsions:
REMARK  status: ('A' for Active; 'I' for Inactive)
REMARK    1  A    between atoms: C4_4  and  C5_5 
REMARK    2  A    between atoms: C8_8  and  O9_9 
REMARK    3  A    between atoms: C10_11  and  O11_12 
REMARK    4  A    between atoms: C16_18  and  O17_19 
REMARK    5  A    between atoms: C19_22  and  O20_23 
ROOT
HETATM    1  O1          0      65.496  67.196 -33.755  1.00  0.00    -0.286 OA
HETATM    2  C2          0      64.310  67.624 -33.761  1.00  0.00     0.201 C 
HETATM    3  C3          0      63.903  68.718 -33.016  1.00  0.00     0.067 C 
HETATM    4  C4          0      62.569  69.107 -32.961  1.00  0.00     0.103 C 
HETATM    5  O13         0      61.679  68.421 -33.656  1.00  0.00    -0.307 OA
HETATM    6  C14         0      62.006  67.352 -34.349  1.00  0.00     0.107 C 
HETATM    7  C15         0      61.059  66.416 -34.739  1.00  0.00     0.049 C 
HETATM    8  C16         0      61.434  65.176 -35.241  1.00  0.00     0.093 C 
HETATM    9  C18         0      62.700  65.133 -35.814  1.00  0.00     0.048 C 
HETATM   10  C19         0      63.657  66.082 -35.482  1.00  0.00     0.096 C 
HETATM   11  C21         0      63.347  67.078 -34.596  1.00  0.00     0.084 C 
ENDROOT
BRANCH  10  12
HETATM   12  O20         0      65.001  65.797 -35.698  1.00  0.00    -0.359 OA
HETATM   13  H20         0      65.229  65.273 -36.456  1.00  0.00     0.218 HD
ENDBRANCH  10  12
BRANCH   4  14
HETATM   14  C5          0      62.129  69.821 -31.761  1.00  0.00     0.025 C 
HETATM   15  C6          0      60.797  70.118 -31.509  1.00  0.00     0.004 C 
HETATM   16  C7          0      60.353  70.020 -30.195  1.00  0.00     0.026 C 
HETATM   17  C8          0      61.229  69.768 -29.145  1.00  0.00     0.112 C 
HETATM   18  C10         0      62.550  70.114 -29.397  1.00  0.00     0.112 C 
HETATM   19  C12         0      62.991  70.121 -30.715  1.00  0.00     0.028 C 
BRANCH  17  20
HETATM   20  O9          0      60.824  69.037 -28.043  1.00  0.00    -0.357 OA
HETATM   21  H9          0      61.153  69.181 -27.163  1.00  0.00     0.218 HD
ENDBRANCH  17  20
BRANCH  18  22
HETATM   22  O11         0      63.429  70.060 -28.325  1.00  0.00    -0.357 OA
HETATM   23  H11         0      64.356  70.017 -28.530  1.00  0.00     0.218 HD
ENDBRANCH  18  22
ENDBRANCH   4  14
BRANCH   8  24
HETATM   24  O17         0      60.744  64.009 -34.894  1.00  0.00    -0.359 OA
HETATM   25  H17         0      60.340  63.903 -34.041  1.00  0.00     0.218 HD
ENDBRANCH   8  24
TORSDOF 5
ENDMDL
MODEL 7
REMARK VINA RESULT:      -0.5      3.585      5.390
REMARK  5 active torsions:
REMARK  status: ('A' for Active; 'I' for Inactive)
REMARK    1  A    between atoms: C4_4  and  C5_5 
REMARK    2  A    between atoms: C8_8  and  O9_9 
REMARK    3  A    between atoms: C10_11  and  O11_12 
REMARK    4  A    between atoms: C16_18  and  O17_19 
REMARK    5  A    between atoms: C19_22  and  O20_23 
ROOT
HETATM    1  O1          0      64.869  64.942 -28.667  1.00  0.00    -0.286 OA
HETATM    2  C2          0      64.167  65.853 -28.148  1.00  0.00     0.201 C 
HETATM    3  C3          0      62.836  66.052 -28.472  1.00  0.00     0.067 C 
HETATM    4  C4          0      62.114  67.126 -27.963  1.00  0.00     0.103 C 
HETATM    5  O13         0      62.717  67.959 -27.134  1.00  0.00    -0.307 OA
HETATM    6  C14         0      63.989  67.838 -26.822  1.00  0.00     0.107 C 
HETATM    7  C15         0      64.717  68.895 -26.297  1.00  0.00     0.049 C 
HETATM    8  C16         0      66.103  68.844 -26.209  1.00  0.00     0.093 C 
HETATM    9  C18         0      66.641  67.564 -26.157  1.00  0.00     0.048 C 
HETATM   10  C19         0      65.920  66.476 -26.631  1.00  0.00     0.096 C 
HETATM   11  C21         0      64.663  66.663 -27.138  1.00  0.00     0.084 C 
ENDROOT
BRANCH  10  12
HETATM   12  O20         0      66.597  65.311 -26.978  1.00  0.00    -0.359 OA
HETATM   13  H20         0      66.998  65.268 -27.837  1.00  0.00     0.218 HD
ENDBRANCH  10  12
BRANCH   4  14
HETATM   14  C5          0      60.990  67.616 -28.762  1.00  0.00     0.025 C 
HETATM   15  C6          0      60.311  68.789 -28.464  1.00  0.00     0.004 C 
HETATM   16  C7          0      59.900  69.584 -29.530  1.00  0.00     0.026 C 
HETATM   17  C8          0      60.037  69.164 -30.848  1.00  0.00     0.112 C 
HETATM   18  C10         0      60.120  67.788 -31.013  1.00  0.00     0.112 C 
HETATM   19  C12         0      60.615  67.025 -29.962  1.00  0.00     0.028 C 
BRANCH  17  20
HETATM   20  O9          0      60.283  70.075 -31.860  1.00  0.00    -0.357 OA
HETATM   21  H9          0      60.547  70.975 -31.708  1.00  0.00     0.218 HD
ENDBRANCH  17  20
BRANCH  18  22
HETATM   22  O11         0      60.068  67.306 -32.313  1.00  0.00    -0.357 OA
HETATM   23  H11         0      60.557  66.512 -32.498  1.00  0.00     0.218 HD
ENDBRANCH  18  22
ENDBRANCH   4  14
BRANCH   8  24
HETATM   24  O17         0      66.893  69.963 -26.493  1.00  0.00    -0.359 OA
HETATM   25  H17         0      66.973  70.686 -25.882  1.00  0.00     0.218 HD
ENDBRANCH   8  24
TORSDOF 5
ENDMDL
MODEL 8
REMARK VINA RESULT:      -0.5      3.075      7.228
REMARK  5 active torsions:
REMARK  status: ('A' for Active; 'I' for Inactive)
REMARK    1  A    between atoms: C4_4  and  C5_5 
REMARK    2  A    between atoms: C8_8  and  O9_9 
REMARK    3  A    between atoms: C10_11  and  O11_12 
REMARK    4  A    between atoms: C16_18  and  O17_19 
REMARK    5  A    between atoms: C19_22  and  O20_23 
ROOT
HETATM    1  O1          0      66.497  68.133 -30.599  1.00  0.00    -0.286 OA
HETATM    2  C2          0      65.451  68.794 -30.844  1.00  0.00     0.201 C 
HETATM    3  C3          0      64.688  69.386 -29.852  1.00  0.00     0.067 C 
HETATM    4  C4          0      63.485  70.021 -30.140  1.00  0.00     0.103 C 
HETATM    5  O13         0      63.079  70.073 -31.397  1.00  0.00    -0.307 OA
HETATM    6  C14         0      63.747  69.495 -32.371  1.00  0.00     0.107 C 
HETATM    7  C15         0      63.152  69.198 -33.589  1.00  0.00     0.049 C 
HETATM    8  C16         0      63.775  68.368 -34.513  1.00  0.00     0.093 C 
HETATM    9  C18         0      65.159  68.305 -34.406  1.00  0.00     0.048 C 
HETATM   10  C19         0      65.791  68.640 -33.216  1.00  0.00     0.096 C 
HETATM   11  C21         0      65.046  69.052 -32.145  1.00  0.00     0.084 C 
ENDROOT
BRANCH  10  12
HETATM   12  O20         0      67.078  68.171 -32.973  1.00  0.00    -0.359 OA
HETATM   13  H20         0      67.389  67.437 -33.489  1.00  0.00     0.218 HD
ENDBRANCH  10  12
BRANCH   4  14
HETATM   14  C5          0      62.483  70.074 -29.074  1.00  0.00     0.025 C 
HETATM   15  C6          0      61.124  69.926 -29.310  1.00  0.00     0.004 C 
HETATM   16  C7          0      60.381  69.212 -28.375  1.00  0.00     0.026 C 
HETATM   17  C8          0      60.940  68.775 -27.179  1.00  0.00     0.112 C 
HETATM   18  C10         0      62.055  69.491 -26.764  1.00  0.00     0.112 C 
HETATM   19  C12         0      62.829  70.125 -27.729  1.00  0.00     0.028 C 
BRANCH  17  20
HETATM   20  O9          0      60.525  67.593 -26.592  1.00  0.00    -0.357 OA
HETATM   21  H9          0      60.639  67.393 -25.670  1.00  0.00     0.218 HD
ENDBRANCH  17  20
BRANCH  18  22
HETATM   22  O11         0      62.537  69.222 -25.491  1.00  0.00    -0.357 OA
HETATM   23  H11         0      63.289  68.644 -25.429  1.00  0.00     0.218 HD
ENDBRANCH  18  22
ENDBRANCH   4  14
BRANCH   8  24
HETATM   24  O17         0      63.051  67.427 -35.253  1.00  0.00    -0.359 OA
HETATM   25  H17         0      63.143  66.494 -35.100  1.00  0.00     0.218 HD
ENDBRANCH   8  24
TORSDOF 5
ENDMDL
MODEL 9
REMARK VINA RESULT:      -0.5      4.117      5.286
REMARK  5 active torsions:
REMARK  status: ('A' for Active; 'I' for Inactive)
REMARK    1  A    between atoms: C4_4  and  C5_5 
REMARK    2  A    between atoms: C8_8  and  O9_9 
REMARK    3  A    between atoms: C10_11  and  O11_12 
REMARK    4  A    between atoms: C16_18  and  O17_19 
REMARK    5  A    between atoms: C19_22  and  O20_23 
ROOT
HETATM    1  O1          0      61.036  68.906 -29.979  1.00  0.00    -0.286 OA
HETATM    2  C2          0      62.136  69.338 -29.536  1.00  0.00     0.201 C 
HETATM    3  C3          0      63.295  69.357 -30.293  1.00  0.00     0.067 C 
HETATM    4  C4          0      64.515  69.742 -29.748  1.00  0.00     0.103 C 
HETATM    5  O13         0      64.555  70.115 -28.481  1.00  0.00    -0.307 OA
HETATM    6  C14         0      63.491  70.079 -27.708  1.00  0.00     0.107 C 
HETATM    7  C15         0      63.594  70.076 -26.325  1.00  0.00     0.049 C 
HETATM    8  C16         0      62.499  69.783 -25.521  1.00  0.00     0.093 C 
HETATM    9  C18         0      61.261  70.024 -26.105  1.00  0.00     0.048 C 
HETATM   10  C19         0      61.131  70.080 -27.486  1.00  0.00     0.096 C 
HETATM   11  C21         0      62.234  69.913 -28.278  1.00  0.00     0.084 C 
ENDROOT
BRANCH  10  12
HETATM   12  O20         0      59.879  69.882 -28.060  1.00  0.00    -0.359 OA
HETATM   13  H20         0      59.793  70.015 -28.996  1.00  0.00     0.218 HD
ENDBRANCH  10  12
BRANCH   4  14
HETATM   14  C5          0      65.725  69.188 -30.359  1.00  0.00     0.025 C 
HETATM   15  C6          0      66.851  68.850 -29.622  1.00  0.00     0.004 C 
HETATM   16  C7          0      67.546  67.704 -29.997  1.00  0.00     0.026 C 
HETATM   17  C8          0      67.214  66.993 -31.145  1.00  0.00     0.112 C 
HETATM   18  C10         0      66.539  67.729 -32.109  1.00  0.00     0.112 C 
HETATM   19  C12         0      65.782  68.820 -31.697  1.00  0.00     0.028 C 
BRANCH  17  20
HETATM   20  O9          0      67.369  65.619 -31.197  1.00  0.00    -0.357 OA
HETATM   21  H9          0      68.195  65.187 -31.380  1.00  0.00     0.218 HD
ENDBRANCH  17  20
BRANCH  18  22
HETATM   22  O11         0      66.351  67.125 -33.344  1.00  0.00    -0.357 OA
HETATM   23  H11         0      65.948  66.265 -33.345  1.00  0.00     0.218 HD
ENDBRANCH  18  22
ENDBRANCH   4  14
BRANCH   8  24
HETATM   24  O17         0      62.629  69.001 -24.368  1.00  0.00    -0.359 OA
HETATM   25  H17         0      62.475  68.064 -24.381  1.00  0.00     0.218 HD
ENDBRANCH   8  24
TORSDOF 5
ENDMDL
