MODEL 1
REMARK VINA RESULT:      -6.4      0.000      0.000
REMARK  5 active torsions:
REMARK  status: ('A' for Active; 'I' for Inactive)
REMARK    1  A    between atoms: C4_4  and  C5_5 
REMARK    2  A    between atoms: C8_8  and  O9_9 
REMARK    3  A    between atoms: C10_11  and  O11_12 
REMARK    4  A    between atoms: C16_18  and  O17_19 
REMARK    5  A    between atoms: C19_22  and  O20_23 
ROOT
HETATM    1  O1          0      19.377  81.868 -26.069  1.00  0.00    -0.286 OA
HETATM    2  C2          0      19.147  83.051 -26.441  1.00  0.00     0.201 C 
HETATM    3  C3          0      19.639  83.575 -27.625  1.00  0.00     0.067 C 
HETATM    4  C4          0      19.457  84.911 -27.961  1.00  0.00     0.103 C 
HETATM    5  O13         0      18.779  85.687 -27.134  1.00  0.00    -0.307 OA
HETATM    6  C14         0      18.323  85.250 -25.981  1.00  0.00     0.107 C 
HETATM    7  C15         0      17.977  86.118 -24.955  1.00  0.00     0.049 C 
HETATM    8  C16         0      17.742  85.655 -23.666  1.00  0.00     0.093 C 
HETATM    9  C18         0      17.352  84.324 -23.583  1.00  0.00     0.048 C 
HETATM   10  C19         0      17.640  83.438 -24.613  1.00  0.00     0.096 C 
HETATM   11  C21         0      18.299  83.883 -25.726  1.00  0.00     0.084 C 
ENDROOT
BRANCH  10  12
HETATM   12  O20         0      17.649  82.071 -24.352  1.00  0.00    -0.359 OA
HETATM   13  H20         0      18.488  81.651 -24.208  1.00  0.00     0.218 HD
ENDBRANCH  10  12
BRANCH   4  14
HETATM   14  C5          0      20.454  85.522 -28.843  1.00  0.00     0.025 C 
HETATM   15  C6          0      21.468  84.794 -29.449  1.00  0.00     0.004 C 
HETATM   16  C7          0      21.815  85.135 -30.752  1.00  0.00     0.026 C 
HETATM   17  C8          0      21.269  86.246 -31.386  1.00  0.00     0.112 C 
HETATM   18  C10         0      20.791  87.226 -30.527  1.00  0.00     0.112 C 
HETATM   19  C12         0      20.370  86.844 -29.258  1.00  0.00     0.028 C 
BRANCH  17  20
HETATM   20  O9          0      21.045  86.245 -32.751  1.00  0.00    -0.357 OA
HETATM   21  H9          0      20.182  86.301 -33.144  1.00  0.00     0.218 HD
ENDBRANCH  17  20
BRANCH  18  22
HETATM   22  O11         0      20.410  88.432 -31.098  1.00  0.00    -0.357 OA
HETATM   23  H11         0      19.492  88.669 -31.032  1.00  0.00     0.218 HD
ENDBRANCH  18  22
ENDBRANCH   4  14
BRANCH   8  24
HETATM   24  O17         0      18.189  86.362 -22.545  1.00  0.00    -0.359 OA
HETATM   25  H17         0      18.429  85.920 -21.739  1.00  0.00     0.218 HD
ENDBRANCH   8  24
TORSDOF 5
ENDMDL
MODEL 2
REMARK VINA RESULT:      -6.2      1.423      2.942
REMARK  5 active torsions:
REMARK  status: ('A' for Active; 'I' for Inactive)
REMARK    1  A    between atoms: C4_4  and  C5_5 
REMARK    2  A    between atoms: C8_8  and  O9_9 
REMARK    3  A    between atoms: C10_11  and  O11_12 
REMARK    4  A    between atoms: C16_18  and  O17_19 
REMARK    5  A    between atoms: C19_22  and  O20_23 
ROOT
HETATM    1  O1          0      19.062  87.515 -24.795  1.00  0.00    -0.286 OA
HETATM    2  C2          0      19.353  86.536 -25.536  1.00  0.00     0.201 C 
HETATM    3  C3          0      20.017  86.679 -26.743  1.00  0.00     0.067 C 
HETATM    4  C4          0      20.234  85.597 -27.588  1.00  0.00     0.103 C 
HETATM    5  O13         0      19.809  84.403 -27.213  1.00  0.00    -0.307 OA
HETATM    6  C14         0      19.140  84.219 -26.095  1.00  0.00     0.107 C 
HETATM    7  C15         0      18.361  83.090 -25.888  1.00  0.00     0.049 C 
HETATM    8  C16         0      17.464  83.017 -24.829  1.00  0.00     0.093 C 
HETATM    9  C18         0      17.764  83.836 -23.748  1.00  0.00     0.048 C 
HETATM   10  C19         0      18.580  84.948 -23.910  1.00  0.00     0.096 C 
HETATM   11  C21         0      19.106  85.230 -25.142  1.00  0.00     0.084 C 
ENDROOT
BRANCH  10  12
HETATM   12  O20         0      18.523  85.976 -22.974  1.00  0.00    -0.359 OA
HETATM   13  H20         0      18.811  86.840 -23.244  1.00  0.00     0.218 HD
ENDBRANCH  10  12
BRANCH   4  14
HETATM   14  C5          0      20.366  85.880 -29.018  1.00  0.00     0.025 C 
HETATM   15  C6          0      20.169  87.144 -29.556  1.00  0.00     0.004 C 
HETATM   16  C7          0      21.010  87.542 -30.591  1.00  0.00     0.026 C 
HETATM   17  C8          0      21.926  86.667 -31.164  1.00  0.00     0.112 C 
HETATM   18  C10         0      21.616  85.322 -31.013  1.00  0.00     0.112 C 
HETATM   19  C12         0      20.844  84.940 -29.922  1.00  0.00     0.028 C 
BRANCH  17  20
HETATM   20  O9          0      23.139  87.126 -31.646  1.00  0.00    -0.357 OA
HETATM   21  H9          0      23.223  87.729 -32.375  1.00  0.00     0.218 HD
ENDBRANCH  17  20
BRANCH  18  22
HETATM   22  O11         0      22.389  84.415 -31.724  1.00  0.00    -0.357 OA
HETATM   23  H11         0      22.919  83.811 -31.216  1.00  0.00     0.218 HD
ENDBRANCH  18  22
ENDBRANCH   4  14
BRANCH   8  24
HETATM   24  O17         0      16.201  82.434 -24.982  1.00  0.00    -0.359 OA
HETATM   25  H17         0      15.941  81.668 -24.485  1.00  0.00     0.218 HD
ENDBRANCH   8  24
TORSDOF 5
ENDMDL
MODEL 3
REMARK VINA RESULT:      -6.2      3.736      8.093
REMARK  5 active torsions:
REMARK  status: ('A' for Active; 'I' for Inactive)
REMARK    1  A    between atoms: C4_4  and  C5_5 
REMARK    2  A    between atoms: C8_8  and  O9_9 
REMARK    3  A    between atoms: C10_11  and  O11_12 
REMARK    4  A    between atoms: C16_18  and  O17_19 
REMARK    5  A    between atoms: C19_22  and  O20_23 
ROOT
HETATM    1  O1          0      18.104  86.294 -22.821  1.00  0.00    -0.286 OA
HETATM    2  C2          0      17.340  85.774 -23.679  1.00  0.00     0.201 C 
HETATM    3  C3          0      15.959  85.814 -23.578  1.00  0.00     0.067 C 
HETATM    4  C4          0      15.143  85.145 -24.482  1.00  0.00     0.103 C 
HETATM    5  O13         0      15.707  84.473 -25.471  1.00  0.00    -0.307 OA
HETATM    6  C14         0      17.013  84.372 -25.591  1.00  0.00     0.107 C 
HETATM    7  C15         0      17.601  83.373 -26.353  1.00  0.00     0.049 C 
HETATM    8  C16         0      18.964  83.114 -26.274  1.00  0.00     0.093 C 
HETATM    9  C18         0      19.742  84.184 -25.850  1.00  0.00     0.048 C 
HETATM   10  C19         0      19.176  85.224 -25.125  1.00  0.00     0.096 C 
HETATM   11  C21         0      17.837  85.203 -24.840  1.00  0.00     0.084 C 
ENDROOT
BRANCH  10  12
HETATM   12  O20         0      19.995  86.037 -24.348  1.00  0.00    -0.359 OA
HETATM   13  H20         0      19.846  86.053 -23.410  1.00  0.00     0.218 HD
ENDBRANCH  10  12
BRANCH   4  14
HETATM   14  C5          0      13.822  84.726 -24.009  1.00  0.00     0.025 C 
HETATM   15  C6          0      13.428  83.396 -23.959  1.00  0.00     0.004 C 
HETATM   16  C7          0      12.654  82.994 -22.876  1.00  0.00     0.026 C 
HETATM   17  C8          0      12.174  83.907 -21.943  1.00  0.00     0.112 C 
HETATM   18  C10         0      12.075  85.212 -22.407  1.00  0.00     0.112 C 
HETATM   19  C12         0      12.921  85.613 -23.435  1.00  0.00     0.028 C 
BRANCH  17  20
HETATM   20  O9          0      12.021  83.550 -20.615  1.00  0.00    -0.357 OA
HETATM   21  H9          0      12.242  84.119 -19.887  1.00  0.00     0.218 HD
ENDBRANCH  17  20
BRANCH  18  22
HETATM   22  O11         0      11.428  86.124 -21.586  1.00  0.00    -0.357 OA
HETATM   23  H11         0      10.632  85.829 -21.159  1.00  0.00     0.218 HD
ENDBRANCH  18  22
ENDBRANCH   4  14
BRANCH   8  24
HETATM   24  O17         0      19.459  81.805 -26.291  1.00  0.00    -0.359 OA
HETATM   25  H17         0      20.376  81.620 -26.455  1.00  0.00     0.218 HD
ENDBRANCH   8  24
TORSDOF 5
ENDMDL
MODEL 4
REMARK VINA RESULT:      -6.2      1.957      6.785
REMARK  5 active torsions:
REMARK  status: ('A' for Active; 'I' for Inactive)
REMARK    1  A    between atoms: C4_4  and  C5_5 
REMARK    2  A    between atoms: C8_8  and  O9_9 
REMARK    3  A    between atoms: C10_11  and  O11_12 
REMARK    4  A    between atoms: C16_18  and  O17_19 
REMARK    5  A    between atoms: C19_22  and  O20_23 
ROOT
HETATM    1  O1          0      22.043  84.222 -28.630  1.00  0.00    -0.286 OA
HETATM    2  C2          0      20.883  84.719 -28.629  1.00  0.00     0.201 C 
HETATM    3  C3          0      20.169  84.956 -27.468  1.00  0.00     0.067 C 
HETATM    4  C4          0      18.854  85.408 -27.500  1.00  0.00     0.103 C 
HETATM    5  O13         0      18.289  85.632 -28.673  1.00  0.00    -0.307 OA
HETATM    6  C14         0      18.909  85.387 -29.806  1.00  0.00     0.107 C 
HETATM    7  C15         0      18.218  85.233 -31.000  1.00  0.00     0.049 C 
HETATM    8  C16         0      18.841  84.727 -32.134  1.00  0.00     0.093 C 
HETATM    9  C18         0      20.220  84.895 -32.171  1.00  0.00     0.048 C 
HETATM   10  C19         0      20.938  85.098 -30.999  1.00  0.00     0.096 C 
HETATM   11  C21         0      20.280  85.150 -29.801  1.00  0.00     0.084 C 
ENDROOT
BRANCH  10  12
HETATM   12  O20         0      22.303  84.831 -30.983  1.00  0.00    -0.359 OA
HETATM   13  H20         0      22.885  85.463 -31.387  1.00  0.00     0.218 HD
ENDBRANCH  10  12
BRANCH   4  14
HETATM   14  C5          0      18.001  85.069 -26.360  1.00  0.00     0.025 C 
HETATM   15  C6          0      16.792  84.403 -26.497  1.00  0.00     0.004 C 
HETATM   16  C7          0      16.463  83.458 -25.530  1.00  0.00     0.026 C 
HETATM   17  C8          0      17.243  83.275 -24.393  1.00  0.00     0.112 C 
HETATM   18  C10         0      18.022  84.370 -24.043  1.00  0.00     0.112 C 
HETATM   19  C12         0      18.408  85.253 -25.045  1.00  0.00     0.028 C 
BRANCH  17  20
HETATM   20  O9          0      17.369  82.026 -23.813  1.00  0.00    -0.357 OA
HETATM   21  H9          0      17.086  81.220 -24.228  1.00  0.00     0.218 HD
ENDBRANCH  17  20
BRANCH  18  22
HETATM   22  O11         0      18.673  84.313 -22.819  1.00  0.00    -0.357 OA
HETATM   23  H11         0      18.950  85.139 -22.440  1.00  0.00     0.218 HD
ENDBRANCH  18  22
ENDBRANCH   4  14
BRANCH   8  24
HETATM   24  O17         0      18.186  83.835 -32.989  1.00  0.00    -0.359 OA
HETATM   25  H17         0      18.527  83.627 -33.851  1.00  0.00     0.218 HD
ENDBRANCH   8  24
TORSDOF 5
ENDMDL
MODEL 5
REMARK VINA RESULT:      -5.9      3.288      7.159
REMARK  5 active torsions:
REMARK  status: ('A' for Active; 'I' for Inactive)
REMARK    1  A    between atoms: C4_4  and  C5_5 
REMARK    2  A    between atoms: C8_8  and  O9_9 
REMARK    3  A    between atoms: C10_11  and  O11_12 
REMARK    4  A    between atoms: C16_18  and  O17_19 
REMARK    5  A    between atoms: C19_22  and  O20_23 
ROOT
HETATM    1  O1          0      18.102  83.285 -28.488  1.00  0.00    -0.286 OA
HETATM    2  C2          0      17.812  83.410 -27.267  1.00  0.00     0.201 C 
HETATM    3  C3          0      16.588  83.031 -26.743  1.00  0.00     0.067 C 
HETATM    4  C4          0      16.257  83.274 -25.415  1.00  0.00     0.103 C 
HETATM    5  O13         0      17.147  83.863 -24.636  1.00  0.00    -0.307 OA
HETATM    6  C14         0      18.310  84.276 -25.091  1.00  0.00     0.107 C 
HETATM    7  C15         0      19.064  85.224 -24.416  1.00  0.00     0.049 C 
HETATM    8  C16         0      20.155  85.841 -25.017  1.00  0.00     0.093 C 
HETATM    9  C18         0      20.747  85.115 -26.044  1.00  0.00     0.048 C 
HETATM   10  C19         0      20.035  84.126 -26.710  1.00  0.00     0.096 C 
HETATM   11  C21         0      18.746  83.852 -26.342  1.00  0.00     0.084 C 
ENDROOT
BRANCH  10  12
HETATM   12  O20         0      20.452  83.724 -27.976  1.00  0.00    -0.359 OA
HETATM   13  H20         0      19.852  83.204 -28.497  1.00  0.00     0.218 HD
ENDBRANCH  10  12
BRANCH   4  14
HETATM   14  C5          0      14.835  83.418 -25.095  1.00  0.00     0.025 C 
HETATM   15  C6          0      13.831  83.235 -26.033  1.00  0.00     0.004 C 
HETATM   16  C7          0      12.663  82.606 -25.613  1.00  0.00     0.026 C 
HETATM   17  C8          0      12.445  82.291 -24.276  1.00  0.00     0.112 C 
HETATM   18  C10         0      13.174  83.054 -23.374  1.00  0.00     0.112 C 
HETATM   19  C12         0      14.380  83.601 -23.795  1.00  0.00     0.028 C 
BRANCH  17  20
HETATM   20  O9          0      11.721  81.166 -23.922  1.00  0.00    -0.357 OA
HETATM   21  H9          0      11.102  81.142 -23.202  1.00  0.00     0.218 HD
ENDBRANCH  17  20
BRANCH  18  22
HETATM   22  O11         0      12.856  82.913 -22.031  1.00  0.00    -0.357 OA
HETATM   23  H11         0      11.949  83.054 -21.786  1.00  0.00     0.218 HD
ENDBRANCH  18  22
ENDBRANCH   4  14
BRANCH   8  24
HETATM   24  O17         0      20.413  87.204 -24.836  1.00  0.00    -0.359 OA
HETATM   25  H17         0      19.743  87.802 -24.527  1.00  0.00     0.218 HD
ENDBRANCH   8  24
TORSDOF 5
ENDMDL
MODEL 6
REMARK VINA RESULT:      -5.8      1.873      3.482
REMARK  5 active torsions:
REMARK  status: ('A' for Active; 'I' for Inactive)
REMARK    1  A    between atoms: C4_4  and  C5_5 
REMARK    2  A    between atoms: C8_8  and  O9_9 
REMARK    3  A    between atoms: C10_11  and  O11_12 
REMARK    4  A    between atoms: C16_18  and  O17_19 
REMARK    5  A    between atoms: C19_22  and  O20_23 
ROOT
HETATM    1  O1          0      18.181  87.187 -26.806  1.00  0.00    -0.286 OA
HETATM    2  C2          0      19.000  86.375 -27.316  1.00  0.00     0.201 C 
HETATM    3  C3          0      19.858  86.721 -28.346  1.00  0.00     0.067 C 
HETATM    4  C4          0      20.678  85.780 -28.958  1.00  0.00     0.103 C 
HETATM    5  O13         0      20.645  84.531 -28.526  1.00  0.00    -0.307 OA
HETATM    6  C14         0      19.822  84.142 -27.577  1.00  0.00     0.107 C 
HETATM    7  C15         0      19.493  82.806 -27.397  1.00  0.00     0.049 C 
HETATM    8  C16         0      18.441  82.427 -26.573  1.00  0.00     0.093 C 
HETATM    9  C18         0      18.116  83.340 -25.578  1.00  0.00     0.048 C 
HETATM   10  C19         0      18.471  84.677 -25.704  1.00  0.00     0.096 C 
HETATM   11  C21         0      19.161  85.094 -26.809  1.00  0.00     0.084 C 
ENDROOT
BRANCH  10  12
HETATM   12  O20         0      17.789  85.635 -24.959  1.00  0.00    -0.359 OA
HETATM   13  H20         0      18.215  86.471 -24.813  1.00  0.00     0.218 HD
ENDBRANCH  10  12
BRANCH   4  14
HETATM   14  C5          0      21.071  86.035 -30.345  1.00  0.00     0.025 C 
HETATM   15  C6          0      21.546  87.264 -30.778  1.00  0.00     0.004 C 
HETATM   16  C7          0      22.574  87.263 -31.716  1.00  0.00     0.026 C 
HETATM   17  C8          0      23.024  86.087 -32.305  1.00  0.00     0.112 C 
HETATM   18  C10         0      22.104  85.046 -32.297  1.00  0.00     0.112 C 
HETATM   19  C12         0      21.139  85.026 -31.297  1.00  0.00     0.028 C 
BRANCH  17  20
HETATM   20  O9          0      24.352  85.935 -32.663  1.00  0.00    -0.357 OA
HETATM   21  H9          0      25.077  86.044 -32.059  1.00  0.00     0.218 HD
ENDBRANCH  17  20
BRANCH  18  22
HETATM   22  O11         0      22.428  83.916 -33.034  1.00  0.00    -0.357 OA
HETATM   23  H11         0      22.000  83.816 -33.877  1.00  0.00     0.218 HD
ENDBRANCH  18  22
ENDBRANCH   4  14
BRANCH   8  24
HETATM   24  O17         0      17.575  81.386 -26.928  1.00  0.00    -0.359 OA
HETATM   25  H17         0      17.634  80.953 -27.771  1.00  0.00     0.218 HD
ENDBRANCH   8  24
TORSDOF 5
ENDMDL
MODEL 7
REMARK VINA RESULT:      -5.7      1.689      6.961
REMARK  5 active torsions:
REMARK  status: ('A' for Active; 'I' for Inactive)
REMARK    1  A    between atoms: C4_4  and  C5_5 
REMARK    2  A    between atoms: C8_8  and  O9_9 
REMARK    3  A    between atoms: C10_11  and  O11_12 
REMARK    4  A    between atoms: C16_18  and  O17_19 
REMARK    5  A    between atoms: C19_22  and  O20_23 
ROOT
HETATM    1  O1          0      17.902  87.432 -29.973  1.00  0.00    -0.286 OA
HETATM    2  C2          0      18.664  86.505 -29.584  1.00  0.00     0.201 C 
HETATM    3  C3          0      18.581  85.944 -28.321  1.00  0.00     0.067 C 
HETATM    4  C4          0      19.499  84.997 -27.883  1.00  0.00     0.103 C 
HETATM    5  O13         0      20.459  84.614 -28.706  1.00  0.00    -0.307 OA
HETATM    6  C14         0      20.606  85.142 -29.901  1.00  0.00     0.107 C 
HETATM    7  C15         0      21.803  85.053 -30.597  1.00  0.00     0.049 C 
HETATM    8  C16         0      22.036  85.820 -31.733  1.00  0.00     0.093 C 
HETATM    9  C18         0      20.893  86.232 -32.407  1.00  0.00     0.048 C 
HETATM   10  C19         0      19.670  86.288 -31.754  1.00  0.00     0.096 C 
HETATM   11  C21         0      19.585  85.918 -30.439  1.00  0.00     0.084 C 
ENDROOT
BRANCH  10  12
HETATM   12  O20         0      18.657  87.089 -32.273  1.00  0.00    -0.359 OA
HETATM   13  H20         0      17.780  86.727 -32.314  1.00  0.00     0.218 HD
ENDBRANCH  10  12
BRANCH   4  14
HETATM   14  C5          0      19.730  84.906 -26.440  1.00  0.00     0.025 C 
HETATM   15  C6          0      20.498  85.827 -25.742  1.00  0.00     0.004 C 
HETATM   16  C7          0      20.069  86.192 -24.470  1.00  0.00     0.026 C 
HETATM   17  C8          0      18.990  85.564 -23.856  1.00  0.00     0.112 C 
HETATM   18  C10         0      18.713  84.290 -24.333  1.00  0.00     0.112 C 
HETATM   19  C12         0      19.076  83.980 -25.638  1.00  0.00     0.028 C 
BRANCH  17  20
HETATM   20  O9          0      18.158  86.263 -23.000  1.00  0.00    -0.357 OA
HETATM   21  H9          0      18.426  87.036 -22.516  1.00  0.00     0.218 HD
ENDBRANCH  17  20
BRANCH  18  22
HETATM   22  O11         0      17.773  83.548 -23.632  1.00  0.00    -0.357 OA
HETATM   23  H11         0      17.257  82.926 -24.131  1.00  0.00     0.218 HD
ENDBRANCH  18  22
ENDBRANCH   4  14
BRANCH   8  24
HETATM   24  O17         0      23.284  86.404 -31.974  1.00  0.00    -0.359 OA
HETATM   25  H17         0      23.372  87.202 -32.483  1.00  0.00     0.218 HD
ENDBRANCH   8  24
TORSDOF 5
ENDMDL
MODEL 8
REMARK VINA RESULT:      -5.6      1.556      2.676
REMARK  5 active torsions:
REMARK  status: ('A' for Active; 'I' for Inactive)
REMARK    1  A    between atoms: C4_4  and  C5_5 
REMARK    2  A    between atoms: C8_8  and  O9_9 
REMARK    3  A    between atoms: C10_11  and  O11_12 
REMARK    4  A    between atoms: C16_18  and  O17_19 
REMARK    5  A    between atoms: C19_22  and  O20_23 
ROOT
HETATM    1  O1          0      19.212  87.305 -24.765  1.00  0.00    -0.286 OA
HETATM    2  C2          0      19.438  86.328 -25.529  1.00  0.00     0.201 C 
HETATM    3  C3          0      20.145  86.448 -26.713  1.00  0.00     0.067 C 
HETATM    4  C4          0      20.291  85.377 -27.587  1.00  0.00     0.103 C 
HETATM    5  O13         0      19.756  84.214 -27.261  1.00  0.00    -0.307 OA
HETATM    6  C14         0      19.043  84.055 -26.167  1.00  0.00     0.107 C 
HETATM    7  C15         0      18.164  82.992 -26.016  1.00  0.00     0.049 C 
HETATM    8  C16         0      17.235  82.966 -24.982  1.00  0.00     0.093 C 
HETATM    9  C18         0      17.575  83.724 -23.868  1.00  0.00     0.048 C 
HETATM   10  C19         0      18.487  84.765 -23.975  1.00  0.00     0.096 C 
HETATM   11  C21         0      19.069  85.037 -25.183  1.00  0.00     0.084 C 
ENDROOT
BRANCH  10  12
HETATM   12  O20         0      18.493  85.766 -23.008  1.00  0.00    -0.359 OA
HETATM   13  H20         0      18.571  86.666 -23.299  1.00  0.00     0.218 HD
ENDBRANCH  10  12
BRANCH   4  14
HETATM   14  C5          0      20.487  85.690 -29.004  1.00  0.00     0.025 C 
HETATM   15  C6          0      21.500  85.126 -29.766  1.00  0.00     0.004 C 
HETATM   16  C7          0      21.205  84.790 -31.083  1.00  0.00     0.026 C 
HETATM   17  C8          0      19.988  85.125 -31.666  1.00  0.00     0.112 C 
HETATM   18  C10         0      19.334  86.196 -31.070  1.00  0.00     0.112 C 
HETATM   19  C12         0      19.584  86.457 -29.728  1.00  0.00     0.028 C 
BRANCH  17  20
HETATM   20  O9          0      19.408  84.305 -32.619  1.00  0.00    -0.357 OA
HETATM   21  H9          0      19.891  83.899 -33.329  1.00  0.00     0.218 HD
ENDBRANCH  17  20
BRANCH  18  22
HETATM   22  O11         0      18.214  86.691 -31.723  1.00  0.00    -0.357 OA
HETATM   23  H11         0      17.847  86.153 -32.416  1.00  0.00     0.218 HD
ENDBRANCH  18  22
ENDBRANCH   4  14
BRANCH   8  24
HETATM   24  O17         0      15.931  82.500 -25.186  1.00  0.00    -0.359 OA
HETATM   25  H17         0      15.391  82.823 -25.897  1.00  0.00     0.218 HD
ENDBRANCH   8  24
TORSDOF 5
ENDMDL
MODEL 9
REMARK VINA RESULT:      -5.5      1.519      6.699
REMARK  5 active torsions:
REMARK  status: ('A' for Active; 'I' for Inactive)
REMARK    1  A    between atoms: C4_4  and  C5_5 
REMARK    2  A    between atoms: C8_8  and  O9_9 
REMARK    3  A    between atoms: C10_11  and  O11_12 
REMARK    4  A    between atoms: C16_18  and  O17_19 
REMARK    5  A    between atoms: C19_22  and  O20_23 
ROOT
HETATM    1  O1          0      20.924  84.763 -30.124  1.00  0.00    -0.286 OA
HETATM    2  C2          0      20.539  85.577 -29.239  1.00  0.00     0.201 C 
HETATM    3  C3          0      20.065  85.173 -28.003  1.00  0.00     0.067 C 
HETATM    4  C4          0      19.552  86.083 -27.086  1.00  0.00     0.103 C 
HETATM    5  O13         0      19.540  87.366 -27.404  1.00  0.00    -0.307 OA
HETATM    6  C14         0      19.943  87.799 -28.578  1.00  0.00     0.107 C 
HETATM    7  C15         0      19.572  89.043 -29.065  1.00  0.00     0.049 C 
HETATM    8  C16         0      19.782  89.391 -30.394  1.00  0.00     0.093 C 
HETATM    9  C18         0      20.808  88.699 -31.026  1.00  0.00     0.048 C 
HETATM   10  C19         0      21.237  87.472 -30.538  1.00  0.00     0.096 C 
HETATM   11  C21         0      20.656  86.947 -29.416  1.00  0.00     0.084 C 
ENDROOT
BRANCH  10  12
HETATM   12  O20         0      21.923  86.605 -31.383  1.00  0.00    -0.359 OA
HETATM   13  H20         0      21.477  86.300 -32.165  1.00  0.00     0.218 HD
ENDBRANCH  10  12
BRANCH   4  14
HETATM   14  C5          0      18.563  85.585 -26.129  1.00  0.00     0.025 C 
HETATM   15  C6          0      17.411  84.916 -26.518  1.00  0.00     0.004 C 
HETATM   16  C7          0      16.988  83.850 -25.730  1.00  0.00     0.026 C 
HETATM   17  C8          0      17.609  83.542 -24.524  1.00  0.00     0.112 C 
HETATM   18  C10         0      18.289  84.600 -23.936  1.00  0.00     0.112 C 
HETATM   19  C12         0      18.776  85.610 -24.757  1.00  0.00     0.028 C 
BRANCH  17  20
HETATM   20  O9          0      17.701  82.232 -24.089  1.00  0.00    -0.357 OA
HETATM   21  H9          0      17.230  81.509 -24.486  1.00  0.00     0.218 HD
ENDBRANCH  17  20
BRANCH  18  22
HETATM   22  O11         0      18.765  84.402 -22.647  1.00  0.00    -0.357 OA
HETATM   23  H11         0      18.125  84.172 -21.983  1.00  0.00     0.218 HD
ENDBRANCH  18  22
ENDBRANCH   4  14
BRANCH   8  24
HETATM   24  O17         0      18.830  90.118 -31.118  1.00  0.00    -0.359 OA
HETATM   25  H17         0      18.754  90.038 -32.061  1.00  0.00     0.218 HD
ENDBRANCH   8  24
TORSDOF 5
ENDMDL
