MODEL 1
REMARK VINA RESULT:      -2.7      0.000      0.000
REMARK  5 active torsions:
REMARK  status: ('A' for Active; 'I' for Inactive)
REMARK    1  A    between atoms: C4_4  and  C5_5 
REMARK    2  A    between atoms: C8_8  and  O9_9 
REMARK    3  A    between atoms: C10_11  and  O11_12 
REMARK    4  A    between atoms: C16_18  and  O17_19 
REMARK    5  A    between atoms: C19_22  and  O20_23 
ROOT
HETATM    1  O1          0      38.594 113.218  20.073  1.00  0.00    -0.286 OA
HETATM    2  C2          0      37.379 112.962  20.297  1.00  0.00     0.201 C 
HETATM    3  C3          0      36.391 113.931  20.273  1.00  0.00     0.067 C 
HETATM    4  C4          0      35.077 113.641  20.625  1.00  0.00     0.103 C 
HETATM    5  O13         0      34.771 112.403  20.969  1.00  0.00    -0.307 OA
HETATM    6  C14         0      35.678 111.454  21.044  1.00  0.00     0.107 C 
HETATM    7  C15         0      35.460 110.291  21.770  1.00  0.00     0.049 C 
HETATM    8  C16         0      36.500 109.415  22.057  1.00  0.00     0.093 C 
HETATM    9  C18         0      37.574 109.469  21.177  1.00  0.00     0.048 C 
HETATM   10  C19         0      37.794 110.600  20.402  1.00  0.00     0.096 C 
HETATM   11  C21         0      36.937 111.662  20.492  1.00  0.00     0.084 C 
ENDROOT
BRANCH  10  12
HETATM   12  O20         0      39.062 110.827  19.875  1.00  0.00    -0.359 OA
HETATM   13  H20         0      39.127 111.056  18.956  1.00  0.00     0.218 HD
ENDBRANCH  10  12
BRANCH   4  14
HETATM   14  C5          0      34.267 114.741  21.152  1.00  0.00     0.025 C 
HETATM   15  C6          0      34.407 116.052  20.722  1.00  0.00     0.004 C 
HETATM   16  C7          0      33.250 116.813  20.588  1.00  0.00     0.026 C 
HETATM   17  C8          0      32.010 116.334  20.996  1.00  0.00     0.112 C 
HETATM   18  C10         0      32.063 115.333  21.956  1.00  0.00     0.112 C 
HETATM   19  C12         0      33.197 114.531  22.012  1.00  0.00     0.028 C 
BRANCH  17  20
HETATM   20  O9          0      30.855 116.695  20.326  1.00  0.00    -0.357 OA
HETATM   21  H9          0      30.573 117.595  20.208  1.00  0.00     0.218 HD
ENDBRANCH  17  20
BRANCH  18  22
HETATM   22  O11         0      30.861 114.952  22.534  1.00  0.00    -0.357 OA
HETATM   23  H11         0      30.771 115.088  23.471  1.00  0.00     0.218 HD
ENDBRANCH  18  22
ENDBRANCH   4  14
BRANCH   8  24
HETATM   24  O17         0      36.601 108.788  23.305  1.00  0.00    -0.359 OA
HETATM   25  H17         0      36.230 107.929  23.463  1.00  0.00     0.218 HD
ENDBRANCH   8  24
TORSDOF 5
ENDMDL
MODEL 2
REMARK VINA RESULT:      -2.6      1.419      1.881
REMARK  5 active torsions:
REMARK  status: ('A' for Active; 'I' for Inactive)
REMARK    1  A    between atoms: C4_4  and  C5_5 
REMARK    2  A    between atoms: C8_8  and  O9_9 
REMARK    3  A    between atoms: C10_11  and  O11_12 
REMARK    4  A    between atoms: C16_18  and  O17_19 
REMARK    5  A    between atoms: C19_22  and  O20_23 
ROOT
HETATM    1  O1          0      38.927 113.028  20.265  1.00  0.00    -0.286 OA
HETATM    2  C2          0      37.672 113.032  20.392  1.00  0.00     0.201 C 
HETATM    3  C3          0      36.918 114.193  20.361  1.00  0.00     0.067 C 
HETATM    4  C4          0      35.550 114.180  20.606  1.00  0.00     0.103 C 
HETATM    5  O13         0      34.960 113.023  20.853  1.00  0.00    -0.307 OA
HETATM    6  C14         0      35.635 111.897  20.931  1.00  0.00     0.107 C 
HETATM    7  C15         0      35.119 110.778  21.568  1.00  0.00     0.049 C 
HETATM    8  C16         0      35.922 109.685  21.871  1.00  0.00     0.093 C 
HETATM    9  C18         0      37.049 109.545  21.069  1.00  0.00     0.048 C 
HETATM   10  C19         0      37.564 110.634  20.380  1.00  0.00     0.096 C 
HETATM   11  C21         0      36.949 111.852  20.478  1.00  0.00     0.084 C 
ENDROOT
BRANCH  10  12
HETATM   12  O20         0      38.889 110.604  19.953  1.00  0.00    -0.359 OA
HETATM   13  H20         0      39.471 111.288  20.261  1.00  0.00     0.218 HD
ENDBRANCH  10  12
BRANCH   4  14
HETATM   14  C5          0      34.954 115.404  21.144  1.00  0.00     0.025 C 
HETATM   15  C6          0      35.634 116.258  22.000  1.00  0.00     0.004 C 
HETATM   16  C7          0      35.436 117.626  21.836  1.00  0.00     0.026 C 
HETATM   17  C8          0      34.493 118.125  20.944  1.00  0.00     0.112 C 
HETATM   18  C10         0      33.468 117.243  20.632  1.00  0.00     0.112 C 
HETATM   19  C12         0      33.719 115.879  20.722  1.00  0.00     0.028 C 
BRANCH  17  20
HETATM   20  O9          0      34.707 119.320  20.282  1.00  0.00    -0.357 OA
HETATM   21  H9          0      35.569 119.666  20.081  1.00  0.00     0.218 HD
ENDBRANCH  17  20
BRANCH  18  22
HETATM   22  O11         0      32.404 117.750  19.899  1.00  0.00    -0.357 OA
HETATM   23  H11         0      31.729 118.212  20.384  1.00  0.00     0.218 HD
ENDBRANCH  18  22
ENDBRANCH   4  14
BRANCH   8  24
HETATM   24  O17         0      35.790 108.996  23.081  1.00  0.00    -0.359 OA
HETATM   25  H17         0      34.951 108.665  23.378  1.00  0.00     0.218 HD
ENDBRANCH   8  24
TORSDOF 5
ENDMDL
MODEL 3
REMARK VINA RESULT:      -2.5      1.203      1.606
REMARK  5 active torsions:
REMARK  status: ('A' for Active; 'I' for Inactive)
REMARK    1  A    between atoms: C4_4  and  C5_5 
REMARK    2  A    between atoms: C8_8  and  O9_9 
REMARK    3  A    between atoms: C10_11  and  O11_12 
REMARK    4  A    between atoms: C16_18  and  O17_19 
REMARK    5  A    between atoms: C19_22  and  O20_23 
ROOT
HETATM    1  O1          0      39.305 111.360  20.256  1.00  0.00    -0.286 OA
HETATM    2  C2          0      38.066 111.400  20.487  1.00  0.00     0.201 C 
HETATM    3  C3          0      37.325 112.567  20.413  1.00  0.00     0.067 C 
HETATM    4  C4          0      35.982 112.603  20.772  1.00  0.00     0.103 C 
HETATM    5  O13         0      35.403 111.485  21.173  1.00  0.00    -0.307 OA
HETATM    6  C14         0      36.069 110.358  21.298  1.00  0.00     0.107 C 
HETATM    7  C15         0      35.596 109.312  22.077  1.00  0.00     0.049 C 
HETATM    8  C16         0      36.410 108.236  22.411  1.00  0.00     0.093 C 
HETATM    9  C18         0      37.462 108.001  21.534  1.00  0.00     0.048 C 
HETATM   10  C19         0      37.930 109.013  20.706  1.00  0.00     0.096 C 
HETATM   11  C21         0      37.339 110.247  20.742  1.00  0.00     0.084 C 
ENDROOT
BRANCH  10  12
HETATM   12  O20         0      39.212 108.919  20.175  1.00  0.00    -0.359 OA
HETATM   13  H20         0      39.852 108.399  20.646  1.00  0.00     0.218 HD
ENDBRANCH  10  12
BRANCH   4  14
HETATM   14  C5          0      35.449 113.882  21.243  1.00  0.00     0.025 C 
HETATM   15  C6          0      36.093 115.091  21.026  1.00  0.00     0.004 C 
HETATM   16  C7          0      35.303 116.200  20.738  1.00  0.00     0.026 C 
HETATM   17  C8          0      33.915 116.141  20.795  1.00  0.00     0.112 C 
HETATM   18  C10         0      33.410 115.134  21.606  1.00  0.00     0.112 C 
HETATM   19  C12         0      34.186 113.998  21.809  1.00  0.00     0.028 C 
BRANCH  17  20
HETATM   20  O9          0      33.137 116.898  19.937  1.00  0.00    -0.357 OA
HETATM   21  H9          0      32.265 117.208  20.150  1.00  0.00     0.218 HD
ENDBRANCH  17  20
BRANCH  18  22
HETATM   22  O11         0      32.044 115.147  21.849  1.00  0.00    -0.357 OA
HETATM   23  H11         0      31.665 115.973  22.128  1.00  0.00     0.218 HD
ENDBRANCH  18  22
ENDBRANCH   4  14
BRANCH   8  24
HETATM   24  O17         0      36.374 107.662  23.687  1.00  0.00    -0.359 OA
HETATM   25  H17         0      35.656 107.105  23.963  1.00  0.00     0.218 HD
ENDBRANCH   8  24
TORSDOF 5
ENDMDL
MODEL 4
REMARK VINA RESULT:      -2.5      2.429      5.465
REMARK  5 active torsions:
REMARK  status: ('A' for Active; 'I' for Inactive)
REMARK    1  A    between atoms: C4_4  and  C5_5 
REMARK    2  A    between atoms: C8_8  and  O9_9 
REMARK    3  A    between atoms: C10_11  and  O11_12 
REMARK    4  A    between atoms: C16_18  and  O17_19 
REMARK    5  A    between atoms: C19_22  and  O20_23 
ROOT
HETATM    1  O1          0      35.106 115.997  21.892  1.00  0.00    -0.286 OA
HETATM    2  C2          0      35.326 114.889  21.330  1.00  0.00     0.201 C 
HETATM    3  C3          0      34.454 113.817  21.416  1.00  0.00     0.067 C 
HETATM    4  C4          0      34.769 112.576  20.873  1.00  0.00     0.103 C 
HETATM    5  O13         0      35.921 112.433  20.244  1.00  0.00    -0.307 OA
HETATM    6  C14         0      36.801 113.407  20.165  1.00  0.00     0.107 C 
HETATM    7  C15         0      38.136 113.165  19.875  1.00  0.00     0.049 C 
HETATM    8  C16         0      39.101 114.151  20.043  1.00  0.00     0.093 C 
HETATM    9  C18         0      38.625 115.455  19.984  1.00  0.00     0.048 C 
HETATM   10  C19         0      37.285 115.727  20.223  1.00  0.00     0.096 C 
HETATM   11  C21         0      36.422 114.702  20.501  1.00  0.00     0.084 C 
ENDROOT
BRANCH  10  12
HETATM   12  O20         0      36.908 117.015  20.590  1.00  0.00    -0.359 OA
HETATM   13  H20         0      36.378 117.515  19.981  1.00  0.00     0.218 HD
ENDBRANCH  10  12
BRANCH   4  14
HETATM   14  C5          0      34.150 111.400  21.488  1.00  0.00     0.025 C 
HETATM   15  C6          0      32.776 111.215  21.541  1.00  0.00     0.004 C 
HETATM   16  C7          0      32.292 109.924  21.355  1.00  0.00     0.026 C 
HETATM   17  C8          0      33.147 108.832  21.254  1.00  0.00     0.112 C 
HETATM   18  C10         0      34.396 109.018  21.831  1.00  0.00     0.112 C 
HETATM   19  C12         0      34.893 110.312  21.927  1.00  0.00     0.028 C 
BRANCH  17  20
HETATM   20  O9          0      32.824 107.751  20.453  1.00  0.00    -0.357 OA
HETATM   21  H9          0      31.989 107.653  20.011  1.00  0.00     0.218 HD
ENDBRANCH  17  20
BRANCH  18  22
HETATM   22  O11         0      35.217 107.903  21.926  1.00  0.00    -0.357 OA
HETATM   23  H11         0      35.183 107.412  22.738  1.00  0.00     0.218 HD
ENDBRANCH  18  22
ENDBRANCH   4  14
BRANCH   8  24
HETATM   24  O17         0      40.366 113.852  20.561  1.00  0.00    -0.359 OA
HETATM   25  H17         0      40.642 112.957  20.719  1.00  0.00     0.218 HD
ENDBRANCH   8  24
TORSDOF 5
ENDMDL
MODEL 5
REMARK VINA RESULT:      -2.4      2.572      3.041
REMARK  5 active torsions:
REMARK  status: ('A' for Active; 'I' for Inactive)
REMARK    1  A    between atoms: C4_4  and  C5_5 
REMARK    2  A    between atoms: C8_8  and  O9_9 
REMARK    3  A    between atoms: C10_11  and  O11_12 
REMARK    4  A    between atoms: C16_18  and  O17_19 
REMARK    5  A    between atoms: C19_22  and  O20_23 
ROOT
HETATM    1  O1          0      39.298 110.041  20.149  1.00  0.00    -0.286 OA
HETATM    2  C2          0      38.251 110.727  20.304  1.00  0.00     0.201 C 
HETATM    3  C3          0      38.218 112.099  20.120  1.00  0.00     0.067 C 
HETATM    4  C4          0      37.077 112.844  20.397  1.00  0.00     0.103 C 
HETATM    5  O13         0      35.997 112.215  20.827  1.00  0.00    -0.307 OA
HETATM    6  C14         0      35.986 110.920  21.054  1.00  0.00     0.107 C 
HETATM    7  C15         0      35.026 110.327  21.861  1.00  0.00     0.049 C 
HETATM    8  C16         0      35.163 109.017  22.303  1.00  0.00     0.093 C 
HETATM    9  C18         0      35.963 108.209  21.504  1.00  0.00     0.048 C 
HETATM   10  C19         0      36.902 108.771  20.649  1.00  0.00     0.096 C 
HETATM   11  C21         0      37.030 110.132  20.581  1.00  0.00     0.084 C 
ENDROOT
BRANCH  10  12
HETATM   12  O20         0      37.965 107.993  20.200  1.00  0.00    -0.359 OA
HETATM   13  H20         0      38.207 107.231  20.713  1.00  0.00     0.218 HD
ENDBRANCH  10  12
BRANCH   4  14
HETATM   14  C5          0      37.267 114.249  20.763  1.00  0.00     0.025 C 
HETATM   15  C6          0      38.025 115.128  20.004  1.00  0.00     0.004 C 
HETATM   16  C7          0      37.565 116.435  19.880  1.00  0.00     0.026 C 
HETATM   17  C8          0      36.463 116.891  20.594  1.00  0.00     0.112 C 
HETATM   18  C10         0      36.184 116.174  21.750  1.00  0.00     0.112 C 
HETATM   19  C12         0      36.581 114.844  21.814  1.00  0.00     0.028 C 
BRANCH  17  20
HETATM   20  O9          0      35.614 117.843  20.057  1.00  0.00    -0.357 OA
HETATM   21  H9          0      35.743 118.245  19.206  1.00  0.00     0.218 HD
ENDBRANCH  17  20
BRANCH  18  22
HETATM   22  O11         0      35.217 116.697  22.597  1.00  0.00    -0.357 OA
HETATM   23  H11         0      34.883 116.122  23.275  1.00  0.00     0.218 HD
ENDBRANCH  18  22
ENDBRANCH   4  14
BRANCH   8  24
HETATM   24  O17         0      34.810 108.645  23.605  1.00  0.00    -0.359 OA
HETATM   25  H17         0      34.740 107.733  23.862  1.00  0.00     0.218 HD
ENDBRANCH   8  24
TORSDOF 5
ENDMDL
MODEL 6
REMARK VINA RESULT:      -2.3      2.070      6.884
REMARK  5 active torsions:
REMARK  status: ('A' for Active; 'I' for Inactive)
REMARK    1  A    between atoms: C4_4  and  C5_5 
REMARK    2  A    between atoms: C8_8  and  O9_9 
REMARK    3  A    between atoms: C10_11  and  O11_12 
REMARK    4  A    between atoms: C16_18  and  O17_19 
REMARK    5  A    between atoms: C19_22  and  O20_23 
ROOT
HETATM    1  O1          0      33.390 112.809  22.010  1.00  0.00    -0.286 OA
HETATM    2  C2          0      34.368 113.256  21.349  1.00  0.00     0.201 C 
HETATM    3  C3          0      35.307 112.433  20.749  1.00  0.00     0.067 C 
HETATM    4  C4          0      36.430 112.951  20.115  1.00  0.00     0.103 C 
HETATM    5  O13         0      36.586 114.263  20.072  1.00  0.00    -0.307 OA
HETATM    6  C14         0      35.745 115.087  20.657  1.00  0.00     0.107 C 
HETATM    7  C15         0      36.095 116.394  20.962  1.00  0.00     0.049 C 
HETATM    8  C16         0      35.308 117.176  21.799  1.00  0.00     0.093 C 
HETATM    9  C18         0      33.971 116.804  21.863  1.00  0.00     0.048 C 
HETATM   10  C19         0      33.579 115.517  21.520  1.00  0.00     0.096 C 
HETATM   11  C21         0      34.515 114.612  21.100  1.00  0.00     0.084 C 
ENDROOT
BRANCH  10  12
HETATM   12  O20         0      32.364 115.028  21.988  1.00  0.00    -0.359 OA
HETATM   13  H20         0      32.238 114.973  22.928  1.00  0.00     0.218 HD
ENDBRANCH  10  12
BRANCH   4  14
HETATM   14  C5          0      37.618 112.098  20.054  1.00  0.00     0.025 C 
HETATM   15  C6          0      38.899 112.603  19.885  1.00  0.00     0.004 C 
HETATM   16  C7          0      39.931 111.992  20.590  1.00  0.00     0.026 C 
HETATM   17  C8          0      39.722 110.836  21.334  1.00  0.00     0.112 C 
HETATM   18  C10         0      38.624 110.083  20.938  1.00  0.00     0.112 C 
HETATM   19  C12         0      37.568 110.734  20.311  1.00  0.00     0.028 C 
BRANCH  17  20
HETATM   20  O9          0      40.437 110.600  22.495  1.00  0.00    -0.357 OA
HETATM   21  H9          0      41.179 110.009  22.547  1.00  0.00     0.218 HD
ENDBRANCH  17  20
BRANCH  18  22
HETATM   22  O11         0      38.479 108.831  21.518  1.00  0.00    -0.357 OA
HETATM   23  H11         0      39.257 108.288  21.569  1.00  0.00     0.218 HD
ENDBRANCH  18  22
ENDBRANCH   4  14
BRANCH   8  24
HETATM   24  O17         0      35.879 118.034  22.745  1.00  0.00    -0.359 OA
HETATM   25  H17         0      36.342 117.703  23.505  1.00  0.00     0.218 HD
ENDBRANCH   8  24
TORSDOF 5
ENDMDL
MODEL 7
REMARK VINA RESULT:      -2.3      2.598      5.515
REMARK  5 active torsions:
REMARK  status: ('A' for Active; 'I' for Inactive)
REMARK    1  A    between atoms: C4_4  and  C5_5 
REMARK    2  A    between atoms: C8_8  and  O9_9 
REMARK    3  A    between atoms: C10_11  and  O11_12 
REMARK    4  A    between atoms: C16_18  and  O17_19 
REMARK    5  A    between atoms: C19_22  and  O20_23 
ROOT
HETATM    1  O1          0      36.635 110.519  20.974  1.00  0.00    -0.286 OA
HETATM    2  C2          0      36.358 111.726  20.730  1.00  0.00     0.201 C 
HETATM    3  C3          0      37.253 112.595  20.131  1.00  0.00     0.067 C 
HETATM    4  C4          0      36.960 113.944  19.967  1.00  0.00     0.103 C 
HETATM    5  O13         0      35.788 114.394  20.379  1.00  0.00    -0.307 OA
HETATM    6  C14         0      34.917 113.619  20.989  1.00  0.00     0.107 C 
HETATM    7  C15         0      33.892 114.141  21.764  1.00  0.00     0.049 C 
HETATM    8  C16         0      33.138 113.331  22.604  1.00  0.00     0.093 C 
HETATM    9  C18         0      33.093 111.990  22.240  1.00  0.00     0.048 C 
HETATM   10  C19         0      34.077 111.446  21.427  1.00  0.00     0.096 C 
HETATM   11  C21         0      35.092 112.240  20.965  1.00  0.00     0.084 C 
ENDROOT
BRANCH  10  12
HETATM   12  O20         0      34.275 110.069  21.426  1.00  0.00    -0.359 OA
HETATM   13  H20         0      35.167 109.747  21.383  1.00  0.00     0.218 HD
ENDBRANCH  10  12
BRANCH   4  14
HETATM   14  C5          0      38.091 114.873  19.909  1.00  0.00     0.025 C 
HETATM   15  C6          0      37.931 116.250  19.875  1.00  0.00     0.004 C 
HETATM   16  C7          0      38.841 117.023  20.591  1.00  0.00     0.026 C 
HETATM   17  C8          0      39.950 116.457  21.210  1.00  0.00     0.112 C 
HETATM   18  C10         0      40.357 115.242  20.674  1.00  0.00     0.112 C 
HETATM   19  C12         0      39.408 114.451  20.037  1.00  0.00     0.028 C 
BRANCH  17  20
HETATM   20  O9          0      40.447 116.980  22.391  1.00  0.00    -0.357 OA
HETATM   21  H9          0      40.751 117.875  22.484  1.00  0.00     0.218 HD
ENDBRANCH  17  20
BRANCH  18  22
HETATM   22  O11         0      41.564 114.728  21.126  1.00  0.00    -0.357 OA
HETATM   23  H11         0      41.855 113.911  20.739  1.00  0.00     0.218 HD
ENDBRANCH  18  22
ENDBRANCH   4  14
BRANCH   8  24
HETATM   24  O17         0      32.749 113.761  23.877  1.00  0.00    -0.359 OA
HETATM   25  H17         0      31.851 114.002  24.070  1.00  0.00     0.218 HD
ENDBRANCH   8  24
TORSDOF 5
ENDMDL
MODEL 8
REMARK VINA RESULT:      -2.3      1.966      2.808
REMARK  5 active torsions:
REMARK  status: ('A' for Active; 'I' for Inactive)
REMARK    1  A    between atoms: C4_4  and  C5_5 
REMARK    2  A    between atoms: C8_8  and  O9_9 
REMARK    3  A    between atoms: C10_11  and  O11_12 
REMARK    4  A    between atoms: C16_18  and  O17_19 
REMARK    5  A    between atoms: C19_22  and  O20_23 
ROOT
HETATM    1  O1          0      39.418 115.025  21.488  1.00  0.00    -0.286 OA
HETATM    2  C2          0      38.513 114.337  20.941  1.00  0.00     0.201 C 
HETATM    3  C3          0      37.193 114.748  20.878  1.00  0.00     0.067 C 
HETATM    4  C4          0      36.198 113.926  20.361  1.00  0.00     0.103 C 
HETATM    5  O13         0      36.534 112.733  19.903  1.00  0.00    -0.307 OA
HETATM    6  C14         0      37.767 112.280  19.973  1.00  0.00     0.107 C 
HETATM    7  C15         0      38.054 110.926  19.875  1.00  0.00     0.049 C 
HETATM    8  C16         0      39.311 110.429  20.201  1.00  0.00     0.093 C 
HETATM    9  C18         0      40.349 111.348  20.100  1.00  0.00     0.048 C 
HETATM   10  C19         0      40.091 112.711  20.147  1.00  0.00     0.096 C 
HETATM   11  C21         0      38.804 113.155  20.277  1.00  0.00     0.084 C 
ENDROOT
BRANCH  10  12
HETATM   12  O20         0      41.120 113.586  20.482  1.00  0.00    -0.359 OA
HETATM   13  H20         0      40.998 114.148  21.238  1.00  0.00     0.218 HD
ENDBRANCH  10  12
BRANCH   4  14
HETATM   14  C5          0      34.835 114.132  20.855  1.00  0.00     0.025 C 
HETATM   15  C6          0      34.161 113.190  21.619  1.00  0.00     0.004 C 
HETATM   16  C7          0      33.356 113.655  22.654  1.00  0.00     0.026 C 
HETATM   17  C8          0      33.121 115.013  22.841  1.00  0.00     0.112 C 
HETATM   18  C10         0      33.295 115.793  21.706  1.00  0.00     0.112 C 
HETATM   19  C12         0      34.171 115.345  20.725  1.00  0.00     0.028 C 
BRANCH  17  20
HETATM   20  O9          0      32.941 115.533  24.111  1.00  0.00    -0.357 OA
HETATM   21  H9          0      32.106 115.844  24.440  1.00  0.00     0.218 HD
ENDBRANCH  17  20
BRANCH  18  22
HETATM   22  O11         0      32.894 117.119  21.787  1.00  0.00    -0.357 OA
HETATM   23  H11         0      33.520 117.737  22.147  1.00  0.00     0.218 HD
ENDBRANCH  18  22
ENDBRANCH   4  14
BRANCH   8  24
HETATM   24  O17         0      39.461 109.222  20.892  1.00  0.00    -0.359 OA
HETATM   25  H17         0      38.743 108.832  21.377  1.00  0.00     0.218 HD
ENDBRANCH   8  24
TORSDOF 5
ENDMDL
MODEL 9
REMARK VINA RESULT:      -2.3      2.360      3.429
REMARK  5 active torsions:
REMARK  status: ('A' for Active; 'I' for Inactive)
REMARK    1  A    between atoms: C4_4  and  C5_5 
REMARK    2  A    between atoms: C8_8  and  O9_9 
REMARK    3  A    between atoms: C10_11  and  O11_12 
REMARK    4  A    between atoms: C16_18  and  O17_19 
REMARK    5  A    between atoms: C19_22  and  O20_23 
ROOT
HETATM    1  O1          0      40.983 111.405  20.449  1.00  0.00    -0.286 OA
HETATM    2  C2          0      39.733 111.244  20.376  1.00  0.00     0.201 C 
HETATM    3  C3          0      38.875 112.230  19.919  1.00  0.00     0.067 C 
HETATM    4  C4          0      37.495 112.064  19.945  1.00  0.00     0.103 C 
HETATM    5  O13         0      37.001 110.927  20.401  1.00  0.00    -0.307 OA
HETATM    6  C14         0      37.769 109.973  20.881  1.00  0.00     0.107 C 
HETATM    7  C15         0      37.269 108.979  21.708  1.00  0.00     0.049 C 
HETATM    8  C16         0      38.116 108.132  22.413  1.00  0.00     0.093 C 
HETATM    9  C18         0      39.382 107.976  21.862  1.00  0.00     0.048 C 
HETATM   10  C19         0      39.895 108.930  20.993  1.00  0.00     0.096 C 
HETATM   11  C21         0      39.142 110.024  20.664  1.00  0.00     0.084 C 
ENDROOT
BRANCH  10  12
HETATM   12  O20         0      41.271 109.003  20.798  1.00  0.00    -0.359 OA
HETATM   13  H20         0      41.587 109.392  19.992  1.00  0.00     0.218 HD
ENDBRANCH  10  12
BRANCH   4  14
HETATM   14  C5          0      36.677 113.275  20.036  1.00  0.00     0.025 C 
HETATM   15  C6          0      35.300 113.241  20.199  1.00  0.00     0.004 C 
HETATM   16  C7          0      34.725 114.197  21.031  1.00  0.00     0.026 C 
HETATM   17  C8          0      35.474 115.235  21.575  1.00  0.00     0.112 C 
HETATM   18  C10         0      36.632 115.544  20.874  1.00  0.00     0.112 C 
HETATM   19  C12         0      37.233 114.545  20.118  1.00  0.00     0.028 C 
BRANCH  17  20
HETATM   20  O9          0      35.173 115.746  22.825  1.00  0.00    -0.357 OA
HETATM   21  H9          0      35.464 115.353  23.640  1.00  0.00     0.218 HD
ENDBRANCH  17  20
BRANCH  18  22
HETATM   22  O11         0      37.315 116.688  21.263  1.00  0.00    -0.357 OA
HETATM   23  H11         0      37.896 116.609  22.011  1.00  0.00     0.218 HD
ENDBRANCH  18  22
ENDBRANCH   4  14
BRANCH   8  24
HETATM   24  O17         0      37.835 107.749  23.729  1.00  0.00    -0.359 OA
HETATM   25  H17         0      38.525 107.610  24.367  1.00  0.00     0.218 HD
ENDBRANCH   8  24
TORSDOF 5
ENDMDL
