MODEL 1
REMARK VINA RESULT:      -5.4      0.000      0.000
REMARK  5 active torsions:
REMARK  status: ('A' for Active; 'I' for Inactive)
REMARK    1  A    between atoms: C4_4  and  C5_5 
REMARK    2  A    between atoms: C8_8  and  O9_9 
REMARK    3  A    between atoms: C10_11  and  O11_12 
REMARK    4  A    between atoms: C16_18  and  O17_19 
REMARK    5  A    between atoms: C19_22  and  O20_23 
ROOT
HETATM    1  O1          0      11.554  58.275 -21.290  1.00  0.00    -0.286 OA
HETATM    2  C2          0      11.180  58.094 -22.482  1.00  0.00     0.201 C 
HETATM    3  C3          0      12.068  57.982 -23.538  1.00  0.00     0.067 C 
HETATM    4  C4          0      11.628  57.886 -24.853  1.00  0.00     0.103 C 
HETATM    5  O13         0      10.328  57.883 -25.088  1.00  0.00    -0.307 OA
HETATM    6  C14         0       9.443  58.024 -24.126  1.00  0.00     0.107 C 
HETATM    7  C15         0       8.138  58.417 -24.385  1.00  0.00     0.049 C 
HETATM    8  C16         0       7.285  58.810 -23.360  1.00  0.00     0.093 C 
HETATM    9  C18         0       7.598  58.296 -22.108  1.00  0.00     0.048 C 
HETATM   10  C19         0       8.883  57.849 -21.829  1.00  0.00     0.096 C 
HETATM   11  C21         0       9.845  57.900 -22.801  1.00  0.00     0.084 C 
ENDROOT
BRANCH  10  12
HETATM   12  O20         0       9.298  57.755 -20.504  1.00  0.00    -0.359 OA
HETATM   13  H20         0       9.828  57.007 -20.256  1.00  0.00     0.218 HD
ENDBRANCH  10  12
BRANCH   4  14
HETATM   14  C5          0      12.532  58.368 -25.899  1.00  0.00     0.025 C 
HETATM   15  C6          0      13.176  59.596 -25.830  1.00  0.00     0.004 C 
HETATM   16  C7          0      14.485  59.664 -26.295  1.00  0.00     0.026 C 
HETATM   17  C8          0      15.090  58.586 -26.932  1.00  0.00     0.112 C 
HETATM   18  C10         0      14.207  57.680 -27.504  1.00  0.00     0.112 C 
HETATM   19  C12         0      12.931  57.571 -26.964  1.00  0.00     0.028 C 
BRANCH  17  20
HETATM   20  O9          0      16.448  58.356 -26.800  1.00  0.00    -0.357 OA
HETATM   21  H9          0      16.915  58.413 -25.974  1.00  0.00     0.218 HD
ENDBRANCH  17  20
BRANCH  18  22
HETATM   22  O11         0      14.754  56.692 -28.309  1.00  0.00    -0.357 OA
HETATM   23  H11         0      15.115  56.968 -29.144  1.00  0.00     0.218 HD
ENDBRANCH  18  22
ENDBRANCH   4  14
BRANCH   8  24
HETATM   24  O17         0       6.407  59.888 -23.514  1.00  0.00    -0.359 OA
HETATM   25  H17         0       6.355  60.585 -22.871  1.00  0.00     0.218 HD
ENDBRANCH   8  24
TORSDOF 5
ENDMDL
MODEL 2
REMARK VINA RESULT:      -5.2      2.954      5.334
REMARK  5 active torsions:
REMARK  status: ('A' for Active; 'I' for Inactive)
REMARK    1  A    between atoms: C4_4  and  C5_5 
REMARK    2  A    between atoms: C8_8  and  O9_9 
REMARK    3  A    between atoms: C10_11  and  O11_12 
REMARK    4  A    between atoms: C16_18  and  O17_19 
REMARK    5  A    between atoms: C19_22  and  O20_23 
ROOT
HETATM    1  O1          0       5.276  57.695 -25.940  1.00  0.00    -0.286 OA
HETATM    2  C2          0       5.894  58.131 -24.930  1.00  0.00     0.201 C 
HETATM    3  C3          0       7.272  58.253 -24.889  1.00  0.00     0.067 C 
HETATM    4  C4          0       7.935  58.640 -23.730  1.00  0.00     0.103 C 
HETATM    5  O13         0       7.222  58.914 -22.652  1.00  0.00    -0.307 OA
HETATM    6  C14         0       5.914  58.778 -22.626  1.00  0.00     0.107 C 
HETATM    7  C15         0       5.214  58.672 -21.433  1.00  0.00     0.049 C 
HETATM    8  C16         0       3.882  58.276 -21.411  1.00  0.00     0.093 C 
HETATM    9  C18         0       3.179  58.515 -22.586  1.00  0.00     0.048 C 
HETATM   10  C19         0       3.851  58.673 -23.791  1.00  0.00     0.096 C 
HETATM   11  C21         0       5.218  58.610 -23.819  1.00  0.00     0.084 C 
ENDROOT
BRANCH  10  12
HETATM   12  O20         0       3.165  58.474 -24.984  1.00  0.00    -0.359 OA
HETATM   13  H20         0       3.125  59.195 -25.601  1.00  0.00     0.218 HD
ENDBRANCH  10  12
BRANCH   4  14
HETATM   14  C5          0       9.316  58.181 -23.563  1.00  0.00     0.025 C 
HETATM   15  C6          0      10.260  58.255 -24.577  1.00  0.00     0.004 C 
HETATM   16  C7          0      11.562  58.590 -24.221  1.00  0.00     0.026 C 
HETATM   17  C8          0      11.946  58.716 -22.890  1.00  0.00     0.112 C 
HETATM   18  C10         0      11.146  58.025 -21.989  1.00  0.00     0.112 C 
HETATM   19  C12         0       9.823  57.778 -22.335  1.00  0.00     0.028 C 
BRANCH  17  20
HETATM   20  O9          0      12.914  59.630 -22.515  1.00  0.00    -0.357 OA
HETATM   21  H9          0      12.736  60.548 -22.347  1.00  0.00     0.218 HD
ENDBRANCH  17  20
BRANCH  18  22
HETATM   22  O11         0      11.590  57.961 -20.676  1.00  0.00    -0.357 OA
HETATM   23  H11         0      11.493  57.128 -20.229  1.00  0.00     0.218 HD
ENDBRANCH  18  22
ENDBRANCH   4  14
BRANCH   8  24
HETATM   24  O17         0       3.394  57.412 -20.425  1.00  0.00    -0.359 OA
HETATM   25  H17         0       2.983  56.584 -20.645  1.00  0.00     0.218 HD
ENDBRANCH   8  24
TORSDOF 5
ENDMDL
MODEL 3
REMARK VINA RESULT:      -5.1      2.236      4.410
REMARK  5 active torsions:
REMARK  status: ('A' for Active; 'I' for Inactive)
REMARK    1  A    between atoms: C4_4  and  C5_5 
REMARK    2  A    between atoms: C8_8  and  O9_9 
REMARK    3  A    between atoms: C10_11  and  O11_12 
REMARK    4  A    between atoms: C16_18  and  O17_19 
REMARK    5  A    between atoms: C19_22  and  O20_23 
ROOT
HETATM    1  O1          0       5.698  57.158 -25.982  1.00  0.00    -0.286 OA
HETATM    2  C2          0       6.445  57.790 -25.186  1.00  0.00     0.201 C 
HETATM    3  C3          0       7.810  57.918 -25.379  1.00  0.00     0.067 C 
HETATM    4  C4          0       8.625  58.532 -24.434  1.00  0.00     0.103 C 
HETATM    5  O13         0       8.070  59.019 -23.338  1.00  0.00    -0.307 OA
HETATM    6  C14         0       6.786  58.891 -23.088  1.00  0.00     0.107 C 
HETATM    7  C15         0       6.273  59.029 -21.806  1.00  0.00     0.049 C 
HETATM    8  C16         0       4.972  58.645 -21.504  1.00  0.00     0.093 C 
HETATM    9  C18         0       4.096  58.640 -22.583  1.00  0.00     0.048 C 
HETATM   10  C19         0       4.578  58.551 -23.882  1.00  0.00     0.096 C 
HETATM   11  C21         0       5.926  58.485 -24.104  1.00  0.00     0.084 C 
ENDROOT
BRANCH  10  12
HETATM   12  O20         0       3.728  58.114 -24.894  1.00  0.00    -0.359 OA
HETATM   13  H20         0       4.067  57.482 -25.517  1.00  0.00     0.218 HD
ENDBRANCH  10  12
BRANCH   4  14
HETATM   14  C5          0      10.028  58.117 -24.390  1.00  0.00     0.025 C 
HETATM   15  C6          0      10.655  57.470 -25.445  1.00  0.00     0.004 C 
HETATM   16  C7          0      11.977  57.807 -25.715  1.00  0.00     0.026 C 
HETATM   17  C8          0      12.696  58.660 -24.883  1.00  0.00     0.112 C 
HETATM   18  C10         0      12.223  58.734 -23.580  1.00  0.00     0.112 C 
HETATM   19  C12         0      10.877  58.474 -23.350  1.00  0.00     0.028 C 
BRANCH  17  20
HETATM   20  O9          0      13.661  59.506 -25.400  1.00  0.00    -0.357 OA
HETATM   21  H9          0      14.054  60.219 -24.910  1.00  0.00     0.218 HD
ENDBRANCH  17  20
BRANCH  18  22
HETATM   22  O11         0      13.010  59.417 -22.664  1.00  0.00    -0.357 OA
HETATM   23  H11         0      12.928  59.162 -21.752  1.00  0.00     0.218 HD
ENDBRANCH  18  22
ENDBRANCH   4  14
BRANCH   8  24
HETATM   24  O17         0       4.663  57.999 -20.303  1.00  0.00    -0.359 OA
HETATM   25  H17         0       5.288  57.435 -19.864  1.00  0.00     0.218 HD
ENDBRANCH   8  24
TORSDOF 5
ENDMDL
MODEL 4
REMARK VINA RESULT:      -5.0      1.591      3.096
REMARK  5 active torsions:
REMARK  status: ('A' for Active; 'I' for Inactive)
REMARK    1  A    between atoms: C4_4  and  C5_5 
REMARK    2  A    between atoms: C8_8  and  O9_9 
REMARK    3  A    between atoms: C10_11  and  O11_12 
REMARK    4  A    between atoms: C16_18  and  O17_19 
REMARK    5  A    between atoms: C19_22  and  O20_23 
ROOT
HETATM    1  O1          0       9.020  58.324 -23.843  1.00  0.00    -0.286 OA
HETATM    2  C2          0      10.268  58.452 -23.718  1.00  0.00     0.201 C 
HETATM    3  C3          0      11.079  58.932 -24.732  1.00  0.00     0.067 C 
HETATM    4  C4          0      12.463  58.966 -24.605  1.00  0.00     0.103 C 
HETATM    5  O13         0      13.007  58.546 -23.476  1.00  0.00    -0.307 OA
HETATM    6  C14         0      12.286  58.045 -22.497  1.00  0.00     0.107 C 
HETATM    7  C15         0      12.849  57.252 -21.507  1.00  0.00     0.049 C 
HETATM    8  C16         0      12.056  56.523 -20.629  1.00  0.00     0.093 C 
HETATM    9  C18         0      10.772  57.022 -20.444  1.00  0.00     0.048 C 
HETATM   10  C19         0      10.197  57.857 -21.393  1.00  0.00     0.096 C 
HETATM   11  C21         0      10.905  58.204 -22.511  1.00  0.00     0.084 C 
ENDROOT
BRANCH  10  12
HETATM   12  O20         0       8.812  57.992 -21.429  1.00  0.00    -0.359 OA
HETATM   13  H20         0       8.396  58.494 -20.739  1.00  0.00     0.218 HD
ENDBRANCH  10  12
BRANCH   4  14
HETATM   14  C5          0      13.251  58.895 -25.837  1.00  0.00     0.025 C 
HETATM   15  C6          0      14.089  59.919 -26.254  1.00  0.00     0.004 C 
HETATM   16  C7          0      15.298  59.563 -26.843  1.00  0.00     0.026 C 
HETATM   17  C8          0      15.607  58.237 -27.131  1.00  0.00     0.112 C 
HETATM   18  C10         0      14.506  57.402 -27.269  1.00  0.00     0.112 C 
HETATM   19  C12         0      13.335  57.738 -26.600  1.00  0.00     0.028 C 
BRANCH  17  20
HETATM   20  O9          0      16.912  57.783 -27.064  1.00  0.00    -0.357 OA
HETATM   21  H9          0      17.155  56.917 -26.758  1.00  0.00     0.218 HD
ENDBRANCH  17  20
BRANCH  18  22
HETATM   22  O11         0      14.746  56.119 -27.740  1.00  0.00    -0.357 OA
HETATM   23  H11         0      14.659  55.409 -27.115  1.00  0.00     0.218 HD
ENDBRANCH  18  22
ENDBRANCH   4  14
BRANCH   8  24
HETATM   24  O17         0      12.403  55.224 -20.240  1.00  0.00    -0.359 OA
HETATM   25  H17         0      13.000  54.692 -20.753  1.00  0.00     0.218 HD
ENDBRANCH   8  24
TORSDOF 5
ENDMDL
MODEL 5
REMARK VINA RESULT:      -4.8      2.270      7.359
REMARK  5 active torsions:
REMARK  status: ('A' for Active; 'I' for Inactive)
REMARK    1  A    between atoms: C4_4  and  C5_5 
REMARK    2  A    between atoms: C8_8  and  O9_9 
REMARK    3  A    between atoms: C10_11  and  O11_12 
REMARK    4  A    between atoms: C16_18  and  O17_19 
REMARK    5  A    between atoms: C19_22  and  O20_23 
ROOT
HETATM    1  O1          0      11.454  57.043 -20.636  1.00  0.00    -0.286 OA
HETATM    2  C2          0      10.610  57.590 -21.398  1.00  0.00     0.201 C 
HETATM    3  C3          0       9.270  57.710 -21.071  1.00  0.00     0.067 C 
HETATM    4  C4          0       8.344  58.225 -21.971  1.00  0.00     0.103 C 
HETATM    5  O13         0       8.766  58.624 -23.157  1.00  0.00    -0.307 OA
HETATM    6  C14         0      10.020  58.498 -23.532  1.00  0.00     0.107 C 
HETATM    7  C15         0      10.390  58.533 -24.869  1.00  0.00     0.049 C 
HETATM    8  C16         0      11.662  58.148 -25.275  1.00  0.00     0.093 C 
HETATM    9  C18         0      12.647  58.253 -24.300  1.00  0.00     0.048 C 
HETATM   10  C19         0      12.308  58.269 -22.954  1.00  0.00     0.096 C 
HETATM   11  C21         0      10.992  58.197 -22.584  1.00  0.00     0.084 C 
ENDROOT
BRANCH  10  12
HETATM   12  O20         0      13.270  57.937 -22.006  1.00  0.00    -0.359 OA
HETATM   13  H20         0      14.162  57.802 -22.305  1.00  0.00     0.218 HD
ENDBRANCH  10  12
BRANCH   4  14
HETATM   14  C5          0       6.955  57.782 -21.829  1.00  0.00     0.025 C 
HETATM   15  C6          0       6.502  57.068 -20.729  1.00  0.00     0.004 C 
HETATM   16  C7          0       5.230  57.362 -20.248  1.00  0.00     0.026 C 
HETATM   17  C8          0       4.383  58.240 -20.916  1.00  0.00     0.112 C 
HETATM   18  C10         0       4.655  58.392 -22.269  1.00  0.00     0.112 C 
HETATM   19  C12         0       5.955  58.173 -22.710  1.00  0.00     0.028 C 
BRANCH  17  20
HETATM   20  O9          0       3.495  59.038 -20.217  1.00  0.00    -0.357 OA
HETATM   21  H9          0       2.718  59.425 -20.602  1.00  0.00     0.218 HD
ENDBRANCH  17  20
BRANCH  18  22
HETATM   22  O11         0       3.731  59.104 -23.020  1.00  0.00    -0.357 OA
HETATM   23  H11         0       2.845  59.151 -22.680  1.00  0.00     0.218 HD
ENDBRANCH  18  22
ENDBRANCH   4  14
BRANCH   8  24
HETATM   24  O17         0      11.861  57.405 -26.444  1.00  0.00    -0.359 OA
HETATM   25  H17         0      12.262  57.787 -27.216  1.00  0.00     0.218 HD
ENDBRANCH   8  24
TORSDOF 5
ENDMDL
MODEL 6
REMARK VINA RESULT:      -4.7      1.857      7.248
REMARK  5 active torsions:
REMARK  status: ('A' for Active; 'I' for Inactive)
REMARK    1  A    between atoms: C4_4  and  C5_5 
REMARK    2  A    between atoms: C8_8  and  O9_9 
REMARK    3  A    between atoms: C10_11  and  O11_12 
REMARK    4  A    between atoms: C16_18  and  O17_19 
REMARK    5  A    between atoms: C19_22  and  O20_23 
ROOT
HETATM    1  O1          0       9.292  56.641 -27.427  1.00  0.00    -0.286 OA
HETATM    2  C2          0       9.622  57.079 -26.291  1.00  0.00     0.201 C 
HETATM    3  C3          0       8.711  57.269 -25.266  1.00  0.00     0.067 C 
HETATM    4  C4          0       9.083  57.849 -24.059  1.00  0.00     0.103 C 
HETATM    5  O13         0      10.344  58.207 -23.888  1.00  0.00    -0.307 OA
HETATM    6  C14         0      11.241  58.083 -24.842  1.00  0.00     0.107 C 
HETATM    7  C15         0      12.428  58.800 -24.826  1.00  0.00     0.049 C 
HETATM    8  C16         0      13.249  58.863 -25.946  1.00  0.00     0.093 C 
HETATM    9  C18         0      13.115  57.801 -26.832  1.00  0.00     0.048 C 
HETATM   10  C19         0      11.958  57.033 -26.843  1.00  0.00     0.096 C 
HETATM   11  C21         0      10.949  57.313 -25.963  1.00  0.00     0.084 C 
ENDROOT
BRANCH  10  12
HETATM   12  O20         0      11.648  56.287 -27.975  1.00  0.00    -0.359 OA
HETATM   13  H20         0      10.756  55.974 -28.072  1.00  0.00     0.218 HD
ENDBRANCH  10  12
BRANCH   4  14
HETATM   14  C5          0       8.043  58.552 -23.305  1.00  0.00     0.025 C 
HETATM   15  C6          0       7.100  59.371 -23.908  1.00  0.00     0.004 C 
HETATM   16  C7          0       5.803  59.338 -23.407  1.00  0.00     0.026 C 
HETATM   17  C8          0       5.481  58.618 -22.262  1.00  0.00     0.112 C 
HETATM   18  C10         0       6.551  58.379 -21.409  1.00  0.00     0.112 C 
HETATM   19  C12         0       7.830  58.333 -21.950  1.00  0.00     0.028 C 
BRANCH  17  20
HETATM   20  O9          0       4.240  58.025 -22.122  1.00  0.00    -0.357 OA
HETATM   21  H9          0       3.528  58.401 -21.618  1.00  0.00     0.218 HD
ENDBRANCH  17  20
BRANCH  18  22
HETATM   22  O11         0       6.254  57.833 -20.167  1.00  0.00    -0.357 OA
HETATM   23  H11         0       6.430  56.907 -20.052  1.00  0.00     0.218 HD
ENDBRANCH  18  22
ENDBRANCH   4  14
BRANCH   8  24
HETATM   24  O17         0      13.893  60.050 -26.312  1.00  0.00    -0.359 OA
HETATM   25  H17         0      14.234  60.182 -27.189  1.00  0.00     0.218 HD
ENDBRANCH   8  24
TORSDOF 5
ENDMDL
MODEL 7
REMARK VINA RESULT:      -4.4      2.449      7.179
REMARK  5 active torsions:
REMARK  status: ('A' for Active; 'I' for Inactive)
REMARK    1  A    between atoms: C4_4  and  C5_5 
REMARK    2  A    between atoms: C8_8  and  O9_9 
REMARK    3  A    between atoms: C10_11  and  O11_12 
REMARK    4  A    between atoms: C16_18  and  O17_19 
REMARK    5  A    between atoms: C19_22  and  O20_23 
ROOT
HETATM    1  O1          0      10.544  56.178 -29.460  1.00  0.00    -0.286 OA
HETATM    2  C2          0      11.431  56.697 -28.728  1.00  0.00     0.201 C 
HETATM    3  C3          0      11.249  56.924 -27.375  1.00  0.00     0.067 C 
HETATM    4  C4          0      12.203  57.590 -26.613  1.00  0.00     0.103 C 
HETATM    5  O13         0      13.315  57.993 -27.200  1.00  0.00    -0.307 OA
HETATM    6  C14         0      13.522  57.836 -28.489  1.00  0.00     0.107 C 
HETATM    7  C15         0      14.466  58.587 -29.175  1.00  0.00     0.049 C 
HETATM    8  C16         0      14.505  58.602 -30.564  1.00  0.00     0.093 C 
HETATM    9  C18         0      13.958  57.483 -31.179  1.00  0.00     0.048 C 
HETATM   10  C19         0      13.045  56.683 -30.505  1.00  0.00     0.096 C 
HETATM   11  C21         0      12.695  56.989 -29.219  1.00  0.00     0.084 C 
ENDROOT
BRANCH  10  12
HETATM   12  O20         0      12.195  55.858 -31.235  1.00  0.00    -0.359 OA
HETATM   13  H20         0      12.409  54.935 -31.290  1.00  0.00     0.218 HD
ENDBRANCH  10  12
BRANCH   4  14
HETATM   14  C5          0      11.731  58.308 -25.428  1.00  0.00     0.025 C 
HETATM   15  C6          0      10.395  58.350 -25.056  1.00  0.00     0.004 C 
HETATM   16  C7          0      10.101  58.288 -23.698  1.00  0.00     0.026 C 
HETATM   17  C8          0      11.103  58.318 -22.733  1.00  0.00     0.112 C 
HETATM   18  C10         0      12.292  58.900 -23.150  1.00  0.00     0.112 C 
HETATM   19  C12         0      12.601  58.874 -24.505  1.00  0.00     0.028 C 
BRANCH  17  20
HETATM   20  O9          0      10.962  57.626 -21.543  1.00  0.00    -0.357 OA
HETATM   21  H9          0      10.847  56.684 -21.491  1.00  0.00     0.218 HD
ENDBRANCH  17  20
BRANCH  18  22
HETATM   22  O11         0      13.255  59.127 -22.177  1.00  0.00    -0.357 OA
HETATM   23  H11         0      12.948  59.418 -21.327  1.00  0.00     0.218 HD
ENDBRANCH  18  22
ENDBRANCH   4  14
BRANCH   8  24
HETATM   24  O17         0      14.758  59.782 -31.273  1.00  0.00    -0.359 OA
HETATM   25  H17         0      14.301  59.987 -32.080  1.00  0.00     0.218 HD
ENDBRANCH   8  24
TORSDOF 5
ENDMDL
MODEL 8
REMARK VINA RESULT:      -4.3      2.998      4.077
REMARK  5 active torsions:
REMARK  status: ('A' for Active; 'I' for Inactive)
REMARK    1  A    between atoms: C4_4  and  C5_5 
REMARK    2  A    between atoms: C8_8  and  O9_9 
REMARK    3  A    between atoms: C10_11  and  O11_12 
REMARK    4  A    between atoms: C16_18  and  O17_19 
REMARK    5  A    between atoms: C19_22  and  O20_23 
ROOT
HETATM    1  O1          0       7.608  54.557 -21.134  1.00  0.00    -0.286 OA
HETATM    2  C2          0       7.608  55.456 -22.020  1.00  0.00     0.201 C 
HETATM    3  C3          0       8.714  55.735 -22.805  1.00  0.00     0.067 C 
HETATM    4  C4          0       8.720  56.797 -23.702  1.00  0.00     0.103 C 
HETATM    5  O13         0       7.633  57.540 -23.815  1.00  0.00    -0.307 OA
HETATM    6  C14         0       6.571  57.341 -23.066  1.00  0.00     0.107 C 
HETATM    7  C15         0       5.609  58.325 -22.887  1.00  0.00     0.049 C 
HETATM    8  C16         0       4.631  58.208 -21.906  1.00  0.00     0.093 C 
HETATM    9  C18         0       4.344  56.906 -21.515  1.00  0.00     0.048 C 
HETATM   10  C19         0       5.266  55.888 -21.722  1.00  0.00     0.096 C 
HETATM   11  C21         0       6.459  56.166 -22.331  1.00  0.00     0.084 C 
ENDROOT
BRANCH  10  12
HETATM   12  O20         0       5.175  54.724 -20.965  1.00  0.00    -0.359 OA
HETATM   13  H20         0       4.311  54.366 -20.800  1.00  0.00     0.218 HD
ENDBRANCH  10  12
BRANCH   4  14
HETATM   14  C5          0      10.018  57.394 -24.024  1.00  0.00     0.025 C 
HETATM   15  C6          0      10.185  58.752 -24.255  1.00  0.00     0.004 C 
HETATM   16  C7          0      11.343  59.351 -23.770  1.00  0.00     0.026 C 
HETATM   17  C8          0      12.363  58.604 -23.192  1.00  0.00     0.112 C 
HETATM   18  C10         0      12.392  57.269 -23.573  1.00  0.00     0.112 C 
HETATM   19  C12         0      11.203  56.671 -23.974  1.00  0.00     0.028 C 
BRANCH  17  20
HETATM   20  O9          0      13.132  59.127 -22.167  1.00  0.00    -0.357 OA
HETATM   21  H9          0      13.204  60.056 -21.983  1.00  0.00     0.218 HD
ENDBRANCH  17  20
BRANCH  18  22
HETATM   22  O11         0      13.495  56.526 -23.178  1.00  0.00    -0.357 OA
HETATM   23  H11         0      14.326  56.739 -23.587  1.00  0.00     0.218 HD
ENDBRANCH  18  22
ENDBRANCH   4  14
BRANCH   8  24
HETATM   24  O17         0       4.226  59.311 -21.146  1.00  0.00    -0.359 OA
HETATM   25  H17         0       3.664  59.213 -20.386  1.00  0.00     0.218 HD
ENDBRANCH   8  24
TORSDOF 5
ENDMDL
MODEL 9
REMARK VINA RESULT:      -4.3      2.995      4.742
REMARK  5 active torsions:
REMARK  status: ('A' for Active; 'I' for Inactive)
REMARK    1  A    between atoms: C4_4  and  C5_5 
REMARK    2  A    between atoms: C8_8  and  O9_9 
REMARK    3  A    between atoms: C10_11  and  O11_12 
REMARK    4  A    between atoms: C16_18  and  O17_19 
REMARK    5  A    between atoms: C19_22  and  O20_23 
ROOT
HETATM    1  O1          0       6.741  54.524 -22.085  1.00  0.00    -0.286 OA
HETATM    2  C2          0       7.039  55.732 -22.296  1.00  0.00     0.201 C 
HETATM    3  C3          0       8.340  56.159 -22.501  1.00  0.00     0.067 C 
HETATM    4  C4          0       8.653  57.507 -22.628  1.00  0.00     0.103 C 
HETATM    5  O13         0       7.675  58.394 -22.571  1.00  0.00    -0.307 OA
HETATM    6  C14         0       6.428  58.045 -22.341  1.00  0.00     0.107 C 
HETATM    7  C15         0       5.486  58.957 -21.888  1.00  0.00     0.049 C 
HETATM    8  C16         0       4.251  58.540 -21.406  1.00  0.00     0.093 C 
HETATM    9  C18         0       3.821  57.308 -21.883  1.00  0.00     0.048 C 
HETATM   10  C19         0       4.732  56.389 -22.387  1.00  0.00     0.096 C 
HETATM   11  C21         0       6.062  56.706 -22.430  1.00  0.00     0.084 C 
ENDROOT
BRANCH  10  12
HETATM   12  O20         0       4.380  55.044 -22.447  1.00  0.00    -0.359 OA
HETATM   13  H20         0       3.895  54.745 -23.207  1.00  0.00     0.218 HD
ENDBRANCH  10  12
BRANCH   4  14
HETATM   14  C5          0      10.003  57.921 -22.241  1.00  0.00     0.025 C 
HETATM   15  C6          0      10.569  57.593 -21.018  1.00  0.00     0.004 C 
HETATM   16  C7          0      11.923  57.274 -20.998  1.00  0.00     0.026 C 
HETATM   17  C8          0      12.720  57.407 -22.130  1.00  0.00     0.112 C 
HETATM   18  C10         0      12.242  58.307 -23.073  1.00  0.00     0.112 C 
HETATM   19  C12         0      10.873  58.543 -23.127  1.00  0.00     0.028 C 
BRANCH  17  20
HETATM   20  O9          0      13.776  56.543 -22.359  1.00  0.00    -0.357 OA
HETATM   21  H9          0      13.792  55.904 -23.062  1.00  0.00     0.218 HD
ENDBRANCH  17  20
BRANCH  18  22
HETATM   22  O11         0      13.087  58.619 -24.129  1.00  0.00    -0.357 OA
HETATM   23  H11         0      13.618  59.402 -24.038  1.00  0.00     0.218 HD
ENDBRANCH  18  22
ENDBRANCH   4  14
BRANCH   8  24
HETATM   24  O17         0       3.662  59.143 -20.289  1.00  0.00    -0.359 OA
HETATM   25  H17         0       3.543  60.084 -20.235  1.00  0.00     0.218 HD
ENDBRANCH   8  24
TORSDOF 5
ENDMDL
