MODEL 1
REMARK VINA RESULT:      -5.6      0.000      0.000
REMARK  5 active torsions:
REMARK  status: ('A' for Active; 'I' for Inactive)
REMARK    1  A    between atoms: C4_4  and  C5_5 
REMARK    2  A    between atoms: C8_8  and  O9_9 
REMARK    3  A    between atoms: C10_11  and  O11_12 
REMARK    4  A    between atoms: C16_18  and  O17_19 
REMARK    5  A    between atoms: C19_22  and  O20_23 
ROOT
HETATM    1  O1          0      45.241   6.229  -6.813  1.00  0.00    -0.286 OA
HETATM    2  C2          0      44.790   6.640  -5.709  1.00  0.00     0.201 C 
HETATM    3  C3          0      44.320   7.929  -5.524  1.00  0.00     0.067 C 
HETATM    4  C4          0      43.924   8.388  -4.272  1.00  0.00     0.103 C 
HETATM    5  O13         0      43.983   7.559  -3.245  1.00  0.00    -0.307 OA
HETATM    6  C14         0      44.456   6.337  -3.359  1.00  0.00     0.107 C 
HETATM    7  C15         0      44.891   5.616  -2.256  1.00  0.00     0.049 C 
HETATM    8  C16         0      45.619   4.441  -2.403  1.00  0.00     0.093 C 
HETATM    9  C18         0      45.425   3.778  -3.609  1.00  0.00     0.048 C 
HETATM   10  C19         0      44.947   4.459  -4.720  1.00  0.00     0.096 C 
HETATM   11  C21         0      44.648   5.790  -4.623  1.00  0.00     0.084 C 
ENDROOT
BRANCH  10  12
HETATM   12  O20         0      45.165   3.929  -5.988  1.00  0.00    -0.359 OA
HETATM   13  H20         0      44.418   3.578  -6.458  1.00  0.00     0.218 HD
ENDBRANCH  10  12
BRANCH   4  14
HETATM   14  C5          0      44.025   9.827  -4.023  1.00  0.00     0.025 C 
HETATM   15  C6          0      44.029  10.371  -2.747  1.00  0.00     0.004 C 
HETATM   16  C7          0      44.869  11.455  -2.511  1.00  0.00     0.026 C 
HETATM   17  C8          0      45.580  12.064  -3.539  1.00  0.00     0.112 C 
HETATM   18  C10         0      45.041  11.878  -4.806  1.00  0.00     0.112 C 
HETATM   19  C12         0      44.276  10.742  -5.038  1.00  0.00     0.028 C 
BRANCH  17  20
HETATM   20  O9          0      46.827  12.617  -3.308  1.00  0.00    -0.357 OA
HETATM   21  H9          0      46.962  13.511  -3.014  1.00  0.00     0.218 HD
ENDBRANCH  17  20
BRANCH  18  22
HETATM   22  O11         0      45.599  12.617  -5.840  1.00  0.00    -0.357 OA
HETATM   23  H11         0      45.005  13.151  -6.355  1.00  0.00     0.218 HD
ENDBRANCH  18  22
ENDBRANCH   4  14
BRANCH   8  24
HETATM   24  O17         0      46.698   4.142  -1.564  1.00  0.00    -0.359 OA
HETATM   25  H17         0      47.243   3.378  -1.706  1.00  0.00     0.218 HD
ENDBRANCH   8  24
TORSDOF 5
ENDMDL
MODEL 2
REMARK VINA RESULT:      -4.9      6.192     10.878
REMARK  5 active torsions:
REMARK  status: ('A' for Active; 'I' for Inactive)
REMARK    1  A    between atoms: C4_4  and  C5_5 
REMARK    2  A    between atoms: C8_8  and  O9_9 
REMARK    3  A    between atoms: C10_11  and  O11_12 
REMARK    4  A    between atoms: C16_18  and  O17_19 
REMARK    5  A    between atoms: C19_22  and  O20_23 
ROOT
HETATM    1  O1          0      47.125  16.982  -0.901  1.00  0.00    -0.286 OA
HETATM    2  C2          0      46.553  17.274  -1.987  1.00  0.00     0.201 C 
HETATM    3  C3          0      45.439  16.598  -2.454  1.00  0.00     0.067 C 
HETATM    4  C4          0      44.890  16.873  -3.702  1.00  0.00     0.103 C 
HETATM    5  O13         0      45.441  17.817  -4.444  1.00  0.00    -0.307 OA
HETATM    6  C14         0      46.522  18.463  -4.064  1.00  0.00     0.107 C 
HETATM    7  C15         0      47.323  19.144  -4.969  1.00  0.00     0.049 C 
HETATM    8  C16         0      48.585  19.604  -4.613  1.00  0.00     0.093 C 
HETATM    9  C18         0      48.767  19.825  -3.253  1.00  0.00     0.048 C 
HETATM   10  C19         0      47.953  19.196  -2.321  1.00  0.00     0.096 C 
HETATM   11  C21         0      46.952  18.364  -2.745  1.00  0.00     0.084 C 
ENDROOT
BRANCH  10  12
HETATM   12  O20         0      48.395  19.067  -1.008  1.00  0.00    -0.359 OA
HETATM   13  H20         0      48.230  18.246  -0.561  1.00  0.00     0.218 HD
ENDBRANCH  10  12
BRANCH   4  14
HETATM   14  C5          0      44.162  15.790  -4.366  1.00  0.00     0.025 C 
HETATM   15  C6          0      44.059  15.689  -5.746  1.00  0.00     0.004 C 
HETATM   16  C7          0      44.121  14.417  -6.305  1.00  0.00     0.026 C 
HETATM   17  C8          0      44.148  13.273  -5.514  1.00  0.00     0.112 C 
HETATM   18  C10         0      43.619  13.436  -4.241  1.00  0.00     0.112 C 
HETATM   19  C12         0      43.648  14.703  -3.671  1.00  0.00     0.028 C 
BRANCH  17  20
HETATM   20  O9          0      44.844  12.148  -5.919  1.00  0.00    -0.357 OA
HETATM   21  H9          0      45.744  11.967  -5.673  1.00  0.00     0.218 HD
ENDBRANCH  17  20
BRANCH  18  22
HETATM   22  O11         0      43.449  12.288  -3.480  1.00  0.00    -0.357 OA
HETATM   23  H11         0      43.380  12.402  -2.539  1.00  0.00     0.218 HD
ENDBRANCH  18  22
ENDBRANCH   4  14
BRANCH   8  24
HETATM   24  O17         0      49.667  19.522  -5.496  1.00  0.00    -0.359 OA
HETATM   25  H17         0      50.108  18.699  -5.670  1.00  0.00     0.218 HD
ENDBRANCH   8  24
TORSDOF 5
ENDMDL
MODEL 3
REMARK VINA RESULT:      -4.8     10.301     12.859
REMARK  5 active torsions:
REMARK  status: ('A' for Active; 'I' for Inactive)
REMARK    1  A    between atoms: C4_4  and  C5_5 
REMARK    2  A    between atoms: C8_8  and  O9_9 
REMARK    3  A    between atoms: C10_11  and  O11_12 
REMARK    4  A    between atoms: C16_18  and  O17_19 
REMARK    5  A    between atoms: C19_22  and  O20_23 
ROOT
HETATM    1  O1          0      48.559   7.306 -15.627  1.00  0.00    -0.286 OA
HETATM    2  C2          0      47.751   6.395 -15.955  1.00  0.00     0.201 C 
HETATM    3  C3          0      46.435   6.368 -15.525  1.00  0.00     0.067 C 
HETATM    4  C4          0      45.594   5.300 -15.817  1.00  0.00     0.103 C 
HETATM    5  O13         0      46.066   4.300 -16.540  1.00  0.00    -0.307 OA
HETATM    6  C14         0      47.318   4.258 -16.942  1.00  0.00     0.107 C 
HETATM    7  C15         0      47.918   3.071 -17.337  1.00  0.00     0.049 C 
HETATM    8  C16         0      49.294   2.983 -17.515  1.00  0.00     0.093 C 
HETATM    9  C18         0      49.928   4.187 -17.798  1.00  0.00     0.048 C 
HETATM   10  C19         0      49.333   5.394 -17.458  1.00  0.00     0.096 C 
HETATM   11  C21         0      48.106   5.400 -16.854  1.00  0.00     0.084 C 
ENDROOT
BRANCH  10  12
HETATM   12  O20         0      50.125   6.532 -17.338  1.00  0.00    -0.359 OA
HETATM   13  H20         0      50.979   6.526 -17.754  1.00  0.00     0.218 HD
ENDBRANCH  10  12
BRANCH   4  14
HETATM   14  C5          0      44.495   5.039 -14.885  1.00  0.00     0.025 C 
HETATM   15  C6          0      43.578   4.016 -15.073  1.00  0.00     0.004 C 
HETATM   16  C7          0      43.147   3.322 -13.947  1.00  0.00     0.026 C 
HETATM   17  C8          0      43.510   3.717 -12.663  1.00  0.00     0.112 C 
HETATM   18  C10         0      43.870   5.053 -12.548  1.00  0.00     0.112 C 
HETATM   19  C12         0      44.378   5.699 -13.669  1.00  0.00     0.028 C 
BRANCH  17  20
HETATM   20  O9          0      43.692   2.783 -11.659  1.00  0.00    -0.357 OA
HETATM   21  H9          0      44.023   2.995 -10.794  1.00  0.00     0.218 HD
ENDBRANCH  17  20
BRANCH  18  22
HETATM   22  O11         0      44.058   5.544 -11.264  1.00  0.00    -0.357 OA
HETATM   23  H11         0      43.784   6.440 -11.102  1.00  0.00     0.218 HD
ENDBRANCH  18  22
ENDBRANCH   4  14
BRANCH   8  24
HETATM   24  O17         0      50.011   1.852 -17.107  1.00  0.00    -0.359 OA
HETATM   25  H17         0      49.647   0.978 -17.180  1.00  0.00     0.218 HD
ENDBRANCH   8  24
TORSDOF 5
ENDMDL
MODEL 4
REMARK VINA RESULT:      -4.7      2.094      2.950
REMARK  5 active torsions:
REMARK  status: ('A' for Active; 'I' for Inactive)
REMARK    1  A    between atoms: C4_4  and  C5_5 
REMARK    2  A    between atoms: C8_8  and  O9_9 
REMARK    3  A    between atoms: C10_11  and  O11_12 
REMARK    4  A    between atoms: C16_18  and  O17_19 
REMARK    5  A    between atoms: C19_22  and  O20_23 
ROOT
HETATM    1  O1          0      45.936   5.521  -5.486  1.00  0.00    -0.286 OA
HETATM    2  C2          0      45.009   6.343  -5.722  1.00  0.00     0.201 C 
HETATM    3  C3          0      45.122   7.697  -5.461  1.00  0.00     0.067 C 
HETATM    4  C4          0      44.050   8.565  -5.635  1.00  0.00     0.103 C 
HETATM    5  O13         0      42.905   8.078  -6.079  1.00  0.00    -0.307 OA
HETATM    6  C14         0      42.732   6.794  -6.307  1.00  0.00     0.107 C 
HETATM    7  C15         0      41.468   6.228  -6.380  1.00  0.00     0.049 C 
HETATM    8  C16         0      41.292   4.850  -6.364  1.00  0.00     0.093 C 
HETATM    9  C18         0      42.387   4.114  -6.803  1.00  0.00     0.048 C 
HETATM   10  C19         0      43.660   4.666  -6.787  1.00  0.00     0.096 C 
HETATM   11  C21         0      43.838   5.951  -6.353  1.00  0.00     0.084 C 
ENDROOT
BRANCH  10  12
HETATM   12  O20         0      44.767   3.823  -6.801  1.00  0.00    -0.359 OA
HETATM   13  H20         0      45.604   4.183  -6.530  1.00  0.00     0.218 HD
ENDBRANCH  10  12
BRANCH   4  14
HETATM   14  C5          0      44.029   9.776  -4.813  1.00  0.00     0.025 C 
HETATM   15  C6          0      44.195   9.754  -3.435  1.00  0.00     0.004 C 
HETATM   16  C7          0      44.934  10.782  -2.858  1.00  0.00     0.026 C 
HETATM   17  C8          0      45.379  11.867  -3.604  1.00  0.00     0.112 C 
HETATM   18  C10         0      44.652  12.114  -4.761  1.00  0.00     0.112 C 
HETATM   19  C12         0      43.992  11.050  -5.365  1.00  0.00     0.028 C 
BRANCH  17  20
HETATM   20  O9          0      46.577  12.492  -3.302  1.00  0.00    -0.357 OA
HETATM   21  H9          0      46.637  13.339  -2.876  1.00  0.00     0.218 HD
ENDBRANCH  17  20
BRANCH  18  22
HETATM   22  O11         0      44.932  13.291  -5.441  1.00  0.00    -0.357 OA
HETATM   23  H11         0      44.224  13.675  -5.944  1.00  0.00     0.218 HD
ENDBRANCH  18  22
ENDBRANCH   4  14
BRANCH   8  24
HETATM   24  O17         0      40.244   4.256  -5.654  1.00  0.00    -0.359 OA
HETATM   25  H17         0      40.178   3.314  -5.555  1.00  0.00     0.218 HD
ENDBRANCH   8  24
TORSDOF 5
ENDMDL
MODEL 5
REMARK VINA RESULT:      -4.7      1.613      2.038
REMARK  5 active torsions:
REMARK  status: ('A' for Active; 'I' for Inactive)
REMARK    1  A    between atoms: C4_4  and  C5_5 
REMARK    2  A    between atoms: C8_8  and  O9_9 
REMARK    3  A    between atoms: C10_11  and  O11_12 
REMARK    4  A    between atoms: C16_18  and  O17_19 
REMARK    5  A    between atoms: C19_22  and  O20_23 
ROOT
HETATM    1  O1          0      45.275   6.093  -6.613  1.00  0.00    -0.286 OA
HETATM    2  C2          0      44.866   6.842  -5.684  1.00  0.00     0.201 C 
HETATM    3  C3          0      44.235   8.052  -5.917  1.00  0.00     0.067 C 
HETATM    4  C4          0      43.887   8.905  -4.876  1.00  0.00     0.103 C 
HETATM    5  O13         0      44.152   8.534  -3.636  1.00  0.00    -0.307 OA
HETATM    6  C14         0      44.783   7.413  -3.361  1.00  0.00     0.107 C 
HETATM    7  C15         0      45.409   7.207  -2.140  1.00  0.00     0.049 C 
HETATM    8  C16         0      46.282   6.143  -1.947  1.00  0.00     0.093 C 
HETATM    9  C18         0      46.081   5.059  -2.793  1.00  0.00     0.048 C 
HETATM   10  C19         0      45.416   5.220  -4.001  1.00  0.00     0.096 C 
HETATM   11  C21         0      44.940   6.453  -4.355  1.00  0.00     0.084 C 
ENDROOT
BRANCH  10  12
HETATM   12  O20         0      45.598   4.277  -5.008  1.00  0.00    -0.359 OA
HETATM   13  H20         0      44.937   3.603  -5.111  1.00  0.00     0.218 HD
ENDBRANCH  10  12
BRANCH   4  14
HETATM   14  C5          0      43.803  10.334  -5.181  1.00  0.00     0.025 C 
HETATM   15  C6          0      42.725  10.899  -5.847  1.00  0.00     0.004 C 
HETATM   16  C7          0      42.296  12.155  -5.430  1.00  0.00     0.026 C 
HETATM   17  C8          0      42.996  12.885  -4.475  1.00  0.00     0.112 C 
HETATM   18  C10         0      44.336  12.544  -4.352  1.00  0.00     0.112 C 
HETATM   19  C12         0      44.724  11.254  -4.696  1.00  0.00     0.028 C 
BRANCH  17  20
HETATM   20  O9          0      42.331  13.719  -3.593  1.00  0.00    -0.357 OA
HETATM   21  H9          0      41.970  13.430  -2.763  1.00  0.00     0.218 HD
ENDBRANCH  17  20
BRANCH  18  22
HETATM   22  O11         0      45.122  13.363  -3.554  1.00  0.00    -0.357 OA
HETATM   23  H11         0      45.897  13.739  -3.955  1.00  0.00     0.218 HD
ENDBRANCH  18  22
ENDBRANCH   4  14
BRANCH   8  24
HETATM   24  O17         0      47.460   6.291  -1.208  1.00  0.00    -0.359 OA
HETATM   25  H17         0      48.292   6.481  -1.626  1.00  0.00     0.218 HD
ENDBRANCH   8  24
TORSDOF 5
ENDMDL
MODEL 6
REMARK VINA RESULT:      -4.6      1.714      2.457
REMARK  5 active torsions:
REMARK  status: ('A' for Active; 'I' for Inactive)
REMARK    1  A    between atoms: C4_4  and  C5_5 
REMARK    2  A    between atoms: C8_8  and  O9_9 
REMARK    3  A    between atoms: C10_11  and  O11_12 
REMARK    4  A    between atoms: C16_18  and  O17_19 
REMARK    5  A    between atoms: C19_22  and  O20_23 
ROOT
HETATM    1  O1          0      42.509   8.874  -6.197  1.00  0.00    -0.286 OA
HETATM    2  C2          0      43.054   8.620  -5.088  1.00  0.00     0.201 C 
HETATM    3  C3          0      43.272   9.586  -4.121  1.00  0.00     0.067 C 
HETATM    4  C4          0      43.966   9.301  -2.950  1.00  0.00     0.103 C 
HETATM    5  O13         0      44.406   8.070  -2.757  1.00  0.00    -0.307 OA
HETATM    6  C14         0      44.259   7.125  -3.659  1.00  0.00     0.107 C 
HETATM    7  C15         0      45.041   5.979  -3.652  1.00  0.00     0.049 C 
HETATM    8  C16         0      45.061   5.113  -4.738  1.00  0.00     0.093 C 
HETATM    9  C18         0      43.927   5.150  -5.540  1.00  0.00     0.048 C 
HETATM   10  C19         0      43.096   6.262  -5.536  1.00  0.00     0.096 C 
HETATM   11  C21         0      43.388   7.324  -4.725  1.00  0.00     0.084 C 
ENDROOT
BRANCH  10  12
HETATM   12  O20         0      42.247   6.480  -6.617  1.00  0.00    -0.359 OA
HETATM   13  H20         0      42.591   6.952  -7.365  1.00  0.00     0.218 HD
ENDBRANCH  10  12
BRANCH   4  14
HETATM   14  C5          0      44.665  10.410  -2.299  1.00  0.00     0.025 C 
HETATM   15  C6          0      45.745  10.223  -1.448  1.00  0.00     0.004 C 
HETATM   16  C7          0      46.787  11.142  -1.518  1.00  0.00     0.026 C 
HETATM   17  C8          0      46.702  12.283  -2.307  1.00  0.00     0.112 C 
HETATM   18  C10         0      45.408  12.694  -2.594  1.00  0.00     0.112 C 
HETATM   19  C12         0      44.398  11.739  -2.602  1.00  0.00     0.028 C 
BRANCH  17  20
HETATM   20  O9          0      47.828  12.811  -2.913  1.00  0.00    -0.357 OA
HETATM   21  H9          0      48.628  13.024  -2.447  1.00  0.00     0.218 HD
ENDBRANCH  17  20
BRANCH  18  22
HETATM   22  O11         0      45.263  13.926  -3.216  1.00  0.00    -0.357 OA
HETATM   23  H11         0      45.934  14.577  -3.043  1.00  0.00     0.218 HD
ENDBRANCH  18  22
ENDBRANCH   4  14
BRANCH   8  24
HETATM   24  O17         0      46.250   4.516  -5.173  1.00  0.00    -0.359 OA
HETATM   25  H17         0      46.662   3.812  -4.686  1.00  0.00     0.218 HD
ENDBRANCH   8  24
TORSDOF 5
ENDMDL
MODEL 7
REMARK VINA RESULT:      -4.5      1.860      2.711
REMARK  5 active torsions:
REMARK  status: ('A' for Active; 'I' for Inactive)
REMARK    1  A    between atoms: C4_4  and  C5_5 
REMARK    2  A    between atoms: C8_8  and  O9_9 
REMARK    3  A    between atoms: C10_11  and  O11_12 
REMARK    4  A    between atoms: C16_18  and  O17_19 
REMARK    5  A    between atoms: C19_22  and  O20_23 
ROOT
HETATM    1  O1          0      41.466   7.096  -2.733  1.00  0.00    -0.286 OA
HETATM    2  C2          0      42.665   7.380  -2.462  1.00  0.00     0.201 C 
HETATM    3  C3          0      43.048   8.607  -1.947  1.00  0.00     0.067 C 
HETATM    4  C4          0      44.386   8.930  -1.754  1.00  0.00     0.103 C 
HETATM    5  O13         0      45.307   8.030  -2.053  1.00  0.00    -0.307 OA
HETATM    6  C14         0      45.000   6.865  -2.579  1.00  0.00     0.107 C 
HETATM    7  C15         0      45.938   6.097  -3.253  1.00  0.00     0.049 C 
HETATM    8  C16         0      45.559   5.002  -4.020  1.00  0.00     0.093 C 
HETATM    9  C18         0      44.349   4.422  -3.657  1.00  0.00     0.048 C 
HETATM   10  C19         0      43.406   5.147  -2.941  1.00  0.00     0.096 C 
HETATM   11  C21         0      43.676   6.438  -2.576  1.00  0.00     0.084 C 
ENDROOT
BRANCH  10  12
HETATM   12  O20         0      42.076   4.740  -2.962  1.00  0.00    -0.359 OA
HETATM   13  H20         0      41.886   3.855  -3.249  1.00  0.00     0.218 HD
ENDBRANCH  10  12
BRANCH   4  14
HETATM   14  C5          0      44.746  10.349  -1.801  1.00  0.00     0.025 C 
HETATM   15  C6          0      45.419  10.988  -0.769  1.00  0.00     0.004 C 
HETATM   16  C7          0      46.378  11.935  -1.115  1.00  0.00     0.026 C 
HETATM   17  C8          0      46.570  12.331  -2.434  1.00  0.00     0.112 C 
HETATM   18  C10         0      45.475  12.132  -3.264  1.00  0.00     0.112 C 
HETATM   19  C12         0      44.576  11.122  -2.941  1.00  0.00     0.028 C 
BRANCH  17  20
HETATM   20  O9          0      47.826  12.687  -2.892  1.00  0.00    -0.357 OA
HETATM   21  H9          0      48.396  12.103  -3.378  1.00  0.00     0.218 HD
ENDBRANCH  17  20
BRANCH  18  22
HETATM   22  O11         0      45.544  12.680  -4.537  1.00  0.00    -0.357 OA
HETATM   23  H11         0      45.270  13.585  -4.632  1.00  0.00     0.218 HD
ENDBRANCH  18  22
ENDBRANCH   4  14
BRANCH   8  24
HETATM   24  O17         0      46.167   4.728  -5.251  1.00  0.00    -0.359 OA
HETATM   25  H17         0      46.302   5.405  -5.902  1.00  0.00     0.218 HD
ENDBRANCH   8  24
TORSDOF 5
ENDMDL
MODEL 8
REMARK VINA RESULT:      -4.5      2.694      5.312
REMARK  5 active torsions:
REMARK  status: ('A' for Active; 'I' for Inactive)
REMARK    1  A    between atoms: C4_4  and  C5_5 
REMARK    2  A    between atoms: C8_8  and  O9_9 
REMARK    3  A    between atoms: C10_11  and  O11_12 
REMARK    4  A    between atoms: C16_18  and  O17_19 
REMARK    5  A    between atoms: C19_22  and  O20_23 
ROOT
HETATM    1  O1          0      44.320   8.470  -3.383  1.00  0.00    -0.286 OA
HETATM    2  C2          0      44.576   7.515  -4.167  1.00  0.00     0.201 C 
HETATM    3  C3          0      44.152   7.492  -5.485  1.00  0.00     0.067 C 
HETATM    4  C4          0      44.359   6.383  -6.297  1.00  0.00     0.103 C 
HETATM    5  O13         0      44.994   5.338  -5.796  1.00  0.00    -0.307 OA
HETATM    6  C14         0      45.384   5.293  -4.541  1.00  0.00     0.107 C 
HETATM    7  C15         0      45.676   4.093  -3.908  1.00  0.00     0.049 C 
HETATM    8  C16         0      45.837   4.024  -2.530  1.00  0.00     0.093 C 
HETATM    9  C18         0      46.216   5.216  -1.923  1.00  0.00     0.048 C 
HETATM   10  C19         0      45.981   6.432  -2.549  1.00  0.00     0.096 C 
HETATM   11  C21         0      45.386   6.458  -3.781  1.00  0.00     0.084 C 
ENDROOT
BRANCH  10  12
HETATM   12  O20         0      45.951   7.595  -1.786  1.00  0.00    -0.359 OA
HETATM   13  H20         0      46.418   7.597  -0.959  1.00  0.00     0.218 HD
ENDBRANCH  10  12
BRANCH   4  14
HETATM   14  C5          0      43.416   6.174  -7.397  1.00  0.00     0.025 C 
HETATM   15  C6          0      42.152   6.745  -7.423  1.00  0.00     0.004 C 
HETATM   16  C7          0      41.675   7.198  -8.649  1.00  0.00     0.026 C 
HETATM   17  C8          0      42.370   6.970  -9.832  1.00  0.00     0.112 C 
HETATM   18  C10         0      43.240   5.889  -9.793  1.00  0.00     0.112 C 
HETATM   19  C12         0      43.770   5.511  -8.565  1.00  0.00     0.028 C 
BRANCH  17  20
HETATM   20  O9          0      42.332   7.889 -10.865  1.00  0.00    -0.357 OA
HETATM   21  H9          0      42.921   7.871 -11.610  1.00  0.00     0.218 HD
ENDBRANCH  17  20
BRANCH  18  22
HETATM   22  O11         0      43.815   5.502 -10.995  1.00  0.00    -0.357 OA
HETATM   23  H11         0      44.710   5.781 -11.154  1.00  0.00     0.218 HD
ENDBRANCH  18  22
ENDBRANCH   4  14
BRANCH   8  24
HETATM   24  O17         0      45.332   2.949  -1.790  1.00  0.00    -0.359 OA
HETATM   25  H17         0      45.095   2.127  -2.202  1.00  0.00     0.218 HD
ENDBRANCH   8  24
TORSDOF 5
ENDMDL
MODEL 9
REMARK VINA RESULT:      -4.4      1.566      6.805
REMARK  5 active torsions:
REMARK  status: ('A' for Active; 'I' for Inactive)
REMARK    1  A    between atoms: C4_4  and  C5_5 
REMARK    2  A    between atoms: C8_8  and  O9_9 
REMARK    3  A    between atoms: C10_11  and  O11_12 
REMARK    4  A    between atoms: C16_18  and  O17_19 
REMARK    5  A    between atoms: C19_22  and  O20_23 
ROOT
HETATM    1  O1          0      45.230  10.008  -0.980  1.00  0.00    -0.286 OA
HETATM    2  C2          0      44.862   9.521  -2.084  1.00  0.00     0.201 C 
HETATM    3  C3          0      44.823   8.158  -2.326  1.00  0.00     0.067 C 
HETATM    4  C4          0      44.513   7.650  -3.583  1.00  0.00     0.103 C 
HETATM    5  O13         0      44.232   8.497  -4.557  1.00  0.00    -0.307 OA
HETATM    6  C14         0      44.291   9.800  -4.391  1.00  0.00     0.107 C 
HETATM    7  C15         0      44.395  10.670  -5.467  1.00  0.00     0.049 C 
HETATM    8  C16         0      44.712  12.010  -5.282  1.00  0.00     0.093 C 
HETATM    9  C18         0      44.396  12.522  -4.030  1.00  0.00     0.048 C 
HETATM   10  C19         0      44.239  11.675  -2.941  1.00  0.00     0.096 C 
HETATM   11  C21         0      44.380  10.324  -3.106  1.00  0.00     0.084 C 
ENDROOT
BRANCH  10  12
HETATM   12  O20         0      44.359  12.191  -1.654  1.00  0.00    -0.359 OA
HETATM   13  H20         0      44.164  13.111  -1.524  1.00  0.00     0.218 HD
ENDBRANCH  10  12
BRANCH   4  14
HETATM   14  C5          0      45.056   6.335  -3.926  1.00  0.00     0.025 C 
HETATM   15  C6          0      45.420   5.398  -2.969  1.00  0.00     0.004 C 
HETATM   16  C7          0      45.147   4.061  -3.240  1.00  0.00     0.026 C 
HETATM   17  C8          0      44.654   3.653  -4.475  1.00  0.00     0.112 C 
HETATM   18  C10         0      44.924   4.522  -5.523  1.00  0.00     0.112 C 
HETATM   19  C12         0      45.108   5.869  -5.233  1.00  0.00     0.028 C 
BRANCH  17  20
HETATM   20  O9          0      43.790   2.577  -4.572  1.00  0.00    -0.357 OA
HETATM   21  H9          0      43.370   2.168  -3.824  1.00  0.00     0.218 HD
ENDBRANCH  17  20
BRANCH  18  22
HETATM   22  O11         0      44.622   4.077  -6.802  1.00  0.00    -0.357 OA
HETATM   23  H11         0      45.283   4.211  -7.472  1.00  0.00     0.218 HD
ENDBRANCH  18  22
ENDBRANCH   4  14
BRANCH   8  24
HETATM   24  O17         0      45.577  12.681  -6.154  1.00  0.00    -0.359 OA
HETATM   25  H17         0      45.471  12.634  -7.097  1.00  0.00     0.218 HD
ENDBRANCH   8  24
TORSDOF 5
ENDMDL
