MODEL 1
REMARK VINA RESULT:      -0.0      0.000      0.000
REMARK  5 active torsions:
REMARK  status: ('A' for Active; 'I' for Inactive)
REMARK    1  A    between atoms: C4_4  and  C5_5 
REMARK    2  A    between atoms: C8_8  and  O9_9 
REMARK    3  A    between atoms: C10_11  and  O11_12 
REMARK    4  A    between atoms: C16_18  and  O17_19 
REMARK    5  A    between atoms: C19_22  and  O20_23 
ROOT
HETATM    1  O1          0      61.766  95.892 -12.831  1.00  0.00    -0.286 OA
HETATM    2  C2          0      61.169  95.862 -13.942  1.00  0.00     0.201 C 
HETATM    3  C3          0      60.618  94.706 -14.467  1.00  0.00     0.067 C 
HETATM    4  C4          0      60.056  94.679 -15.739  1.00  0.00     0.103 C 
HETATM    5  O13         0      60.035  95.794 -16.447  1.00  0.00    -0.307 OA
HETATM    6  C14         0      60.578  96.910 -16.011  1.00  0.00     0.107 C 
HETATM    7  C15         0      60.915  97.944 -16.872  1.00  0.00     0.049 C 
HETATM    8  C16         0      61.712  99.002 -16.452  1.00  0.00     0.093 C 
HETATM    9  C18         0      61.693  99.244 -15.084  1.00  0.00     0.048 C 
HETATM   10  C19         0      61.315  98.245 -14.196  1.00  0.00     0.096 C 
HETATM   11  C21         0      60.942  97.018 -14.673  1.00  0.00     0.084 C 
ENDROOT
BRANCH  10  12
HETATM   12  O20         0      61.706  98.336 -12.864  1.00  0.00    -0.359 OA
HETATM   13  H20         0      62.509  98.802 -12.666  1.00  0.00     0.218 HD
ENDBRANCH  10  12
BRANCH   4  14
HETATM   14  C5          0      60.057  93.396 -16.444  1.00  0.00     0.025 C 
HETATM   15  C6          0      60.232  93.292 -17.816  1.00  0.00     0.004 C 
HETATM   16  C7          0      60.989  92.225 -18.290  1.00  0.00     0.026 C 
HETATM   17  C8          0      61.443  91.220 -17.444  1.00  0.00     0.112 C 
HETATM   18  C10         0      60.711  91.073 -16.273  1.00  0.00     0.112 C 
HETATM   19  C12         0      60.033  92.179 -15.775  1.00  0.00     0.028 C 
BRANCH  17  20
HETATM   20  O9          0      62.651  90.587 -17.680  1.00  0.00    -0.357 OA
HETATM   21  H9          0      62.912  90.247 -18.528  1.00  0.00     0.218 HD
ENDBRANCH  17  20
BRANCH  18  22
HETATM   22  O11         0      61.002  89.969 -15.485  1.00  0.00    -0.357 OA
HETATM   23  H11         0      61.919  89.736 -15.392  1.00  0.00     0.218 HD
ENDBRANCH  18  22
ENDBRANCH   4  14
BRANCH   8  24
HETATM   24  O17         0      62.698  99.546 -17.282  1.00  0.00    -0.359 OA
HETATM   25  H17         0      63.537  99.119 -17.407  1.00  0.00     0.218 HD
ENDBRANCH   8  24
TORSDOF 5
ENDMDL
MODEL 2
REMARK VINA RESULT:      -0.0      3.893      6.756
REMARK  5 active torsions:
REMARK  status: ('A' for Active; 'I' for Inactive)
REMARK    1  A    between atoms: C4_4  and  C5_5 
REMARK    2  A    between atoms: C8_8  and  O9_9 
REMARK    3  A    between atoms: C10_11  and  O11_12 
REMARK    4  A    between atoms: C16_18  and  O17_19 
REMARK    5  A    between atoms: C19_22  and  O20_23 
ROOT
HETATM    1  O1          0      61.297  92.283 -12.981  1.00  0.00    -0.286 OA
HETATM    2  C2          0      62.113  92.061 -13.916  1.00  0.00     0.201 C 
HETATM    3  C3          0      63.382  92.613 -13.952  1.00  0.00     0.067 C 
HETATM    4  C4          0      64.224  92.435 -15.044  1.00  0.00     0.103 C 
HETATM    5  O13         0      63.801  91.703 -16.059  1.00  0.00    -0.307 OA
HETATM    6  C14         0      62.591  91.187 -16.092  1.00  0.00     0.107 C 
HETATM    7  C15         0      62.006  90.774 -17.280  1.00  0.00     0.049 C 
HETATM    8  C16         0      60.651  90.472 -17.350  1.00  0.00     0.093 C 
HETATM    9  C18         0      60.072  90.092 -16.145  1.00  0.00     0.048 C 
HETATM   10  C19         0      60.657  90.448 -14.938  1.00  0.00     0.096 C 
HETATM   11  C21         0      61.823  91.165 -14.934  1.00  0.00     0.084 C 
ENDROOT
BRANCH  10  12
HETATM   12  O20         0      59.881  90.458 -13.782  1.00  0.00    -0.359 OA
HETATM   13  H20         0      58.937  90.442 -13.880  1.00  0.00     0.218 HD
ENDBRANCH  10  12
BRANCH   4  14
HETATM   14  C5          0      65.226  93.473 -15.294  1.00  0.00     0.025 C 
HETATM   15  C6          0      65.610  93.856 -16.570  1.00  0.00     0.004 C 
HETATM   16  C7          0      65.856  95.207 -16.792  1.00  0.00     0.026 C 
HETATM   17  C8          0      65.851  96.130 -15.751  1.00  0.00     0.112 C 
HETATM   18  C10         0      66.089  95.588 -14.495  1.00  0.00     0.112 C 
HETATM   19  C12         0      65.755  94.256 -14.276  1.00  0.00     0.028 C 
BRANCH  17  20
HETATM   20  O9          0      65.429  97.431 -15.959  1.00  0.00    -0.357 OA
HETATM   21  H9          0      65.829  98.188 -15.548  1.00  0.00     0.218 HD
ENDBRANCH  17  20
BRANCH  18  22
HETATM   22  O11         0      66.282  96.482 -13.452  1.00  0.00    -0.357 OA
HETATM   23  H11         0      66.516  97.372 -13.686  1.00  0.00     0.218 HD
ENDBRANCH  18  22
ENDBRANCH   4  14
BRANCH   8  24
HETATM   24  O17         0      59.876  90.846 -18.454  1.00  0.00    -0.359 OA
HETATM   25  H17         0      60.177  91.495 -19.078  1.00  0.00     0.218 HD
ENDBRANCH   8  24
TORSDOF 5
ENDMDL
MODEL 3
REMARK VINA RESULT:      -0.0      4.936      6.664
REMARK  5 active torsions:
REMARK  status: ('A' for Active; 'I' for Inactive)
REMARK    1  A    between atoms: C4_4  and  C5_5 
REMARK    2  A    between atoms: C8_8  and  O9_9 
REMARK    3  A    between atoms: C10_11  and  O11_12 
REMARK    4  A    between atoms: C16_18  and  O17_19 
REMARK    5  A    between atoms: C19_22  and  O20_23 
ROOT
HETATM    1  O1          0      61.449  96.614 -10.784  1.00  0.00    -0.286 OA
HETATM    2  C2          0      60.980  95.446 -10.865  1.00  0.00     0.201 C 
HETATM    3  C3          0      61.063  94.530  -9.830  1.00  0.00     0.067 C 
HETATM    4  C4          0      60.630  93.218  -9.981  1.00  0.00     0.103 C 
HETATM    5  O13         0      60.109  92.851 -11.139  1.00  0.00    -0.307 OA
HETATM    6  C14         0      60.041  93.670 -12.165  1.00  0.00     0.107 C 
HETATM    7  C15         0      59.880  93.204 -13.462  1.00  0.00     0.049 C 
HETATM    8  C16         0      60.063  94.040 -14.557  1.00  0.00     0.093 C 
HETATM    9  C18         0      59.880  95.393 -14.300  1.00  0.00     0.048 C 
HETATM   10  C19         0      59.988  95.886 -13.007  1.00  0.00     0.096 C 
HETATM   11  C21         0      60.260  95.030 -11.974  1.00  0.00     0.084 C 
ENDROOT
BRANCH  10  12
HETATM   12  O20         0      60.239  97.241 -12.814  1.00  0.00    -0.359 OA
HETATM   13  H20         0      60.968  97.484 -12.256  1.00  0.00     0.218 HD
ENDBRANCH  10  12
BRANCH   4  14
HETATM   14  C5          0      61.266  92.202  -9.140  1.00  0.00     0.025 C 
HETATM   15  C6          0      61.523  90.913  -9.584  1.00  0.00     0.004 C 
HETATM   16  C7          0      62.713  90.317  -9.177  1.00  0.00     0.026 C 
HETATM   17  C8          0      63.556  90.926  -8.254  1.00  0.00     0.112 C 
HETATM   18  C10         0      62.935  91.851  -7.424  1.00  0.00     0.112 C 
HETATM   19  C12         0      61.795  92.495  -7.890  1.00  0.00     0.028 C 
BRANCH  17  20
HETATM   20  O9          0      64.927  90.759  -8.327  1.00  0.00    -0.357 OA
HETATM   21  H9          0      65.554  91.429  -8.083  1.00  0.00     0.218 HD
ENDBRANCH  17  20
BRANCH  18  22
HETATM   22  O11         0      63.683  92.347  -6.366  1.00  0.00    -0.357 OA
HETATM   23  H11         0      63.512  91.976  -5.508  1.00  0.00     0.218 HD
ENDBRANCH  18  22
ENDBRANCH   4  14
BRANCH   8  24
HETATM   24  O17         0      60.704  93.591 -15.718  1.00  0.00    -0.359 OA
HETATM   25  H17         0      60.235  93.121 -16.397  1.00  0.00     0.218 HD
ENDBRANCH   8  24
TORSDOF 5
ENDMDL
MODEL 4
REMARK VINA RESULT:      -0.0      4.619      7.614
REMARK  5 active torsions:
REMARK  status: ('A' for Active; 'I' for Inactive)
REMARK    1  A    between atoms: C4_4  and  C5_5 
REMARK    2  A    between atoms: C8_8  and  O9_9 
REMARK    3  A    between atoms: C10_11  and  O11_12 
REMARK    4  A    between atoms: C16_18  and  O17_19 
REMARK    5  A    between atoms: C19_22  and  O20_23 
ROOT
HETATM    1  O1          0      61.362  96.570 -12.676  1.00  0.00    -0.286 OA
HETATM    2  C2          0      60.844  95.610 -12.041  1.00  0.00     0.201 C 
HETATM    3  C3          0      60.769  95.579 -10.659  1.00  0.00     0.067 C 
HETATM    4  C4          0      60.287  94.465  -9.981  1.00  0.00     0.103 C 
HETATM    5  O13         0      59.875  93.423 -10.683  1.00  0.00    -0.307 OA
HETATM    6  C14         0      59.960  93.387 -11.995  1.00  0.00     0.107 C 
HETATM    7  C15         0      59.915  92.191 -12.697  1.00  0.00     0.049 C 
HETATM    8  C16         0      60.258  92.131 -14.042  1.00  0.00     0.093 C 
HETATM    9  C18         0      60.119  93.326 -14.737  1.00  0.00     0.048 C 
HETATM   10  C19         0      60.112  94.538 -14.061  1.00  0.00     0.096 C 
HETATM   11  C21         0      60.227  94.556 -12.698  1.00  0.00     0.084 C 
ENDROOT
BRANCH  10  12
HETATM   12  O20         0      60.411  95.706 -14.756  1.00  0.00    -0.359 OA
HETATM   13  H20         0      60.857  96.402 -14.288  1.00  0.00     0.218 HD
ENDBRANCH  10  12
BRANCH   4  14
HETATM   14  C5          0      60.775  94.247  -8.618  1.00  0.00     0.025 C 
HETATM   15  C6          0      60.817  92.994  -8.025  1.00  0.00     0.004 C 
HETATM   16  C7          0      61.908  92.702  -7.213  1.00  0.00     0.026 C 
HETATM   17  C8          0      62.857  93.666  -6.890  1.00  0.00     0.112 C 
HETATM   18  C10         0      62.407  94.976  -6.988  1.00  0.00     0.112 C 
HETATM   19  C12         0      61.372  95.255  -7.872  1.00  0.00     0.028 C 
BRANCH  17  20
HETATM   20  O9          0      64.183  93.321  -6.702  1.00  0.00    -0.357 OA
HETATM   21  H9          0      64.557  93.104  -5.856  1.00  0.00     0.218 HD
ENDBRANCH  17  20
BRANCH  18  22
HETATM   22  O11         0      63.248  95.967  -6.499  1.00  0.00    -0.357 OA
HETATM   23  H11         0      63.679  96.520  -7.140  1.00  0.00     0.218 HD
ENDBRANCH  18  22
ENDBRANCH   4  14
BRANCH   8  24
HETATM   24  O17         0      60.995  91.060 -14.560  1.00  0.00    -0.359 OA
HETATM   25  H17         0      60.837  90.720 -15.432  1.00  0.00     0.218 HD
ENDBRANCH   8  24
TORSDOF 5
ENDMDL
MODEL 5
REMARK VINA RESULT:      -0.0      3.576      4.364
REMARK  5 active torsions:
REMARK  status: ('A' for Active; 'I' for Inactive)
REMARK    1  A    between atoms: C4_4  and  C5_5 
REMARK    2  A    between atoms: C8_8  and  O9_9 
REMARK    3  A    between atoms: C10_11  and  O11_12 
REMARK    4  A    between atoms: C16_18  and  O17_19 
REMARK    5  A    between atoms: C19_22  and  O20_23 
ROOT
HETATM    1  O1          0      66.281  95.729 -14.192  1.00  0.00    -0.286 OA
HETATM    2  C2          0      65.252  96.125 -14.804  1.00  0.00     0.201 C 
HETATM    3  C3          0      63.973  95.980 -14.294  1.00  0.00     0.067 C 
HETATM    4  C4          0      62.849  96.332 -15.033  1.00  0.00     0.103 C 
HETATM    5  O13         0      63.018  96.835 -16.243  1.00  0.00    -0.307 OA
HETATM    6  C14         0      64.208  96.959 -16.789  1.00  0.00     0.107 C 
HETATM    7  C15         0      64.372  97.098 -18.160  1.00  0.00     0.049 C 
HETATM    8  C16         0      65.623  96.973 -18.753  1.00  0.00     0.093 C 
HETATM    9  C18         0      66.699  97.238 -17.915  1.00  0.00     0.048 C 
HETATM   10  C19         0      66.557  97.154 -16.536  1.00  0.00     0.096 C 
HETATM   11  C21         0      65.343  96.824 -15.998  1.00  0.00     0.084 C 
ENDROOT
BRANCH  10  12
HETATM   12  O20         0      67.689  96.986 -15.745  1.00  0.00    -0.359 OA
HETATM   13  H20         0      67.867  96.120 -15.400  1.00  0.00     0.218 HD
ENDBRANCH  10  12
BRANCH   4  14
HETATM   14  C5          0      61.601  95.630 -14.730  1.00  0.00     0.025 C 
HETATM   15  C6          0      60.568  95.502 -15.647  1.00  0.00     0.004 C 
HETATM   16  C7          0      59.875  94.296 -15.672  1.00  0.00     0.026 C 
HETATM   17  C8          0      60.109  93.300 -14.730  1.00  0.00     0.112 C 
HETATM   18  C10         0      60.657  93.749 -13.536  1.00  0.00     0.112 C 
HETATM   19  C12         0      61.417  94.912 -13.555  1.00  0.00     0.028 C 
BRANCH  17  20
HETATM   20  O9          0      59.993  91.963 -15.068  1.00  0.00    -0.357 OA
HETATM   21  H9          0      60.197  91.617 -15.929  1.00  0.00     0.218 HD
ENDBRANCH  17  20
BRANCH  18  22
HETATM   22  O11         0      60.735  92.833 -12.497  1.00  0.00    -0.357 OA
HETATM   23  H11         0      61.427  92.183 -12.547  1.00  0.00     0.218 HD
ENDBRANCH  18  22
ENDBRANCH   4  14
BRANCH   8  24
HETATM   24  O17         0      65.787  96.312 -19.975  1.00  0.00    -0.359 OA
HETATM   25  H17         0      65.132  95.710 -20.309  1.00  0.00     0.218 HD
ENDBRANCH   8  24
TORSDOF 5
ENDMDL
MODEL 6
REMARK VINA RESULT:      -0.0      3.097      7.642
REMARK  5 active torsions:
REMARK  status: ('A' for Active; 'I' for Inactive)
REMARK    1  A    between atoms: C4_4  and  C5_5 
REMARK    2  A    between atoms: C8_8  and  O9_9 
REMARK    3  A    between atoms: C10_11  and  O11_12 
REMARK    4  A    between atoms: C16_18  and  O17_19 
REMARK    5  A    between atoms: C19_22  and  O20_23 
ROOT
HETATM    1  O1          0      61.525  94.743 -15.205  1.00  0.00    -0.286 OA
HETATM    2  C2          0      61.057  94.927 -14.048  1.00  0.00     0.201 C 
HETATM    3  C3          0      61.154  96.137 -13.383  1.00  0.00     0.067 C 
HETATM    4  C4          0      60.722  96.283 -12.069  1.00  0.00     0.103 C 
HETATM    5  O13         0      60.188  95.240 -11.457  1.00  0.00    -0.307 OA
HETATM    6  C14         0      60.106  94.060 -12.030  1.00  0.00     0.107 C 
HETATM    7  C15         0      59.931  92.899 -11.291  1.00  0.00     0.049 C 
HETATM    8  C16         0      60.099  91.645 -11.865  1.00  0.00     0.093 C 
HETATM    9  C18         0      59.917  91.601 -13.242  1.00  0.00     0.048 C 
HETATM   10  C19         0      60.039  92.753 -14.007  1.00  0.00     0.096 C 
HETATM   11  C21         0      60.325  93.944 -13.399  1.00  0.00     0.084 C 
ENDROOT
BRANCH  10  12
HETATM   12  O20         0      60.290  92.640 -15.371  1.00  0.00    -0.359 OA
HETATM   13  H20         0      61.155  92.871 -15.686  1.00  0.00     0.218 HD
ENDBRANCH  10  12
BRANCH   4  14
HETATM   14  C5          0      61.369  97.319 -11.262  1.00  0.00     0.025 C 
HETATM   15  C6          0      61.872  97.078  -9.992  1.00  0.00     0.004 C 
HETATM   16  C7          0      63.063  97.704  -9.641  1.00  0.00     0.026 C 
HETATM   17  C8          0      63.666  98.643 -10.471  1.00  0.00     0.112 C 
HETATM   18  C10         0      62.804  99.264 -11.366  1.00  0.00     0.112 C 
HETATM   19  C12         0      61.663  98.579 -11.766  1.00  0.00     0.028 C 
BRANCH  17  20
HETATM   20  O9          0      65.043  98.766 -10.520  1.00  0.00    -0.357 OA
HETATM   21  H9          0      65.614  98.598  -9.779  1.00  0.00     0.218 HD
ENDBRANCH  17  20
BRANCH  18  22
HETATM   22  O11         0      63.310 100.338 -12.083  1.00  0.00    -0.357 OA
HETATM   23  H11         0      62.790 101.133 -12.092  1.00  0.00     0.218 HD
ENDBRANCH  18  22
ENDBRANCH   4  14
BRANCH   8  24
HETATM   24  O17         0      60.727  90.604 -11.172  1.00  0.00    -0.359 OA
HETATM   25  H17         0      60.756  89.720 -11.519  1.00  0.00     0.218 HD
ENDBRANCH   8  24
TORSDOF 5
ENDMDL
MODEL 7
REMARK VINA RESULT:      -0.0      3.561      5.178
REMARK  5 active torsions:
REMARK  status: ('A' for Active; 'I' for Inactive)
REMARK    1  A    between atoms: C4_4  and  C5_5 
REMARK    2  A    between atoms: C8_8  and  O9_9 
REMARK    3  A    between atoms: C10_11  and  O11_12 
REMARK    4  A    between atoms: C16_18  and  O17_19 
REMARK    5  A    between atoms: C19_22  and  O20_23 
ROOT
HETATM    1  O1          0      65.843  96.640 -11.200  1.00  0.00    -0.286 OA
HETATM    2  C2          0      64.992  97.249 -11.905  1.00  0.00     0.201 C 
HETATM    3  C3          0      63.627  97.083 -11.744  1.00  0.00     0.067 C 
HETATM    4  C4          0      62.714  97.688 -12.600  1.00  0.00     0.103 C 
HETATM    5  O13         0      63.169  98.453 -13.577  1.00  0.00    -0.307 OA
HETATM    6  C14         0      64.456  98.614 -13.797  1.00  0.00     0.107 C 
HETATM    7  C15         0      64.938  99.065 -15.017  1.00  0.00     0.049 C 
HETATM    8  C16         0      66.289  98.991 -15.331  1.00  0.00     0.093 C 
HETATM    9  C18         0      67.145  98.964 -14.236  1.00  0.00     0.048 C 
HETATM   10  C19         0      66.684  98.562 -12.990  1.00  0.00     0.096 C 
HETATM   11  C21         0      65.373  98.206 -12.834  1.00  0.00     0.084 C 
ENDROOT
BRANCH  10  12
HETATM   12  O20         0      67.598  98.123 -12.036  1.00  0.00    -0.359 OA
HETATM   13  H20         0      67.262  97.851 -11.191  1.00  0.00     0.218 HD
ENDBRANCH  10  12
BRANCH   4  14
HETATM   14  C5          0      61.416  97.031 -12.767  1.00  0.00     0.025 C 
HETATM   15  C6          0      60.647  97.165 -13.914  1.00  0.00     0.004 C 
HETATM   16  C7          0      59.960  96.042 -14.364  1.00  0.00     0.026 C 
HETATM   17  C8          0      59.929  94.862 -13.629  1.00  0.00     0.112 C 
HETATM   18  C10         0      60.166  95.020 -12.270  1.00  0.00     0.112 C 
HETATM   19  C12         0      60.927  96.105 -11.854  1.00  0.00     0.028 C 
BRANCH  17  20
HETATM   20  O9          0      59.878  93.633 -14.262  1.00  0.00    -0.357 OA
HETATM   21  H9          0      59.122  93.320 -14.745  1.00  0.00     0.218 HD
ENDBRANCH  17  20
BRANCH  18  22
HETATM   22  O11         0      59.961  93.909 -11.463  1.00  0.00    -0.357 OA
HETATM   23  H11         0      59.410  94.029 -10.698  1.00  0.00     0.218 HD
ENDBRANCH  18  22
ENDBRANCH   4  14
BRANCH   8  24
HETATM   24  O17         0      66.722  98.633 -16.612  1.00  0.00    -0.359 OA
HETATM   25  H17         0      66.203  98.072 -17.175  1.00  0.00     0.218 HD
ENDBRANCH   8  24
TORSDOF 5
ENDMDL
MODEL 8
REMARK VINA RESULT:      -0.0      2.740      3.793
REMARK  5 active torsions:
REMARK  status: ('A' for Active; 'I' for Inactive)
REMARK    1  A    between atoms: C4_4  and  C5_5 
REMARK    2  A    between atoms: C8_8  and  O9_9 
REMARK    3  A    between atoms: C10_11  and  O11_12 
REMARK    4  A    between atoms: C16_18  and  O17_19 
REMARK    5  A    between atoms: C19_22  and  O20_23 
ROOT
HETATM    1  O1          0      64.233  97.075 -11.135  1.00  0.00    -0.286 OA
HETATM    2  C2          0      63.271  97.036 -11.950  1.00  0.00     0.201 C 
HETATM    3  C3          0      62.152  96.244 -11.754  1.00  0.00     0.067 C 
HETATM    4  C4          0      61.154  96.141 -12.716  1.00  0.00     0.103 C 
HETATM    5  O13         0      61.276  96.836 -13.834  1.00  0.00    -0.307 OA
HETATM    6  C14         0      62.335  97.573 -14.087  1.00  0.00     0.107 C 
HETATM    7  C15         0      62.659  97.970 -15.376  1.00  0.00     0.049 C 
HETATM    8  C16         0      63.899  98.523 -15.671  1.00  0.00     0.093 C 
HETATM    9  C18         0      64.541  99.130 -14.599  1.00  0.00     0.048 C 
HETATM   10  C19         0      64.209  98.790 -13.294  1.00  0.00     0.096 C 
HETATM   11  C21         0      63.230  97.863 -13.062  1.00  0.00     0.084 C 
ENDROOT
BRANCH  10  12
HETATM   12  O20         0      65.116  99.051 -12.272  1.00  0.00    -0.359 OA
HETATM   13  H20         0      65.337  98.341 -11.681  1.00  0.00     0.218 HD
ENDBRANCH  10  12
BRANCH   4  14
HETATM   14  C5          0      60.367  94.907 -12.736  1.00  0.00     0.025 C 
HETATM   15  C6          0      60.043  94.240 -13.908  1.00  0.00     0.004 C 
HETATM   16  C7          0      60.059  92.849 -13.885  1.00  0.00     0.026 C 
HETATM   17  C8          0      60.259  92.142 -12.704  1.00  0.00     0.112 C 
HETATM   18  C10         0      59.941  92.842 -11.548  1.00  0.00     0.112 C 
HETATM   19  C12         0      60.015  94.230 -11.575  1.00  0.00     0.028 C 
BRANCH  17  20
HETATM   20  O9          0      60.920  90.927 -12.709  1.00  0.00    -0.357 OA
HETATM   21  H9          0      60.614  90.157 -12.244  1.00  0.00     0.218 HD
ENDBRANCH  17  20
BRANCH  18  22
HETATM   22  O11         0      59.941  92.126 -10.359  1.00  0.00    -0.357 OA
HETATM   23  H11         0      59.100  91.991  -9.939  1.00  0.00     0.218 HD
ENDBRANCH  18  22
ENDBRANCH   4  14
BRANCH   8  24
HETATM   24  O17         0      64.580  98.199 -16.849  1.00  0.00    -0.359 OA
HETATM   25  H17         0      65.513  98.016 -16.852  1.00  0.00     0.218 HD
ENDBRANCH   8  24
TORSDOF 5
ENDMDL
MODEL 9
REMARK VINA RESULT:      -0.0      4.811      6.450
REMARK  5 active torsions:
REMARK  status: ('A' for Active; 'I' for Inactive)
REMARK    1  A    between atoms: C4_4  and  C5_5 
REMARK    2  A    between atoms: C8_8  and  O9_9 
REMARK    3  A    between atoms: C10_11  and  O11_12 
REMARK    4  A    between atoms: C16_18  and  O17_19 
REMARK    5  A    between atoms: C19_22  and  O20_23 
ROOT
HETATM    1  O1          0      65.235  95.508 -12.671  1.00  0.00    -0.286 OA
HETATM    2  C2          0      65.350  94.385 -13.236  1.00  0.00     0.201 C 
HETATM    3  C3          0      64.810  94.114 -14.482  1.00  0.00     0.067 C 
HETATM    4  C4          0      64.862  92.840 -15.036  1.00  0.00     0.103 C 
HETATM    5  O13         0      65.461  91.876 -14.358  1.00  0.00    -0.307 OA
HETATM    6  C14         0      65.956  92.072 -13.156  1.00  0.00     0.107 C 
HETATM    7  C15         0      66.215  91.017 -12.292  1.00  0.00     0.049 C 
HETATM    8  C16         0      66.492  91.237 -10.948  1.00  0.00     0.093 C 
HETATM    9  C18         0      67.010  92.492 -10.653  1.00  0.00     0.048 C 
HETATM   10  C19         0      66.810  93.559 -11.519  1.00  0.00     0.096 C 
HETATM   11  C21         0      66.112  93.369 -12.681  1.00  0.00     0.084 C 
ENDROOT
BRANCH  10  12
HETATM   12  O20         0      66.934  94.859 -11.038  1.00  0.00    -0.359 OA
HETATM   13  H20         0      66.609  95.567 -11.580  1.00  0.00     0.218 HD
ENDBRANCH  10  12
BRANCH   4  14
HETATM   14  C5          0      63.812  92.482 -15.991  1.00  0.00     0.025 C 
HETATM   15  C6          0      63.463  91.168 -16.268  1.00  0.00     0.004 C 
HETATM   16  C7          0      62.115  90.886 -16.464  1.00  0.00     0.026 C 
HETATM   17  C8          0      61.159  91.894 -16.516  1.00  0.00     0.112 C 
HETATM   18  C10         0      61.654  93.145 -16.862  1.00  0.00     0.112 C 
HETATM   19  C12         0      62.984  93.430 -16.578  1.00  0.00     0.028 C 
BRANCH  17  20
HETATM   20  O9          0      59.875  91.679 -16.049  1.00  0.00    -0.357 OA
HETATM   21  H9          0      59.470  92.196 -15.362  1.00  0.00     0.218 HD
ENDBRANCH  17  20
BRANCH  18  22
HETATM   22  O11         0      60.722  94.142 -17.113  1.00  0.00    -0.357 OA
HETATM   23  H11         0      60.246  94.089 -17.934  1.00  0.00     0.218 HD
ENDBRANCH  18  22
ENDBRANCH   4  14
BRANCH   8  24
HETATM   24  O17         0      65.978  90.400  -9.951  1.00  0.00    -0.359 OA
HETATM   25  H17         0      66.483  89.677  -9.597  1.00  0.00     0.218 HD
ENDBRANCH   8  24
TORSDOF 5
ENDMDL
