MODEL 1
REMARK VINA RESULT:      -6.1      0.000      0.000
REMARK  5 active torsions:
REMARK  status: ('A' for Active; 'I' for Inactive)
REMARK    1  A    between atoms: C4_4  and  C5_5 
REMARK    2  A    between atoms: C8_8  and  O9_9 
REMARK    3  A    between atoms: C10_11  and  O11_12 
REMARK    4  A    between atoms: C16_18  and  O17_19 
REMARK    5  A    between atoms: C19_22  and  O20_23 
ROOT
HETATM    1  O1          0      35.508  12.844  18.913  1.00  0.00    -0.286 OA
HETATM    2  C2          0      36.478  12.212  18.410  1.00  0.00     0.201 C 
HETATM    3  C3          0      37.664  11.993  19.090  1.00  0.00     0.067 C 
HETATM    4  C4          0      38.753  11.383  18.478  1.00  0.00     0.103 C 
HETATM    5  O13         0      38.636  10.989  17.222  1.00  0.00    -0.307 OA
HETATM    6  C14         0      37.546  11.206  16.520  1.00  0.00     0.107 C 
HETATM    7  C15         0      37.550  11.168  15.133  1.00  0.00     0.049 C 
HETATM    8  C16         0      36.473  11.643  14.394  1.00  0.00     0.093 C 
HETATM    9  C18         0      35.256  11.642  15.065  1.00  0.00     0.048 C 
HETATM   10  C19         0      35.215  11.634  16.452  1.00  0.00     0.096 C 
HETATM   11  C21         0      36.382  11.608  17.166  1.00  0.00     0.084 C 
ENDROOT
BRANCH  10  12
HETATM   12  O20         0      34.062  12.066  17.102  1.00  0.00    -0.359 OA
HETATM   13  H20         0      34.151  12.738  17.766  1.00  0.00     0.218 HD
ENDBRANCH  10  12
BRANCH   4  14
HETATM   14  C5          0      40.083  11.716  18.991  1.00  0.00     0.025 C 
HETATM   15  C6          0      40.910  10.782  19.597  1.00  0.00     0.004 C 
HETATM   16  C7          0      42.274  10.861  19.332  1.00  0.00     0.026 C 
HETATM   17  C8          0      42.815  11.911  18.599  1.00  0.00     0.112 C 
HETATM   18  C10         0      42.049  13.069  18.593  1.00  0.00     0.112 C 
HETATM   19  C12         0      40.676  12.953  18.776  1.00  0.00     0.028 C 
BRANCH  17  20
HETATM   20  O9          0      43.915  11.714  17.784  1.00  0.00    -0.357 OA
HETATM   21  H9          0      44.775  12.080  17.959  1.00  0.00     0.218 HD
ENDBRANCH  17  20
BRANCH  18  22
HETATM   22  O11         0      42.627  14.202  18.039  1.00  0.00    -0.357 OA
HETATM   23  H11         0      42.158  15.022  18.148  1.00  0.00     0.218 HD
ENDBRANCH  18  22
ENDBRANCH   4  14
BRANCH   8  24
HETATM   24  O17         0      36.662  12.370  13.214  1.00  0.00    -0.359 OA
HETATM   25  H17         0      36.353  13.263  13.122  1.00  0.00     0.218 HD
ENDBRANCH   8  24
TORSDOF 5
ENDMDL
MODEL 2
REMARK VINA RESULT:      -6.1     17.242     19.051
REMARK  5 active torsions:
REMARK  status: ('A' for Active; 'I' for Inactive)
REMARK    1  A    between atoms: C4_4  and  C5_5 
REMARK    2  A    between atoms: C8_8  and  O9_9 
REMARK    3  A    between atoms: C10_11  and  O11_12 
REMARK    4  A    between atoms: C16_18  and  O17_19 
REMARK    5  A    between atoms: C19_22  and  O20_23 
ROOT
HETATM    1  O1          0      39.530  23.186   1.627  1.00  0.00    -0.286 OA
HETATM    2  C2          0      40.774  23.018   1.753  1.00  0.00     0.201 C 
HETATM    3  C3          0      41.328  21.846   2.239  1.00  0.00     0.067 C 
HETATM    4  C4          0      42.694  21.724   2.464  1.00  0.00     0.103 C 
HETATM    5  O13         0      43.477  22.751   2.184  1.00  0.00    -0.307 OA
HETATM    6  C14         0      42.999  23.899   1.756  1.00  0.00     0.107 C 
HETATM    7  C15         0      43.731  25.074   1.842  1.00  0.00     0.049 C 
HETATM    8  C16         0      43.137  26.312   1.630  1.00  0.00     0.093 C 
HETATM    9  C18         0      41.995  26.287   0.839  1.00  0.00     0.048 C 
HETATM   10  C19         0      41.264  25.115   0.693  1.00  0.00     0.096 C 
HETATM   11  C21         0      41.681  23.972   1.319  1.00  0.00     0.084 C 
ENDROOT
BRANCH  10  12
HETATM   12  O20         0      39.935  25.189   0.286  1.00  0.00    -0.359 OA
HETATM   13  H20         0      39.758  25.264  -0.644  1.00  0.00     0.218 HD
ENDBRANCH  10  12
BRANCH   4  14
HETATM   14  C5          0      43.122  20.770   3.488  1.00  0.00     0.025 C 
HETATM   15  C6          0      43.486  19.464   3.194  1.00  0.00     0.004 C 
HETATM   16  C7          0      44.551  18.917   3.902  1.00  0.00     0.026 C 
HETATM   17  C8          0      45.149  19.594   4.960  1.00  0.00     0.112 C 
HETATM   18  C10         0      44.344  20.550   5.565  1.00  0.00     0.112 C 
HETATM   19  C12         0      43.340  21.143   4.808  1.00  0.00     0.028 C 
BRANCH  17  20
HETATM   20  O9          0      46.500  19.452   5.219  1.00  0.00    -0.357 OA
HETATM   21  H9          0      47.155  19.310   4.545  1.00  0.00     0.218 HD
ENDBRANCH  17  20
BRANCH  18  22
HETATM   22  O11         0      44.818  21.119   6.738  1.00  0.00    -0.357 OA
HETATM   23  H11         0      44.539  20.720   7.554  1.00  0.00     0.218 HD
ENDBRANCH  18  22
ENDBRANCH   4  14
BRANCH   8  24
HETATM   24  O17         0      43.462  27.422   2.418  1.00  0.00    -0.359 OA
HETATM   25  H17         0      44.328  27.531   2.793  1.00  0.00     0.218 HD
ENDBRANCH   8  24
TORSDOF 5
ENDMDL
MODEL 3
REMARK VINA RESULT:      -5.8     13.919     15.893
REMARK  5 active torsions:
REMARK  status: ('A' for Active; 'I' for Inactive)
REMARK    1  A    between atoms: C4_4  and  C5_5 
REMARK    2  A    between atoms: C8_8  and  O9_9 
REMARK    3  A    between atoms: C10_11  and  O11_12 
REMARK    4  A    between atoms: C16_18  and  O17_19 
REMARK    5  A    between atoms: C19_22  and  O20_23 
ROOT
HETATM    1  O1          0      46.040  15.873   8.506  1.00  0.00    -0.286 OA
HETATM    2  C2          0      46.455  16.343   7.412  1.00  0.00     0.201 C 
HETATM    3  C3          0      46.131  17.615   6.970  1.00  0.00     0.067 C 
HETATM    4  C4          0      46.517  18.071   5.715  1.00  0.00     0.103 C 
HETATM    5  O13         0      47.228  17.271   4.940  1.00  0.00    -0.307 OA
HETATM    6  C14         0      47.531  16.042   5.295  1.00  0.00     0.107 C 
HETATM    7  C15         0      47.911  15.085   4.365  1.00  0.00     0.049 C 
HETATM    8  C16         0      47.981  13.738   4.702  1.00  0.00     0.093 C 
HETATM    9  C18         0      48.180  13.482   6.053  1.00  0.00     0.048 C 
HETATM   10  C19         0      47.855  14.435   7.008  1.00  0.00     0.096 C 
HETATM   11  C21         0      47.350  15.645   6.616  1.00  0.00     0.084 C 
ENDROOT
BRANCH  10  12
HETATM   12  O20         0      47.642  14.035   8.324  1.00  0.00    -0.359 OA
HETATM   13  H20         0      46.745  13.942   8.621  1.00  0.00     0.218 HD
ENDBRANCH  10  12
BRANCH   4  14
HETATM   14  C5          0      45.683  19.099   5.090  1.00  0.00     0.025 C 
HETATM   15  C6          0      45.035  18.908   3.879  1.00  0.00     0.004 C 
HETATM   16  C7          0      43.759  19.445   3.738  1.00  0.00     0.026 C 
HETATM   17  C8          0      43.198  20.258   4.717  1.00  0.00     0.112 C 
HETATM   18  C10         0      44.119  20.888   5.544  1.00  0.00     0.112 C 
HETATM   19  C12         0      45.357  20.286   5.734  1.00  0.00     0.028 C 
BRANCH  17  20
HETATM   20  O9          0      41.835  20.248   4.952  1.00  0.00    -0.357 OA
HETATM   21  H9          0      41.232  20.888   4.592  1.00  0.00     0.218 HD
ENDBRANCH  17  20
BRANCH  18  22
HETATM   22  O11         0      43.627  21.853   6.411  1.00  0.00    -0.357 OA
HETATM   23  H11         0      43.100  21.548   7.141  1.00  0.00     0.218 HD
ENDBRANCH  18  22
ENDBRANCH   4  14
BRANCH   8  24
HETATM   24  O17         0      47.549  12.742   3.820  1.00  0.00    -0.359 OA
HETATM   25  H17         0      47.275  11.887   4.128  1.00  0.00     0.218 HD
ENDBRANCH   8  24
TORSDOF 5
ENDMDL
MODEL 4
REMARK VINA RESULT:      -5.8     15.947     17.885
REMARK  5 active torsions:
REMARK  status: ('A' for Active; 'I' for Inactive)
REMARK    1  A    between atoms: C4_4  and  C5_5 
REMARK    2  A    between atoms: C8_8  and  O9_9 
REMARK    3  A    between atoms: C10_11  and  O11_12 
REMARK    4  A    between atoms: C16_18  and  O17_19 
REMARK    5  A    between atoms: C19_22  and  O20_23 
ROOT
HETATM    1  O1          0      47.352  17.690   0.851  1.00  0.00    -0.286 OA
HETATM    2  C2          0      46.730  17.478   1.928  1.00  0.00     0.201 C 
HETATM    3  C3          0      45.688  18.279   2.363  1.00  0.00     0.067 C 
HETATM    4  C4          0      45.088  18.085   3.602  1.00  0.00     0.103 C 
HETATM    5  O13         0      45.516  17.097   4.367  1.00  0.00    -0.307 OA
HETATM    6  C14         0      46.527  16.331   4.018  1.00  0.00     0.107 C 
HETATM    7  C15         0      47.230  15.580   4.949  1.00  0.00     0.049 C 
HETATM    8  C16         0      48.440  14.979   4.626  1.00  0.00     0.093 C 
HETATM    9  C18         0      48.624  14.719   3.273  1.00  0.00     0.048 C 
HETATM   10  C19         0      47.903  15.420   2.316  1.00  0.00     0.096 C 
HETATM   11  C21         0      46.992  16.362   2.708  1.00  0.00     0.084 C 
ENDROOT
BRANCH  10  12
HETATM   12  O20         0      48.383  15.479   1.011  1.00  0.00    -0.359 OA
HETATM   13  H20         0      48.223  14.735   0.444  1.00  0.00     0.218 HD
ENDBRANCH  10  12
BRANCH   4  14
HETATM   14  C5          0      44.470  19.251   4.236  1.00  0.00     0.025 C 
HETATM   15  C6          0      45.143  20.061   5.139  1.00  0.00     0.004 C 
HETATM   16  C7          0      44.906  21.430   5.078  1.00  0.00     0.026 C 
HETATM   17  C8          0      43.934  21.965   4.240  1.00  0.00     0.112 C 
HETATM   18  C10         0      42.926  21.080   3.882  1.00  0.00     0.112 C 
HETATM   19  C12         0      43.215  19.720   3.869  1.00  0.00     0.028 C 
BRANCH  17  20
HETATM   20  O9          0      44.103  23.211   3.661  1.00  0.00    -0.357 OA
HETATM   21  H9          0      44.914  23.705   3.701  1.00  0.00     0.218 HD
ENDBRANCH  17  20
BRANCH  18  22
HETATM   22  O11         0      41.836  21.609   3.206  1.00  0.00    -0.357 OA
HETATM   23  H11         0      41.827  21.512   2.260  1.00  0.00     0.218 HD
ENDBRANCH  18  22
ENDBRANCH   4  14
BRANCH   8  24
HETATM   24  O17         0      49.507  14.955   5.531  1.00  0.00    -0.359 OA
HETATM   25  H17         0      49.678  15.679   6.121  1.00  0.00     0.218 HD
ENDBRANCH   8  24
TORSDOF 5
ENDMDL
MODEL 5
REMARK VINA RESULT:      -5.7     17.571     19.608
REMARK  5 active torsions:
REMARK  status: ('A' for Active; 'I' for Inactive)
REMARK    1  A    between atoms: C4_4  and  C5_5 
REMARK    2  A    between atoms: C8_8  and  O9_9 
REMARK    3  A    between atoms: C10_11  and  O11_12 
REMARK    4  A    between atoms: C16_18  and  O17_19 
REMARK    5  A    between atoms: C19_22  and  O20_23 
ROOT
HETATM    1  O1          0      42.748  20.242   4.430  1.00  0.00    -0.286 OA
HETATM    2  C2          0      42.663  21.010   3.432  1.00  0.00     0.201 C 
HETATM    3  C3          0      43.407  22.172   3.314  1.00  0.00     0.067 C 
HETATM    4  C4          0      43.220  23.053   2.255  1.00  0.00     0.103 C 
HETATM    5  O13         0      42.321  22.755   1.333  1.00  0.00    -0.307 OA
HETATM    6  C14         0      41.562  21.685   1.417  1.00  0.00     0.107 C 
HETATM    7  C15         0      40.378  21.571   0.703  1.00  0.00     0.049 C 
HETATM    8  C16         0      39.460  20.566   0.984  1.00  0.00     0.093 C 
HETATM    9  C18         0      39.995  19.434   1.587  1.00  0.00     0.048 C 
HETATM   10  C19         0      41.202  19.502   2.269  1.00  0.00     0.096 C 
HETATM   11  C21         0      41.879  20.689   2.335  1.00  0.00     0.084 C 
ENDROOT
BRANCH  10  12
HETATM   12  O20         0      41.507  18.524   3.211  1.00  0.00    -0.359 OA
HETATM   13  H20         0      41.125  17.662   3.097  1.00  0.00     0.218 HD
ENDBRANCH  10  12
BRANCH   4  14
HETATM   14  C5          0      43.552  24.460   2.488  1.00  0.00     0.025 C 
HETATM   15  C6          0      44.684  25.062   1.959  1.00  0.00     0.004 C 
HETATM   16  C7          0      44.567  26.375   1.512  1.00  0.00     0.026 C 
HETATM   17  C8          0      43.402  27.110   1.706  1.00  0.00     0.112 C 
HETATM   18  C10         0      42.608  26.671   2.757  1.00  0.00     0.112 C 
HETATM   19  C12         0      42.683  25.334   3.128  1.00  0.00     0.028 C 
BRANCH  17  20
HETATM   20  O9          0      42.998  28.054   0.780  1.00  0.00    -0.357 OA
HETATM   21  H9          0      42.729  27.843  -0.107  1.00  0.00     0.218 HD
ENDBRANCH  17  20
BRANCH  18  22
HETATM   22  O11         0      41.536  27.477   3.114  1.00  0.00    -0.357 OA
HETATM   23  H11         0      40.953  27.751   2.415  1.00  0.00     0.218 HD
ENDBRANCH  18  22
ENDBRANCH   4  14
BRANCH   8  24
HETATM   24  O17         0      38.083  20.812   0.973  1.00  0.00    -0.359 OA
HETATM   25  H17         0      37.733  21.684   0.833  1.00  0.00     0.218 HD
ENDBRANCH   8  24
TORSDOF 5
ENDMDL
MODEL 6
REMARK VINA RESULT:      -5.6     14.343     15.934
REMARK  5 active torsions:
REMARK  status: ('A' for Active; 'I' for Inactive)
REMARK    1  A    between atoms: C4_4  and  C5_5 
REMARK    2  A    between atoms: C8_8  and  O9_9 
REMARK    3  A    between atoms: C10_11  and  O11_12 
REMARK    4  A    between atoms: C16_18  and  O17_19 
REMARK    5  A    between atoms: C19_22  and  O20_23 
ROOT
HETATM    1  O1          0      43.845  17.750   2.816  1.00  0.00    -0.286 OA
HETATM    2  C2          0      44.725  18.160   3.623  1.00  0.00     0.201 C 
HETATM    3  C3          0      45.666  17.323   4.197  1.00  0.00     0.067 C 
HETATM    4  C4          0      46.558  17.781   5.160  1.00  0.00     0.103 C 
HETATM    5  O13         0      46.511  19.053   5.514  1.00  0.00    -0.307 OA
HETATM    6  C14         0      45.613  19.882   5.028  1.00  0.00     0.107 C 
HETATM    7  C15         0      45.298  21.073   5.665  1.00  0.00     0.049 C 
HETATM    8  C16         0      44.183  21.816   5.295  1.00  0.00     0.093 C 
HETATM    9  C18         0      43.749  21.614   3.990  1.00  0.00     0.048 C 
HETATM   10  C19         0      44.086  20.453   3.307  1.00  0.00     0.096 C 
HETATM   11  C21         0      44.865  19.508   3.917  1.00  0.00     0.084 C 
ENDROOT
BRANCH  10  12
HETATM   12  O20         0      43.320  20.060   2.214  1.00  0.00    -0.359 OA
HETATM   13  H20         0      43.440  19.180   1.879  1.00  0.00     0.218 HD
ENDBRANCH  10  12
BRANCH   4  14
HETATM   14  C5          0      47.070  16.800   6.119  1.00  0.00     0.025 C 
HETATM   15  C6          0      46.375  16.433   7.262  1.00  0.00     0.004 C 
HETATM   16  C7          0      46.425  15.097   7.646  1.00  0.00     0.026 C 
HETATM   17  C8          0      47.244  14.181   6.995  1.00  0.00     0.112 C 
HETATM   18  C10         0      48.325  14.742   6.327  1.00  0.00     0.112 C 
HETATM   19  C12         0      48.216  16.054   5.880  1.00  0.00     0.028 C 
BRANCH  17  20
HETATM   20  O9          0      46.864  12.857   6.865  1.00  0.00    -0.357 OA
HETATM   21  H9          0      46.949  12.213   7.558  1.00  0.00     0.218 HD
ENDBRANCH  17  20
BRANCH  18  22
HETATM   22  O11         0      49.275  13.866   5.822  1.00  0.00    -0.357 OA
HETATM   23  H11         0      49.452  13.084   6.331  1.00  0.00     0.218 HD
ENDBRANCH  18  22
ENDBRANCH   4  14
BRANCH   8  24
HETATM   24  O17         0      43.375  22.443   6.250  1.00  0.00    -0.359 OA
HETATM   25  H17         0      43.586  22.418   7.176  1.00  0.00     0.218 HD
ENDBRANCH   8  24
TORSDOF 5
ENDMDL
MODEL 7
REMARK VINA RESULT:      -5.6     15.615     17.559
REMARK  5 active torsions:
REMARK  status: ('A' for Active; 'I' for Inactive)
REMARK    1  A    between atoms: C4_4  and  C5_5 
REMARK    2  A    between atoms: C8_8  and  O9_9 
REMARK    3  A    between atoms: C10_11  and  O11_12 
REMARK    4  A    between atoms: C16_18  and  O17_19 
REMARK    5  A    between atoms: C19_22  and  O20_23 
ROOT
HETATM    1  O1          0      46.517  16.801   6.629  1.00  0.00    -0.286 OA
HETATM    2  C2          0      46.428  17.499   5.582  1.00  0.00     0.201 C 
HETATM    3  C3          0      46.105  18.845   5.603  1.00  0.00     0.067 C 
HETATM    4  C4          0      45.914  19.567   4.430  1.00  0.00     0.103 C 
HETATM    5  O13         0      46.066  18.948   3.273  1.00  0.00    -0.307 OA
HETATM    6  C14         0      46.335  17.664   3.196  1.00  0.00     0.107 C 
HETATM    7  C15         0      46.104  16.936   2.038  1.00  0.00     0.049 C 
HETATM    8  C16         0      46.147  15.547   2.038  1.00  0.00     0.093 C 
HETATM    9  C18         0      46.921  14.983   3.045  1.00  0.00     0.048 C 
HETATM   10  C19         0      47.211  15.701   4.197  1.00  0.00     0.096 C 
HETATM   11  C21         0      46.744  16.980   4.336  1.00  0.00     0.084 C 
ENDROOT
BRANCH  10  12
HETATM   12  O20         0      47.590  15.016   5.348  1.00  0.00    -0.359 OA
HETATM   13  H20         0      48.480  15.128   5.660  1.00  0.00     0.218 HD
ENDBRANCH  10  12
BRANCH   4  14
HETATM   14  C5          0      45.027  20.730   4.497  1.00  0.00     0.025 C 
HETATM   15  C6          0      45.497  22.025   4.664  1.00  0.00     0.004 C 
HETATM   16  C7          0      44.854  23.039   3.963  1.00  0.00     0.026 C 
HETATM   17  C8          0      43.700  22.798   3.225  1.00  0.00     0.112 C 
HETATM   18  C10         0      42.980  21.679   3.623  1.00  0.00     0.112 C 
HETATM   19  C12         0      43.664  20.642   4.247  1.00  0.00     0.028 C 
BRANCH  17  20
HETATM   20  O9          0      43.438  23.507   2.066  1.00  0.00    -0.357 OA
HETATM   21  H9          0      42.631  23.985   1.910  1.00  0.00     0.218 HD
ENDBRANCH  17  20
BRANCH  18  22
HETATM   22  O11         0      41.729  21.499   3.050  1.00  0.00    -0.357 OA
HETATM   23  H11         0      41.131  20.913   3.498  1.00  0.00     0.218 HD
ENDBRANCH  18  22
ENDBRANCH   4  14
BRANCH   8  24
HETATM   24  O17         0      45.224  14.789   1.308  1.00  0.00    -0.359 OA
HETATM   25  H17         0      45.066  13.873   1.502  1.00  0.00     0.218 HD
ENDBRANCH   8  24
TORSDOF 5
ENDMDL
MODEL 8
REMARK VINA RESULT:      -5.4     15.588     17.378
REMARK  5 active torsions:
REMARK  status: ('A' for Active; 'I' for Inactive)
REMARK    1  A    between atoms: C4_4  and  C5_5 
REMARK    2  A    between atoms: C8_8  and  O9_9 
REMARK    3  A    between atoms: C10_11  and  O11_12 
REMARK    4  A    between atoms: C16_18  and  O17_19 
REMARK    5  A    between atoms: C19_22  and  O20_23 
ROOT
HETATM    1  O1          0      46.902  15.633   5.618  1.00  0.00    -0.286 OA
HETATM    2  C2          0      46.801  16.449   4.661  1.00  0.00     0.201 C 
HETATM    3  C3          0      46.381  17.757   4.832  1.00  0.00     0.067 C 
HETATM    4  C4          0      46.180  18.605   3.748  1.00  0.00     0.103 C 
HETATM    5  O13         0      46.417  18.147   2.532  1.00  0.00    -0.307 OA
HETATM    6  C14         0      46.781  16.903   2.312  1.00  0.00     0.107 C 
HETATM    7  C15         0      46.645  16.311   1.064  1.00  0.00     0.049 C 
HETATM    8  C16         0      46.788  14.939   0.897  1.00  0.00     0.093 C 
HETATM    9  C18         0      47.565  14.308   1.861  1.00  0.00     0.048 C 
HETATM   10  C19         0      47.760  14.894   3.104  1.00  0.00     0.096 C 
HETATM   11  C21         0      47.198  16.111   3.377  1.00  0.00     0.084 C 
ENDROOT
BRANCH  10  12
HETATM   12  O20         0      48.146  14.099   4.179  1.00  0.00    -0.359 OA
HETATM   13  H20         0      47.889  14.373   5.051  1.00  0.00     0.218 HD
ENDBRANCH  10  12
BRANCH   4  14
HETATM   14  C5          0      45.210  19.689   3.917  1.00  0.00     0.025 C 
HETATM   15  C6          0      44.037  19.770   3.179  1.00  0.00     0.004 C 
HETATM   16  C7          0      42.894  20.217   3.834  1.00  0.00     0.026 C 
HETATM   17  C8          0      42.941  20.695   5.139  1.00  0.00     0.112 C 
HETATM   18  C10         0      44.186  21.160   5.542  1.00  0.00     0.112 C 
HETATM   19  C12         0      45.317  20.633   4.930  1.00  0.00     0.028 C 
BRANCH  17  20
HETATM   20  O9          0      41.874  20.511   6.000  1.00  0.00    -0.357 OA
HETATM   21  H9          0      41.684  19.688   6.437  1.00  0.00     0.218 HD
ENDBRANCH  17  20
BRANCH  18  22
HETATM   22  O11         0      44.246  21.819   6.762  1.00  0.00    -0.357 OA
HETATM   23  H11         0      43.588  22.485   6.923  1.00  0.00     0.218 HD
ENDBRANCH  18  22
ENDBRANCH   4  14
BRANCH   8  24
HETATM   24  O17         0      45.950  14.218   0.039  1.00  0.00    -0.359 OA
HETATM   25  H17         0      45.484  14.639  -0.673  1.00  0.00     0.218 HD
ENDBRANCH   8  24
TORSDOF 5
ENDMDL
MODEL 9
REMARK VINA RESULT:      -5.3     14.175     15.730
REMARK  5 active torsions:
REMARK  status: ('A' for Active; 'I' for Inactive)
REMARK    1  A    between atoms: C4_4  and  C5_5 
REMARK    2  A    between atoms: C8_8  and  O9_9 
REMARK    3  A    between atoms: C10_11  and  O11_12 
REMARK    4  A    between atoms: C16_18  and  O17_19 
REMARK    5  A    between atoms: C19_22  and  O20_23 
ROOT
HETATM    1  O1          0      46.460  18.657   4.671  1.00  0.00    -0.286 OA
HETATM    2  C2          0      46.519  17.399   4.739  1.00  0.00     0.201 C 
HETATM    3  C3          0      46.305  16.700   5.915  1.00  0.00     0.067 C 
HETATM    4  C4          0      46.477  15.322   5.984  1.00  0.00     0.103 C 
HETATM    5  O13         0      46.834  14.671   4.891  1.00  0.00    -0.307 OA
HETATM    6  C14         0      47.085  15.290   3.759  1.00  0.00     0.107 C 
HETATM    7  C15         0      47.827  14.695   2.749  1.00  0.00     0.049 C 
HETATM    8  C16         0      48.304  15.433   1.673  1.00  0.00     0.093 C 
HETATM    9  C18         0      47.587  16.589   1.390  1.00  0.00     0.048 C 
HETATM   10  C19         0      46.797  17.185   2.364  1.00  0.00     0.096 C 
HETATM   11  C21         0      46.711  16.621   3.607  1.00  0.00     0.084 C 
ENDROOT
BRANCH  10  12
HETATM   12  O20         0      46.448  18.526   2.230  1.00  0.00    -0.359 OA
HETATM   13  H20         0      46.302  18.862   1.354  1.00  0.00     0.218 HD
ENDBRANCH  10  12
BRANCH   4  14
HETATM   14  C5          0      46.828  14.756   7.288  1.00  0.00     0.025 C 
HETATM   15  C6          0      45.885  14.482   8.268  1.00  0.00     0.004 C 
HETATM   16  C7          0      46.060  13.329   9.027  1.00  0.00     0.026 C 
HETATM   17  C8          0      47.203  12.546   8.910  1.00  0.00     0.112 C 
HETATM   18  C10         0      48.315  13.213   8.412  1.00  0.00     0.112 C 
HETATM   19  C12         0      48.110  14.312   7.586  1.00  0.00     0.028 C 
BRANCH  17  20
HETATM   20  O9          0      47.143  11.175   9.082  1.00  0.00    -0.357 OA
HETATM   21  H9          0      47.094  10.751   9.931  1.00  0.00     0.218 HD
ENDBRANCH  17  20
BRANCH  18  22
HETATM   22  O11         0      49.525  12.535   8.452  1.00  0.00    -0.357 OA
HETATM   23  H11         0      50.285  13.028   8.738  1.00  0.00     0.218 HD
ENDBRANCH  18  22
ENDBRANCH   4  14
BRANCH   8  24
HETATM   24  O17         0      49.582  15.213   1.147  1.00  0.00    -0.359 OA
HETATM   25  H17         0      50.218  15.914   1.069  1.00  0.00     0.218 HD
ENDBRANCH   8  24
TORSDOF 5
ENDMDL
