MODEL 1
REMARK VINA RESULT:      -8.8      0.000      0.000
REMARK  5 active torsions:
REMARK  status: ('A' for Active; 'I' for Inactive)
REMARK    1  A    between atoms: C4_4  and  C5_5 
REMARK    2  A    between atoms: C8_8  and  O9_9 
REMARK    3  A    between atoms: C10_11  and  O11_12 
REMARK    4  A    between atoms: C16_18  and  O17_19 
REMARK    5  A    between atoms: C19_22  and  O20_23 
ROOT
HETATM    1  O1          0      37.190  81.298  -8.500  1.00  0.00    -0.286 OA
HETATM    2  C2          0      36.391  81.501  -9.455  1.00  0.00     0.201 C 
HETATM    3  C3          0      35.250  82.275  -9.326  1.00  0.00     0.067 C 
HETATM    4  C4          0      34.333  82.400 -10.364  1.00  0.00     0.103 C 
HETATM    5  O13         0      34.576  81.776 -11.503  1.00  0.00    -0.307 OA
HETATM    6  C14         0      35.624  80.999 -11.666  1.00  0.00     0.107 C 
HETATM    7  C15         0      35.681  80.049 -12.675  1.00  0.00     0.049 C 
HETATM    8  C16         0      36.665  79.068 -12.688  1.00  0.00     0.093 C 
HETATM    9  C18         0      37.830  79.395 -12.005  1.00  0.00     0.048 C 
HETATM   10  C19         0      37.819  80.375 -11.021  1.00  0.00     0.096 C 
HETATM   11  C21         0      36.656  81.035 -10.733  1.00  0.00     0.084 C 
ENDROOT
BRANCH  10  12
HETATM   12  O20         0      38.833  80.393 -10.068  1.00  0.00    -0.359 OA
HETATM   13  H20         0      38.951  79.620  -9.530  1.00  0.00     0.218 HD
ENDBRANCH  10  12
BRANCH   4  14
HETATM   14  C5          0      32.945  82.688 -10.000  1.00  0.00     0.025 C 
HETATM   15  C6          0      32.087  81.726  -9.487  1.00  0.00     0.004 C 
HETATM   16  C7          0      31.203  82.118  -8.486  1.00  0.00     0.026 C 
HETATM   17  C8          0      31.081  83.449  -8.101  1.00  0.00     0.112 C 
HETATM   18  C10         0      31.479  84.369  -9.062  1.00  0.00     0.112 C 
HETATM   19  C12         0      32.427  83.977  -9.999  1.00  0.00     0.028 C 
BRANCH  17  20
HETATM   20  O9          0      30.789  83.783  -6.791  1.00  0.00    -0.357 OA
HETATM   21  H9          0      29.905  83.842  -6.446  1.00  0.00     0.218 HD
ENDBRANCH  17  20
BRANCH  18  22
HETATM   22  O11         0      31.203  85.704  -8.805  1.00  0.00    -0.357 OA
HETATM   23  H11         0      31.001  85.936  -7.906  1.00  0.00     0.218 HD
ENDBRANCH  18  22
ENDBRANCH   4  14
BRANCH   8  24
HETATM   24  O17         0      36.375  77.750 -13.059  1.00  0.00    -0.359 OA
HETATM   25  H17         0      36.419  77.465 -13.964  1.00  0.00     0.218 HD
ENDBRANCH   8  24
TORSDOF 5
ENDMDL
MODEL 2
REMARK VINA RESULT:      -8.6      3.306      7.813
REMARK  5 active torsions:
REMARK  status: ('A' for Active; 'I' for Inactive)
REMARK    1  A    between atoms: C4_4  and  C5_5 
REMARK    2  A    between atoms: C8_8  and  O9_9 
REMARK    3  A    between atoms: C10_11  and  O11_12 
REMARK    4  A    between atoms: C16_18  and  O17_19 
REMARK    5  A    between atoms: C19_22  and  O20_23 
ROOT
HETATM    1  O1          0      32.765  85.945  -5.368  1.00  0.00    -0.286 OA
HETATM    2  C2          0      32.609  85.501  -6.538  1.00  0.00     0.201 C 
HETATM    3  C3          0      33.666  85.084  -7.330  1.00  0.00     0.067 C 
HETATM    4  C4          0      33.477  84.696  -8.652  1.00  0.00     0.103 C 
HETATM    5  O13         0      32.253  84.711  -9.149  1.00  0.00    -0.307 OA
HETATM    6  C14         0      31.220  85.134  -8.453  1.00  0.00     0.107 C 
HETATM    7  C15         0      30.039  85.528  -9.063  1.00  0.00     0.049 C 
HETATM    8  C16         0      29.053  86.207  -8.357  1.00  0.00     0.093 C 
HETATM    9  C18         0      29.064  85.996  -6.984  1.00  0.00     0.048 C 
HETATM   10  C19         0      30.217  85.557  -6.347  1.00  0.00     0.096 C 
HETATM   11  C21         0      31.346  85.313  -7.079  1.00  0.00     0.084 C 
ENDROOT
BRANCH  10  12
HETATM   12  O20         0      30.359  85.764  -4.978  1.00  0.00    -0.359 OA
HETATM   13  H20         0      29.980  85.123  -4.389  1.00  0.00     0.218 HD
ENDBRANCH  10  12
BRANCH   4  14
HETATM   14  C5          0      34.610  84.856  -9.565  1.00  0.00     0.025 C 
HETATM   15  C6          0      35.059  86.095  -9.997  1.00  0.00     0.004 C 
HETATM   16  C7          0      36.433  86.274 -10.127  1.00  0.00     0.026 C 
HETATM   17  C8          0      37.324  85.219  -9.963  1.00  0.00     0.112 C 
HETATM   18  C10         0      36.776  83.959 -10.166  1.00  0.00     0.112 C 
HETATM   19  C12         0      35.414  83.789  -9.946  1.00  0.00     0.028 C 
BRANCH  17  20
HETATM   20  O9          0      38.585  85.432  -9.434  1.00  0.00    -0.357 OA
HETATM   21  H9          0      39.338  84.885  -9.627  1.00  0.00     0.218 HD
ENDBRANCH  17  20
BRANCH  18  22
HETATM   22  O11         0      37.658  82.888 -10.201  1.00  0.00    -0.357 OA
HETATM   23  H11         0      37.808  82.483 -11.047  1.00  0.00     0.218 HD
ENDBRANCH  18  22
ENDBRANCH   4  14
BRANCH   8  24
HETATM   24  O17         0      28.341  87.265  -8.934  1.00  0.00    -0.359 OA
HETATM   25  H17         0      28.751  87.871  -9.539  1.00  0.00     0.218 HD
ENDBRANCH   8  24
TORSDOF 5
ENDMDL
MODEL 3
REMARK VINA RESULT:      -8.5      2.989      7.260
REMARK  5 active torsions:
REMARK  status: ('A' for Active; 'I' for Inactive)
REMARK    1  A    between atoms: C4_4  and  C5_5 
REMARK    2  A    between atoms: C8_8  and  O9_9 
REMARK    3  A    between atoms: C10_11  and  O11_12 
REMARK    4  A    between atoms: C16_18  and  O17_19 
REMARK    5  A    between atoms: C19_22  and  O20_23 
ROOT
HETATM    1  O1          0      30.823  86.399 -10.561  1.00  0.00    -0.286 OA
HETATM    2  C2          0      31.589  85.640  -9.906  1.00  0.00     0.201 C 
HETATM    3  C3          0      31.989  84.397 -10.367  1.00  0.00     0.067 C 
HETATM    4  C4          0      32.749  83.539  -9.581  1.00  0.00     0.103 C 
HETATM    5  O13         0      33.112  83.937  -8.374  1.00  0.00    -0.307 OA
HETATM    6  C14         0      32.729  85.091  -7.874  1.00  0.00     0.107 C 
HETATM    7  C15         0      32.757  85.342  -6.510  1.00  0.00     0.049 C 
HETATM    8  C16         0      32.120  86.451  -5.967  1.00  0.00     0.093 C 
HETATM    9  C18         0      31.944  87.514  -6.845  1.00  0.00     0.048 C 
HETATM   10  C19         0      31.957  87.306  -8.217  1.00  0.00     0.096 C 
HETATM   11  C21         0      32.162  86.047  -8.711  1.00  0.00     0.084 C 
ENDROOT
BRANCH  10  12
HETATM   12  O20         0      31.363  88.246  -9.054  1.00  0.00    -0.359 OA
HETATM   13  H20         0      31.823  88.489  -9.848  1.00  0.00     0.218 HD
ENDBRANCH  10  12
BRANCH   4  14
HETATM   14  C5          0      32.623  82.104  -9.842  1.00  0.00     0.025 C 
HETATM   15  C6          0      31.498  81.371  -9.490  1.00  0.00     0.004 C 
HETATM   16  C7          0      31.073  80.382 -10.370  1.00  0.00     0.026 C 
HETATM   17  C8          0      31.814  80.038 -11.496  1.00  0.00     0.112 C 
HETATM   18  C10         0      33.165  80.349 -11.417  1.00  0.00     0.112 C 
HETATM   19  C12         0      33.554  81.399 -10.594  1.00  0.00     0.028 C 
BRANCH  17  20
HETATM   20  O9          0      31.188  79.622 -12.657  1.00  0.00    -0.357 OA
HETATM   21  H9          0      30.377  79.995 -12.983  1.00  0.00     0.218 HD
ENDBRANCH  17  20
BRANCH  18  22
HETATM   22  O11         0      33.982  79.861 -12.427  1.00  0.00    -0.357 OA
HETATM   23  H11         0      34.443  80.502 -12.955  1.00  0.00     0.218 HD
ENDBRANCH  18  22
ENDBRANCH   4  14
BRANCH   8  24
HETATM   24  O17         0      31.420  86.372  -4.758  1.00  0.00    -0.359 OA
HETATM   25  H17         0      31.869  86.370  -3.921  1.00  0.00     0.218 HD
ENDBRANCH   8  24
TORSDOF 5
ENDMDL
MODEL 4
REMARK VINA RESULT:      -8.4      2.231      3.236
REMARK  5 active torsions:
REMARK  status: ('A' for Active; 'I' for Inactive)
REMARK    1  A    between atoms: C4_4  and  C5_5 
REMARK    2  A    between atoms: C8_8  and  O9_9 
REMARK    3  A    between atoms: C10_11  and  O11_12 
REMARK    4  A    between atoms: C16_18  and  O17_19 
REMARK    5  A    between atoms: C19_22  and  O20_23 
ROOT
HETATM    1  O1          0      35.952  86.388  -9.108  1.00  0.00    -0.286 OA
HETATM    2  C2          0      35.472  85.306  -9.543  1.00  0.00     0.201 C 
HETATM    3  C3          0      34.112  85.094  -9.690  1.00  0.00     0.067 C 
HETATM    4  C4          0      33.604  83.857 -10.074  1.00  0.00     0.103 C 
HETATM    5  O13         0      34.450  82.873 -10.321  1.00  0.00    -0.307 OA
HETATM    6  C14         0      35.748  83.010 -10.161  1.00  0.00     0.107 C 
HETATM    7  C15         0      36.588  81.914 -10.027  1.00  0.00     0.049 C 
HETATM    8  C16         0      37.904  82.060  -9.606  1.00  0.00     0.093 C 
HETATM    9  C18         0      38.461  83.310  -9.847  1.00  0.00     0.048 C 
HETATM   10  C19         0      37.649  84.421 -10.033  1.00  0.00     0.096 C 
HETATM   11  C21         0      36.289  84.281  -9.996  1.00  0.00     0.084 C 
ENDROOT
BRANCH  10  12
HETATM   12  O20         0      38.180  85.692  -9.836  1.00  0.00    -0.359 OA
HETATM   13  H20         0      38.506  85.910  -8.972  1.00  0.00     0.218 HD
ENDBRANCH  10  12
BRANCH   4  14
HETATM   14  C5          0      32.246  83.527  -9.639  1.00  0.00     0.025 C 
HETATM   15  C6          0      31.949  82.393  -8.896  1.00  0.00     0.004 C 
HETATM   16  C7          0      30.986  82.510  -7.899  1.00  0.00     0.026 C 
HETATM   17  C8          0      30.245  83.675  -7.733  1.00  0.00     0.112 C 
HETATM   18  C10         0      30.157  84.472  -8.866  1.00  0.00     0.112 C 
HETATM   19  C12         0      31.178  84.398  -9.807  1.00  0.00     0.028 C 
BRANCH  17  20
HETATM   20  O9          0      29.829  84.077  -6.476  1.00  0.00    -0.357 OA
HETATM   21  H9          0      30.278  84.734  -5.957  1.00  0.00     0.218 HD
ENDBRANCH  17  20
BRANCH  18  22
HETATM   22  O11         0      29.279  85.545  -8.813  1.00  0.00    -0.357 OA
HETATM   23  H11         0      29.025  85.935  -9.641  1.00  0.00     0.218 HD
ENDBRANCH  18  22
ENDBRANCH   4  14
BRANCH   8  24
HETATM   24  O17         0      38.492  81.150  -8.721  1.00  0.00    -0.359 OA
HETATM   25  H17         0      38.525  81.314  -7.786  1.00  0.00     0.218 HD
ENDBRANCH   8  24
TORSDOF 5
ENDMDL
MODEL 5
REMARK VINA RESULT:      -8.4      2.444      7.429
REMARK  5 active torsions:
REMARK  status: ('A' for Active; 'I' for Inactive)
REMARK    1  A    between atoms: C4_4  and  C5_5 
REMARK    2  A    between atoms: C8_8  and  O9_9 
REMARK    3  A    between atoms: C10_11  and  O11_12 
REMARK    4  A    between atoms: C16_18  and  O17_19 
REMARK    5  A    between atoms: C19_22  and  O20_23 
ROOT
HETATM    1  O1          0      32.524  86.835 -10.567  1.00  0.00    -0.286 OA
HETATM    2  C2          0      33.128  86.100  -9.738  1.00  0.00     0.201 C 
HETATM    3  C3          0      33.912  85.025 -10.120  1.00  0.00     0.067 C 
HETATM    4  C4          0      34.482  84.169  -9.183  1.00  0.00     0.103 C 
HETATM    5  O13         0      34.281  84.409  -7.899  1.00  0.00    -0.307 OA
HETATM    6  C14         0      33.514  85.394  -7.484  1.00  0.00     0.107 C 
HETATM    7  C15         0      32.981  85.414  -6.203  1.00  0.00     0.049 C 
HETATM    8  C16         0      31.978  86.311  -5.853  1.00  0.00     0.093 C 
HETATM    9  C18         0      31.931  87.467  -6.622  1.00  0.00     0.048 C 
HETATM   10  C19         0      32.496  87.496  -7.889  1.00  0.00     0.096 C 
HETATM   11  C21         0      33.120  86.381  -8.380  1.00  0.00     0.084 C 
ENDROOT
BRANCH  10  12
HETATM   12  O20         0      32.079  88.464  -8.798  1.00  0.00    -0.359 OA
HETATM   13  H20         0      32.621  89.236  -8.906  1.00  0.00     0.218 HD
ENDBRANCH  10  12
BRANCH   4  14
HETATM   14  C5          0      34.754  82.795  -9.609  1.00  0.00     0.025 C 
HETATM   15  C6          0      33.809  82.004 -10.245  1.00  0.00     0.004 C 
HETATM   16  C7          0      34.249  81.168 -11.266  1.00  0.00     0.026 C 
HETATM   17  C8          0      35.602  81.022 -11.557  1.00  0.00     0.112 C 
HETATM   18  C10         0      36.457  81.329 -10.507  1.00  0.00     0.112 C 
HETATM   19  C12         0      36.023  82.234  -9.545  1.00  0.00     0.028 C 
BRANCH  17  20
HETATM   20  O9          0      36.028  80.796 -12.853  1.00  0.00    -0.357 OA
HETATM   21  H9          0      35.475  80.430 -13.534  1.00  0.00     0.218 HD
ENDBRANCH  17  20
BRANCH  18  22
HETATM   22  O11         0      37.799  81.022 -10.678  1.00  0.00    -0.357 OA
HETATM   23  H11         0      38.046  80.109 -10.587  1.00  0.00     0.218 HD
ENDBRANCH  18  22
ENDBRANCH   4  14
BRANCH   8  24
HETATM   24  O17         0      30.911  85.927  -5.034  1.00  0.00    -0.359 OA
HETATM   25  H17         0      30.100  86.421  -5.008  1.00  0.00     0.218 HD
ENDBRANCH   8  24
TORSDOF 5
ENDMDL
MODEL 6
REMARK VINA RESULT:      -8.3      1.744      6.745
REMARK  5 active torsions:
REMARK  status: ('A' for Active; 'I' for Inactive)
REMARK    1  A    between atoms: C4_4  and  C5_5 
REMARK    2  A    between atoms: C8_8  and  O9_9 
REMARK    3  A    between atoms: C10_11  and  O11_12 
REMARK    4  A    between atoms: C16_18  and  O17_19 
REMARK    5  A    between atoms: C19_22  and  O20_23 
ROOT
HETATM    1  O1          0      33.816  82.107  -6.999  1.00  0.00    -0.286 OA
HETATM    2  C2          0      33.949  82.374  -8.225  1.00  0.00     0.201 C 
HETATM    3  C3          0      34.619  81.541  -9.106  1.00  0.00     0.067 C 
HETATM    4  C4          0      34.840  81.907 -10.429  1.00  0.00     0.103 C 
HETATM    5  O13         0      34.378  83.070 -10.852  1.00  0.00    -0.307 OA
HETATM    6  C14         0      33.768  83.914 -10.048  1.00  0.00     0.107 C 
HETATM    7  C15         0      33.642  85.260 -10.361  1.00  0.00     0.049 C 
HETATM    8  C16         0      33.232  86.186  -9.410  1.00  0.00     0.093 C 
HETATM    9  C18         0      32.474  85.662  -8.369  1.00  0.00     0.048 C 
HETATM   10  C19         0      32.541  84.311  -8.059  1.00  0.00     0.096 C 
HETATM   11  C21         0      33.345  83.484  -8.795  1.00  0.00     0.084 C 
ENDROOT
BRANCH  10  12
HETATM   12  O20         0      32.148  83.883  -6.795  1.00  0.00    -0.359 OA
HETATM   13  H20         0      32.574  83.115  -6.433  1.00  0.00     0.218 HD
ENDBRANCH  10  12
BRANCH   4  14
HETATM   14  C5          0      36.005  81.326 -11.099  1.00  0.00     0.025 C 
HETATM   15  C6          0      37.251  81.236 -10.496  1.00  0.00     0.004 C 
HETATM   16  C7          0      38.003  80.090 -10.738  1.00  0.00     0.026 C 
HETATM   17  C8          0      37.592  79.128 -11.654  1.00  0.00     0.112 C 
HETATM   18  C10         0      36.716  79.590 -12.627  1.00  0.00     0.112 C 
HETATM   19  C12         0      35.915  80.685 -12.328  1.00  0.00     0.028 C 
BRANCH  17  20
HETATM   20  O9          0      37.881  77.790 -11.453  1.00  0.00    -0.357 OA
HETATM   21  H9          0      38.475  77.290 -12.001  1.00  0.00     0.218 HD
ENDBRANCH  17  20
BRANCH  18  22
HETATM   22  O11         0      36.424  78.725 -13.671  1.00  0.00    -0.357 OA
HETATM   23  H11         0      37.154  78.259 -14.062  1.00  0.00     0.218 HD
ENDBRANCH  18  22
ENDBRANCH   4  14
BRANCH   8  24
HETATM   24  O17         0      33.814  87.456  -9.330  1.00  0.00    -0.359 OA
HETATM   25  H17         0      34.713  87.576  -9.047  1.00  0.00     0.218 HD
ENDBRANCH   8  24
TORSDOF 5
ENDMDL
MODEL 7
REMARK VINA RESULT:      -8.3      2.644      3.950
REMARK  5 active torsions:
REMARK  status: ('A' for Active; 'I' for Inactive)
REMARK    1  A    between atoms: C4_4  and  C5_5 
REMARK    2  A    between atoms: C8_8  and  O9_9 
REMARK    3  A    between atoms: C10_11  and  O11_12 
REMARK    4  A    between atoms: C16_18  and  O17_19 
REMARK    5  A    between atoms: C19_22  and  O20_23 
ROOT
HETATM    1  O1          0      30.899  80.281 -10.389  1.00  0.00    -0.286 OA
HETATM    2  C2          0      31.702  81.155  -9.963  1.00  0.00     0.201 C 
HETATM    3  C3          0      31.369  82.058  -8.967  1.00  0.00     0.067 C 
HETATM    4  C4          0      32.236  83.077  -8.588  1.00  0.00     0.103 C 
HETATM    5  O13         0      33.412  83.165  -9.185  1.00  0.00    -0.307 OA
HETATM    6  C14         0      33.762  82.357 -10.162  1.00  0.00     0.107 C 
HETATM    7  C15         0      34.784  82.677 -11.043  1.00  0.00     0.049 C 
HETATM    8  C16         0      34.981  81.953 -12.213  1.00  0.00     0.093 C 
HETATM    9  C18         0      34.497  80.650 -12.186  1.00  0.00     0.048 C 
HETATM   10  C19         0      33.507  80.284 -11.284  1.00  0.00     0.096 C 
HETATM   11  C21         0      33.016  81.209 -10.404  1.00  0.00     0.084 C 
ENDROOT
BRANCH  10  12
HETATM   12  O20         0      32.738  79.154 -11.541  1.00  0.00    -0.359 OA
HETATM   13  H20         0      32.677  78.493 -10.861  1.00  0.00     0.218 HD
ENDBRANCH  10  12
BRANCH   4  14
HETATM   14  C5          0      31.639  84.289  -8.025  1.00  0.00     0.025 C 
HETATM   15  C6          0      30.319  84.652  -8.251  1.00  0.00     0.004 C 
HETATM   16  C7          0      29.617  85.220  -7.193  1.00  0.00     0.026 C 
HETATM   17  C8          0      30.241  85.542  -5.992  1.00  0.00     0.112 C 
HETATM   18  C10         0      31.613  85.735  -6.085  1.00  0.00     0.112 C 
HETATM   19  C12         0      32.303  85.087  -7.102  1.00  0.00     0.028 C 
BRANCH  17  20
HETATM   20  O9          0      29.557  85.456  -4.793  1.00  0.00    -0.357 OA
HETATM   21  H9          0      28.631  85.251  -4.727  1.00  0.00     0.218 HD
ENDBRANCH  17  20
BRANCH  18  22
HETATM   22  O11         0      32.254  86.240  -4.963  1.00  0.00    -0.357 OA
HETATM   23  H11         0      32.893  86.928  -5.105  1.00  0.00     0.218 HD
ENDBRANCH  18  22
ENDBRANCH   4  14
BRANCH   8  24
HETATM   24  O17         0      35.323  82.586 -13.414  1.00  0.00    -0.359 OA
HETATM   25  H17         0      34.726  82.611 -14.152  1.00  0.00     0.218 HD
ENDBRANCH   8  24
TORSDOF 5
ENDMDL
MODEL 8
REMARK VINA RESULT:      -8.2      3.753      7.364
REMARK  5 active torsions:
REMARK  status: ('A' for Active; 'I' for Inactive)
REMARK    1  A    between atoms: C4_4  and  C5_5 
REMARK    2  A    between atoms: C8_8  and  O9_9 
REMARK    3  A    between atoms: C10_11  and  O11_12 
REMARK    4  A    between atoms: C16_18  and  O17_19 
REMARK    5  A    between atoms: C19_22  and  O20_23 
ROOT
HETATM    1  O1          0      34.560  87.693  -9.944  1.00  0.00    -0.286 OA
HETATM    2  C2          0      33.500  87.224  -9.445  1.00  0.00     0.201 C 
HETATM    3  C3          0      33.492  86.145  -8.578  1.00  0.00     0.067 C 
HETATM    4  C4          0      32.304  85.583  -8.124  1.00  0.00     0.103 C 
HETATM    5  O13         0      31.160  86.112  -8.520  1.00  0.00    -0.307 OA
HETATM    6  C14         0      31.111  87.113  -9.371  1.00  0.00     0.107 C 
HETATM    7  C15         0      29.959  87.407 -10.088  1.00  0.00     0.049 C 
HETATM    8  C16         0      29.983  88.290 -11.161  1.00  0.00     0.093 C 
HETATM    9  C18         0      31.015  89.220 -11.133  1.00  0.00     0.048 C 
HETATM   10  C19         0      32.161  88.979 -10.388  1.00  0.00     0.096 C 
HETATM   11  C21         0      32.269  87.825  -9.662  1.00  0.00     0.084 C 
ENDROOT
BRANCH  10  12
HETATM   12  O20         0      33.331  89.667 -10.699  1.00  0.00    -0.359 OA
HETATM   13  H20         0      34.075  89.563 -10.119  1.00  0.00     0.218 HD
ENDBRANCH  10  12
BRANCH   4  14
HETATM   14  C5          0      32.333  84.169  -7.746  1.00  0.00     0.025 C 
HETATM   15  C6          0      31.191  83.385  -7.679  1.00  0.00     0.004 C 
HETATM   16  C7          0      31.288  82.066  -8.113  1.00  0.00     0.026 C 
HETATM   17  C8          0      32.508  81.505  -8.474  1.00  0.00     0.112 C 
HETATM   18  C10         0      33.619  82.126  -7.919  1.00  0.00     0.112 C 
HETATM   19  C12         0      33.521  83.469  -7.573  1.00  0.00     0.028 C 
BRANCH  17  20
HETATM   20  O9          0      32.581  80.548  -9.470  1.00  0.00    -0.357 OA
HETATM   21  H9          0      33.278  79.906  -9.536  1.00  0.00     0.218 HD
ENDBRANCH  17  20
BRANCH  18  22
HETATM   22  O11         0      34.843  81.496  -8.092  1.00  0.00    -0.357 OA
HETATM   23  H11         0      35.237  81.552  -8.955  1.00  0.00     0.218 HD
ENDBRANCH  18  22
ENDBRANCH   4  14
BRANCH   8  24
HETATM   24  O17         0      29.245  88.044 -12.324  1.00  0.00    -0.359 OA
HETATM   25  H17         0      28.295  88.065 -12.327  1.00  0.00     0.218 HD
ENDBRANCH   8  24
TORSDOF 5
ENDMDL
MODEL 9
REMARK VINA RESULT:      -8.2      2.698      4.332
REMARK  5 active torsions:
REMARK  status: ('A' for Active; 'I' for Inactive)
REMARK    1  A    between atoms: C4_4  and  C5_5 
REMARK    2  A    between atoms: C8_8  and  O9_9 
REMARK    3  A    between atoms: C10_11  and  O11_12 
REMARK    4  A    between atoms: C16_18  and  O17_19 
REMARK    5  A    between atoms: C19_22  and  O20_23 
ROOT
HETATM    1  O1          0      34.087  82.135 -11.264  1.00  0.00    -0.286 OA
HETATM    2  C2          0      34.070  83.012 -10.357  1.00  0.00     0.201 C 
HETATM    3  C3          0      32.896  83.513  -9.820  1.00  0.00     0.067 C 
HETATM    4  C4          0      32.903  84.552  -8.896  1.00  0.00     0.103 C 
HETATM    5  O13         0      34.064  85.053  -8.512  1.00  0.00    -0.307 OA
HETATM    6  C14         0      35.205  84.639  -9.019  1.00  0.00     0.107 C 
HETATM    7  C15         0      36.361  85.402  -8.935  1.00  0.00     0.049 C 
HETATM    8  C16         0      37.490  85.086  -9.683  1.00  0.00     0.093 C 
HETATM    9  C18         0      37.587  83.753 -10.064  1.00  0.00     0.048 C 
HETATM   10  C19         0      36.457  82.949 -10.113  1.00  0.00     0.096 C 
HETATM   11  C21         0      35.239  83.468  -9.768  1.00  0.00     0.084 C 
ENDROOT
BRANCH  10  12
HETATM   12  O20         0      36.478  81.793 -10.887  1.00  0.00    -0.359 OA
HETATM   13  H20         0      36.757  81.868 -11.792  1.00  0.00     0.218 HD
ENDBRANCH  10  12
BRANCH   4  14
HETATM   14  C5          0      31.714  85.405  -8.838  1.00  0.00     0.025 C 
HETATM   15  C6          0      30.456  84.969  -9.227  1.00  0.00     0.004 C 
HETATM   16  C7          0      29.365  85.395  -8.476  1.00  0.00     0.026 C 
HETATM   17  C8          0      29.503  86.329  -7.455  1.00  0.00     0.112 C 
HETATM   18  C10         0      30.620  87.147  -7.564  1.00  0.00     0.112 C 
HETATM   19  C12         0      31.728  86.662  -8.248  1.00  0.00     0.028 C 
BRANCH  17  20
HETATM   20  O9          0      28.696  86.276  -6.333  1.00  0.00    -0.357 OA
HETATM   21  H9          0      28.050  85.596  -6.178  1.00  0.00     0.218 HD
ENDBRANCH  17  20
BRANCH  18  22
HETATM   22  O11         0      30.705  88.215  -6.683  1.00  0.00    -0.357 OA
HETATM   23  H11         0      30.074  88.237  -5.972  1.00  0.00     0.218 HD
ENDBRANCH  18  22
ENDBRANCH   4  14
BRANCH   8  24
HETATM   24  O17         0      38.269  86.082 -10.282  1.00  0.00    -0.359 OA
HETATM   25  H17         0      37.877  86.806 -10.755  1.00  0.00     0.218 HD
ENDBRANCH   8  24
TORSDOF 5
ENDMDL
