MODEL 1
REMARK VINA RESULT:      -5.2      0.000      0.000
REMARK  5 active torsions:
REMARK  status: ('A' for Active; 'I' for Inactive)
REMARK    1  A    between atoms: C4_4  and  C5_5 
REMARK    2  A    between atoms: C8_8  and  O9_9 
REMARK    3  A    between atoms: C10_11  and  O11_12 
REMARK    4  A    between atoms: C16_18  and  O17_19 
REMARK    5  A    between atoms: C19_22  and  O20_23 
ROOT
HETATM    1  O1          0      20.287  67.177  15.877  1.00  0.00    -0.286 OA
HETATM    2  C2          0      20.810  67.609  16.940  1.00  0.00     0.201 C 
HETATM    3  C3          0      20.991  68.958  17.194  1.00  0.00     0.067 C 
HETATM    4  C4          0      21.664  69.402  18.327  1.00  0.00     0.103 C 
HETATM    5  O13         0      22.119  68.508  19.186  1.00  0.00    -0.307 OA
HETATM    6  C14         0      22.007  67.215  18.975  1.00  0.00     0.107 C 
HETATM    7  C15         0      22.807  66.294  19.636  1.00  0.00     0.049 C 
HETATM    8  C16         0      22.865  64.966  19.231  1.00  0.00     0.093 C 
HETATM    9  C18         0      21.748  64.514  18.538  1.00  0.00     0.048 C 
HETATM   10  C19         0      20.900  65.412  17.904  1.00  0.00     0.096 C 
HETATM   11  C21         0      21.157  66.754  17.976  1.00  0.00     0.084 C 
ENDROOT
BRANCH  10  12
HETATM   12  O20         0      20.071  64.959  16.882  1.00  0.00    -0.359 OA
HETATM   13  H20         0      19.884  65.553  16.165  1.00  0.00     0.218 HD
ENDBRANCH  10  12
BRANCH   4  14
HETATM   14  C5          0      22.331  70.703  18.243  1.00  0.00     0.025 C 
HETATM   15  C6          0      22.326  71.619  19.284  1.00  0.00     0.004 C 
HETATM   16  C7          0      23.491  72.346  19.509  1.00  0.00     0.026 C 
HETATM   17  C8          0      24.579  72.264  18.646  1.00  0.00     0.112 C 
HETATM   18  C10         0      24.268  71.851  17.358  1.00  0.00     0.112 C 
HETATM   19  C12         0      23.144  71.054  17.173  1.00  0.00     0.028 C 
BRANCH  17  20
HETATM   20  O9          0      25.872  72.385  19.123  1.00  0.00    -0.357 OA
HETATM   21  H9          0      26.296  73.218  19.295  1.00  0.00     0.218 HD
ENDBRANCH  17  20
BRANCH  18  22
HETATM   22  O11         0      25.278  71.933  16.410  1.00  0.00    -0.357 OA
HETATM   23  H11         0      26.091  72.344  16.682  1.00  0.00     0.218 HD
ENDBRANCH  18  22
ENDBRANCH   4  14
BRANCH   8  24
HETATM   24  O17         0      24.073  64.259  19.221  1.00  0.00    -0.359 OA
HETATM   25  H17         0      24.172  63.434  19.682  1.00  0.00     0.218 HD
ENDBRANCH   8  24
TORSDOF 5
ENDMDL
MODEL 2
REMARK VINA RESULT:      -5.1      3.770      6.704
REMARK  5 active torsions:
REMARK  status: ('A' for Active; 'I' for Inactive)
REMARK    1  A    between atoms: C4_4  and  C5_5 
REMARK    2  A    between atoms: C8_8  and  O9_9 
REMARK    3  A    between atoms: C10_11  and  O11_12 
REMARK    4  A    between atoms: C16_18  and  O17_19 
REMARK    5  A    between atoms: C19_22  and  O20_23 
ROOT
HETATM    1  O1          0      26.023  72.796  19.559  1.00  0.00    -0.286 OA
HETATM    2  C2          0      24.835  72.631  19.949  1.00  0.00     0.201 C 
HETATM    3  C3          0      24.429  72.888  21.248  1.00  0.00     0.067 C 
HETATM    4  C4          0      23.138  72.600  21.678  1.00  0.00     0.103 C 
HETATM    5  O13         0      22.280  72.088  20.814  1.00  0.00    -0.307 OA
HETATM    6  C14         0      22.624  71.791  19.580  1.00  0.00     0.107 C 
HETATM    7  C15         0      21.883  70.909  18.807  1.00  0.00     0.049 C 
HETATM    8  C16         0      22.380  70.403  17.611  1.00  0.00     0.093 C 
HETATM    9  C18         0      23.344  71.193  16.996  1.00  0.00     0.048 C 
HETATM   10  C19         0      24.072  72.118  17.731  1.00  0.00     0.096 C 
HETATM   11  C21         0      23.827  72.267  19.069  1.00  0.00     0.084 C 
ENDROOT
BRANCH  10  12
HETATM   12  O20         0      25.291  72.573  17.237  1.00  0.00    -0.359 OA
HETATM   13  H20         0      25.780  71.998  16.660  1.00  0.00     0.218 HD
ENDBRANCH  10  12
BRANCH   4  14
HETATM   14  C5          0      22.954  72.321  23.103  1.00  0.00     0.025 C 
HETATM   15  C6          0      22.689  71.050  23.592  1.00  0.00     0.004 C 
HETATM   16  C7          0      23.289  70.683  24.793  1.00  0.00     0.026 C 
HETATM   17  C8          0      24.018  71.592  25.552  1.00  0.00     0.112 C 
HETATM   18  C10         0      23.699  72.924  25.325  1.00  0.00     0.112 C 
HETATM   19  C12         0      23.180  73.277  24.085  1.00  0.00     0.028 C 
BRANCH  17  20
HETATM   20  O9          0      25.107  71.179  26.298  1.00  0.00    -0.357 OA
HETATM   21  H9          0      25.959  70.981  25.925  1.00  0.00     0.218 HD
ENDBRANCH  17  20
BRANCH  18  22
HETATM   22  O11         0      24.258  73.859  26.185  1.00  0.00    -0.357 OA
HETATM   23  H11         0      23.795  74.683  26.283  1.00  0.00     0.218 HD
ENDBRANCH  18  22
ENDBRANCH   4  14
BRANCH   8  24
HETATM   24  O17         0      22.178  69.068  17.244  1.00  0.00    -0.359 OA
HETATM   25  H17         0      21.315  68.734  17.033  1.00  0.00     0.218 HD
ENDBRANCH   8  24
TORSDOF 5
ENDMDL
MODEL 3
REMARK VINA RESULT:      -5.0      3.705      6.557
REMARK  5 active torsions:
REMARK  status: ('A' for Active; 'I' for Inactive)
REMARK    1  A    between atoms: C4_4  and  C5_5 
REMARK    2  A    between atoms: C8_8  and  O9_9 
REMARK    3  A    between atoms: C10_11  and  O11_12 
REMARK    4  A    between atoms: C16_18  and  O17_19 
REMARK    5  A    between atoms: C19_22  and  O20_23 
ROOT
HETATM    1  O1          0      26.024  73.062  18.600  1.00  0.00    -0.286 OA
HETATM    2  C2          0      25.088  72.978  19.441  1.00  0.00     0.201 C 
HETATM    3  C3          0      25.074  73.699  20.623  1.00  0.00     0.067 C 
HETATM    4  C4          0      24.082  73.512  21.579  1.00  0.00     0.103 C 
HETATM    5  O13         0      23.122  72.636  21.335  1.00  0.00    -0.307 OA
HETATM    6  C14         0      23.109  71.899  20.246  1.00  0.00     0.107 C 
HETATM    7  C15         0      22.366  70.731  20.164  1.00  0.00     0.049 C 
HETATM    8  C16         0      22.550  69.830  19.121  1.00  0.00     0.093 C 
HETATM    9  C18         0      23.074  70.379  17.957  1.00  0.00     0.048 C 
HETATM   10  C19         0      23.784  71.571  17.997  1.00  0.00     0.096 C 
HETATM   11  C21         0      23.954  72.221  19.189  1.00  0.00     0.084 C 
ENDROOT
BRANCH  10  12
HETATM   12  O20         0      24.654  71.881  16.956  1.00  0.00    -0.359 OA
HETATM   13  H20         0      24.698  71.281  16.220  1.00  0.00     0.218 HD
ENDBRANCH  10  12
BRANCH   4  14
HETATM   14  C5          0      24.428  73.809  22.970  1.00  0.00     0.025 C 
HETATM   15  C6          0      23.879  73.124  24.044  1.00  0.00     0.004 C 
HETATM   16  C7          0      24.711  72.841  25.122  1.00  0.00     0.026 C 
HETATM   17  C8          0      26.009  73.338  25.191  1.00  0.00     0.112 C 
HETATM   18  C10         0      26.234  74.479  24.434  1.00  0.00     0.112 C 
HETATM   19  C12         0      25.442  74.694  23.312  1.00  0.00     0.028 C 
BRANCH  17  20
HETATM   20  O9          0      27.015  72.609  25.801  1.00  0.00    -0.357 OA
HETATM   21  H9          0      26.859  71.845  26.344  1.00  0.00     0.218 HD
ENDBRANCH  17  20
BRANCH  18  22
HETATM   22  O11         0      27.450  75.122  24.613  1.00  0.00    -0.357 OA
HETATM   23  H11         0      27.437  75.940  25.097  1.00  0.00     0.218 HD
ENDBRANCH  18  22
ENDBRANCH   4  14
BRANCH   8  24
HETATM   24  O17         0      22.532  68.448  19.340  1.00  0.00    -0.359 OA
HETATM   25  H17         0      22.619  68.079  20.211  1.00  0.00     0.218 HD
ENDBRANCH   8  24
TORSDOF 5
ENDMDL
MODEL 4
REMARK VINA RESULT:      -4.9     13.532     15.420
REMARK  5 active torsions:
REMARK  status: ('A' for Active; 'I' for Inactive)
REMARK    1  A    between atoms: C4_4  and  C5_5 
REMARK    2  A    between atoms: C8_8  and  O9_9 
REMARK    3  A    between atoms: C10_11  and  O11_12 
REMARK    4  A    between atoms: C16_18  and  O17_19 
REMARK    5  A    between atoms: C19_22  and  O20_23 
ROOT
HETATM    1  O1          0      35.001  64.883  25.999  1.00  0.00    -0.286 OA
HETATM    2  C2          0      35.576  65.999  25.879  1.00  0.00     0.201 C 
HETATM    3  C3          0      34.895  67.203  25.928  1.00  0.00     0.067 C 
HETATM    4  C4          0      35.536  68.414  25.691  1.00  0.00     0.103 C 
HETATM    5  O13         0      36.832  68.405  25.433  1.00  0.00    -0.307 OA
HETATM    6  C14         0      37.519  67.288  25.338  1.00  0.00     0.107 C 
HETATM    7  C15         0      38.745  67.236  24.691  1.00  0.00     0.049 C 
HETATM    8  C16         0      39.342  66.022  24.371  1.00  0.00     0.093 C 
HETATM    9  C18         0      38.953  64.950  25.165  1.00  0.00     0.048 C 
HETATM   10  C19         0      37.754  64.988  25.863  1.00  0.00     0.096 C 
HETATM   11  C21         0      36.956  66.097  25.784  1.00  0.00     0.084 C 
ENDROOT
BRANCH  10  12
HETATM   12  O20         0      37.172  63.795  26.282  1.00  0.00    -0.359 OA
HETATM   13  H20         0      36.802  63.763  27.156  1.00  0.00     0.218 HD
ENDBRANCH  10  12
BRANCH   4  14
HETATM   14  C5          0      34.721  69.513  25.170  1.00  0.00     0.025 C 
HETATM   15  C6          0      35.250  70.549  24.414  1.00  0.00     0.004 C 
HETATM   16  C7          0      34.486  71.031  23.357  1.00  0.00     0.026 C 
HETATM   17  C8          0      33.184  70.593  23.139  1.00  0.00     0.112 C 
HETATM   18  C10         0      32.551  70.075  24.261  1.00  0.00     0.112 C 
HETATM   19  C12         0      33.336  69.522  25.266  1.00  0.00     0.028 C 
BRANCH  17  20
HETATM   20  O9          0      32.674  70.498  21.856  1.00  0.00    -0.357 OA
HETATM   21  H9          0      31.746  70.443  21.660  1.00  0.00     0.218 HD
ENDBRANCH  17  20
BRANCH  18  22
HETATM   22  O11         0      31.196  69.800  24.146  1.00  0.00    -0.357 OA
HETATM   23  H11         0      30.883  69.003  24.559  1.00  0.00     0.218 HD
ENDBRANCH  18  22
ENDBRANCH   4  14
BRANCH   8  24
HETATM   24  O17         0      40.004  65.834  23.153  1.00  0.00    -0.359 OA
HETATM   25  H17         0      40.576  65.090  23.006  1.00  0.00     0.218 HD
ENDBRANCH   8  24
TORSDOF 5
ENDMDL
MODEL 5
REMARK VINA RESULT:      -4.9      2.432      3.948
REMARK  5 active torsions:
REMARK  status: ('A' for Active; 'I' for Inactive)
REMARK    1  A    between atoms: C4_4  and  C5_5 
REMARK    2  A    between atoms: C8_8  and  O9_9 
REMARK    3  A    between atoms: C10_11  and  O11_12 
REMARK    4  A    between atoms: C16_18  and  O17_19 
REMARK    5  A    between atoms: C19_22  and  O20_23 
ROOT
HETATM    1  O1          0      21.627  71.731  16.321  1.00  0.00    -0.286 OA
HETATM    2  C2          0      21.757  71.262  17.485  1.00  0.00     0.201 C 
HETATM    3  C3          0      22.262  72.003  18.541  1.00  0.00     0.067 C 
HETATM    4  C4          0      22.491  71.432  19.787  1.00  0.00     0.103 C 
HETATM    5  O13         0      22.198  70.156  19.965  1.00  0.00    -0.307 OA
HETATM    6  C14         0      21.752  69.398  18.987  1.00  0.00     0.107 C 
HETATM    7  C15         0      21.823  68.014  19.044  1.00  0.00     0.049 C 
HETATM    8  C16         0      21.591  67.232  17.918  1.00  0.00     0.093 C 
HETATM    9  C18         0      20.798  67.827  16.944  1.00  0.00     0.048 C 
HETATM   10  C19         0      20.668  69.208  16.887  1.00  0.00     0.096 C 
HETATM   11  C21         0      21.311  69.989  17.807  1.00  0.00     0.084 C 
ENDROOT
BRANCH  10  12
HETATM   12  O20         0      20.257  69.804  15.698  1.00  0.00    -0.359 OA
HETATM   13  H20         0      19.785  70.626  15.752  1.00  0.00     0.218 HD
ENDBRANCH  10  12
BRANCH   4  14
HETATM   14  C5          0      23.530  72.039  20.621  1.00  0.00     0.025 C 
HETATM   15  C6          0      24.672  72.624  20.093  1.00  0.00     0.004 C 
HETATM   16  C7          0      25.145  73.780  20.704  1.00  0.00     0.026 C 
HETATM   17  C8          0      24.585  74.265  21.881  1.00  0.00     0.112 C 
HETATM   18  C10         0      23.918  73.313  22.641  1.00  0.00     0.112 C 
HETATM   19  C12         0      23.381  72.208  21.991  1.00  0.00     0.028 C 
BRANCH  17  20
HETATM   20  O9          0      24.531  75.624  22.133  1.00  0.00    -0.357 OA
HETATM   21  H9          0      23.858  76.037  22.663  1.00  0.00     0.218 HD
ENDBRANCH  17  20
BRANCH  18  22
HETATM   22  O11         0      23.506  73.697  23.909  1.00  0.00    -0.357 OA
HETATM   23  H11         0      23.651  74.604  24.152  1.00  0.00     0.218 HD
ENDBRANCH  18  22
ENDBRANCH   4  14
BRANCH   8  24
HETATM   24  O17         0      22.363  66.097  17.646  1.00  0.00    -0.359 OA
HETATM   25  H17         0      23.134  66.139  17.093  1.00  0.00     0.218 HD
ENDBRANCH   8  24
TORSDOF 5
ENDMDL
MODEL 6
REMARK VINA RESULT:      -4.9     12.953     15.992
REMARK  5 active torsions:
REMARK  status: ('A' for Active; 'I' for Inactive)
REMARK    1  A    between atoms: C4_4  and  C5_5 
REMARK    2  A    between atoms: C8_8  and  O9_9 
REMARK    3  A    between atoms: C10_11  and  O11_12 
REMARK    4  A    between atoms: C16_18  and  O17_19 
REMARK    5  A    between atoms: C19_22  and  O20_23 
ROOT
HETATM    1  O1          0      38.441  69.274  23.766  1.00  0.00    -0.286 OA
HETATM    2  C2          0      37.394  68.916  24.371  1.00  0.00     0.201 C 
HETATM    3  C3          0      37.267  67.681  24.985  1.00  0.00     0.067 C 
HETATM    4  C4          0      36.067  67.271  25.555  1.00  0.00     0.103 C 
HETATM    5  O13         0      35.035  68.095  25.524  1.00  0.00    -0.307 OA
HETATM    6  C14         0      35.091  69.263  24.921  1.00  0.00     0.107 C 
HETATM    7  C15         0      33.944  69.942  24.536  1.00  0.00     0.049 C 
HETATM    8  C16         0      34.006  71.038  23.683  1.00  0.00     0.093 C 
HETATM    9  C18         0      35.221  71.711  23.680  1.00  0.00     0.048 C 
HETATM   10  C19         0      36.381  71.076  24.103  1.00  0.00     0.096 C 
HETATM   11  C21         0      36.324  69.781  24.543  1.00  0.00     0.084 C 
ENDROOT
BRANCH  10  12
HETATM   12  O20         0      37.616  71.575  23.700  1.00  0.00    -0.359 OA
HETATM   13  H20         0      38.347  70.970  23.656  1.00  0.00     0.218 HD
ENDBRANCH  10  12
BRANCH   4  14
HETATM   14  C5          0      35.817  65.830  25.626  1.00  0.00     0.025 C 
HETATM   15  C6          0      36.297  65.033  26.654  1.00  0.00     0.004 C 
HETATM   16  C7          0      35.470  64.017  27.122  1.00  0.00     0.026 C 
HETATM   17  C8          0      34.263  63.716  26.502  1.00  0.00     0.112 C 
HETATM   18  C10         0      34.181  64.107  25.172  1.00  0.00     0.112 C 
HETATM   19  C12         0      34.956  65.181  24.751  1.00  0.00     0.028 C 
BRANCH  17  20
HETATM   20  O9          0      33.183  63.259  27.237  1.00  0.00    -0.357 OA
HETATM   21  H9          0      32.347  63.020  26.853  1.00  0.00     0.218 HD
ENDBRANCH  17  20
BRANCH  18  22
HETATM   22  O11         0      33.078  63.666  24.454  1.00  0.00    -0.357 OA
HETATM   23  H11         0      32.916  64.083  23.616  1.00  0.00     0.218 HD
ENDBRANCH  18  22
ENDBRANCH   4  14
BRANCH   8  24
HETATM   24  O17         0      33.055  71.232  22.675  1.00  0.00    -0.359 OA
HETATM   25  H17         0      32.915  72.083  22.278  1.00  0.00     0.218 HD
ENDBRANCH   8  24
TORSDOF 5
ENDMDL
MODEL 7
REMARK VINA RESULT:      -4.9     11.866     12.928
REMARK  5 active torsions:
REMARK  status: ('A' for Active; 'I' for Inactive)
REMARK    1  A    between atoms: C4_4  and  C5_5 
REMARK    2  A    between atoms: C8_8  and  O9_9 
REMARK    3  A    between atoms: C10_11  and  O11_12 
REMARK    4  A    between atoms: C16_18  and  O17_19 
REMARK    5  A    between atoms: C19_22  and  O20_23 
ROOT
HETATM    1  O1          0      30.138  67.912  25.913  1.00  0.00    -0.286 OA
HETATM    2  C2          0      31.383  67.886  25.711  1.00  0.00     0.201 C 
HETATM    3  C3          0      32.108  69.009  25.347  1.00  0.00     0.067 C 
HETATM    4  C4          0      33.459  68.932  25.030  1.00  0.00     0.103 C 
HETATM    5  O13         0      34.063  67.759  25.102  1.00  0.00    -0.307 OA
HETATM    6  C14         0      33.414  66.657  25.406  1.00  0.00     0.107 C 
HETATM    7  C15         0      33.921  65.402  25.099  1.00  0.00     0.049 C 
HETATM    8  C16         0      33.129  64.263  25.188  1.00  0.00     0.093 C 
HETATM    9  C18         0      32.056  64.360  26.065  1.00  0.00     0.048 C 
HETATM   10  C19         0      31.553  65.602  26.429  1.00  0.00     0.096 C 
HETATM   11  C21         0      32.130  66.740  25.935  1.00  0.00     0.084 C 
ENDROOT
BRANCH  10  12
HETATM   12  O20         0      30.258  65.691  26.929  1.00  0.00    -0.359 OA
HETATM   13  H20         0      30.149  65.905  27.848  1.00  0.00     0.218 HD
ENDBRANCH  10  12
BRANCH   4  14
HETATM   14  C5          0      33.991  69.944  24.115  1.00  0.00     0.025 C 
HETATM   15  C6          0      33.207  70.950  23.569  1.00  0.00     0.004 C 
HETATM   16  C7          0      33.780  72.211  23.433  1.00  0.00     0.026 C 
HETATM   17  C8          0      35.125  72.434  23.705  1.00  0.00     0.112 C 
HETATM   18  C10         0      35.929  71.305  23.619  1.00  0.00     0.112 C 
HETATM   19  C12         0      35.348  70.062  23.844  1.00  0.00     0.028 C 
BRANCH  17  20
HETATM   20  O9          0      35.553  73.644  24.221  1.00  0.00    -0.357 OA
HETATM   21  H9          0      36.379  73.762  24.675  1.00  0.00     0.218 HD
ENDBRANCH  17  20
BRANCH  18  22
HETATM   22  O11         0      37.300  71.503  23.694  1.00  0.00    -0.357 OA
HETATM   23  H11         0      37.599  72.390  23.857  1.00  0.00     0.218 HD
ENDBRANCH  18  22
ENDBRANCH   4  14
BRANCH   8  24
HETATM   24  O17         0      33.208  63.244  24.231  1.00  0.00    -0.359 OA
HETATM   25  H17         0      32.434  62.786  23.926  1.00  0.00     0.218 HD
ENDBRANCH   8  24
TORSDOF 5
ENDMDL
MODEL 8
REMARK VINA RESULT:      -4.8      3.918      6.615
REMARK  5 active torsions:
REMARK  status: ('A' for Active; 'I' for Inactive)
REMARK    1  A    between atoms: C4_4  and  C5_5 
REMARK    2  A    between atoms: C8_8  and  O9_9 
REMARK    3  A    between atoms: C10_11  and  O11_12 
REMARK    4  A    between atoms: C16_18  and  O17_19 
REMARK    5  A    between atoms: C19_22  and  O20_23 
ROOT
HETATM    1  O1          0      20.512  72.466  20.558  1.00  0.00    -0.286 OA
HETATM    2  C2          0      21.760  72.614  20.674  1.00  0.00     0.201 C 
HETATM    3  C3          0      22.333  73.417  21.645  1.00  0.00     0.067 C 
HETATM    4  C4          0      23.704  73.644  21.686  1.00  0.00     0.103 C 
HETATM    5  O13         0      24.472  73.059  20.784  1.00  0.00    -0.307 OA
HETATM    6  C14         0      23.975  72.317  19.819  1.00  0.00     0.107 C 
HETATM    7  C15         0      24.696  72.039  18.667  1.00  0.00     0.049 C 
HETATM    8  C16         0      24.086  71.478  17.551  1.00  0.00     0.093 C 
HETATM    9  C18         0      22.932  70.750  17.817  1.00  0.00     0.048 C 
HETATM   10  C19         0      22.212  70.971  18.983  1.00  0.00     0.096 C 
HETATM   11  C21         0      22.650  71.901  19.886  1.00  0.00     0.084 C 
ENDROOT
BRANCH  10  12
HETATM   12  O20         0      20.877  70.583  19.041  1.00  0.00    -0.359 OA
HETATM   13  H20         0      20.434  70.386  18.224  1.00  0.00     0.218 HD
ENDBRANCH  10  12
BRANCH   4  14
HETATM   14  C5          0      24.157  74.898  22.291  1.00  0.00     0.025 C 
HETATM   15  C6          0      23.302  75.763  22.959  1.00  0.00     0.004 C 
HETATM   16  C7          0      23.787  76.397  24.098  1.00  0.00     0.026 C 
HETATM   17  C8          0      25.118  76.282  24.486  1.00  0.00     0.112 C 
HETATM   18  C10         0      25.994  75.952  23.460  1.00  0.00     0.112 C 
HETATM   19  C12         0      25.500  75.243  22.372  1.00  0.00     0.028 C 
BRANCH  17  20
HETATM   20  O9          0      25.469  76.291  25.824  1.00  0.00    -0.357 OA
HETATM   21  H9          0      25.768  77.066  26.286  1.00  0.00     0.218 HD
ENDBRANCH  17  20
BRANCH  18  22
HETATM   22  O11         0      27.350  76.009  23.750  1.00  0.00    -0.357 OA
HETATM   23  H11         0      27.883  76.573  23.201  1.00  0.00     0.218 HD
ENDBRANCH  18  22
ENDBRANCH   4  14
BRANCH   8  24
HETATM   24  O17         0      24.411  71.895  16.255  1.00  0.00    -0.359 OA
HETATM   25  H17         0      23.742  72.062  15.602  1.00  0.00     0.218 HD
ENDBRANCH   8  24
TORSDOF 5
ENDMDL
MODEL 9
REMARK VINA RESULT:      -4.7      4.234      7.779
REMARK  5 active torsions:
REMARK  status: ('A' for Active; 'I' for Inactive)
REMARK    1  A    between atoms: C4_4  and  C5_5 
REMARK    2  A    between atoms: C8_8  and  O9_9 
REMARK    3  A    between atoms: C10_11  and  O11_12 
REMARK    4  A    between atoms: C16_18  and  O17_19 
REMARK    5  A    between atoms: C19_22  and  O20_23 
ROOT
HETATM    1  O1          0      23.142  71.473  24.453  1.00  0.00    -0.286 OA
HETATM    2  C2          0      23.075  72.145  23.387  1.00  0.00     0.201 C 
HETATM    3  C3          0      22.605  71.619  22.196  1.00  0.00     0.067 C 
HETATM    4  C4          0      22.637  72.350  21.014  1.00  0.00     0.103 C 
HETATM    5  O13         0      23.113  73.583  21.043  1.00  0.00    -0.307 OA
HETATM    6  C14         0      23.606  74.116  22.138  1.00  0.00     0.107 C 
HETATM    7  C15         0      24.451  75.216  22.099  1.00  0.00     0.049 C 
HETATM    8  C16         0      25.167  75.617  23.221  1.00  0.00     0.093 C 
HETATM    9  C18         0      24.615  75.234  24.437  1.00  0.00     0.048 C 
HETATM   10  C19         0      23.729  74.167  24.505  1.00  0.00     0.096 C 
HETATM   11  C21         0      23.384  73.497  23.363  1.00  0.00     0.084 C 
ENDROOT
BRANCH  10  12
HETATM   12  O20         0      23.530  73.525  25.724  1.00  0.00    -0.359 OA
HETATM   13  H20         0      23.067  72.696  25.720  1.00  0.00     0.218 HD
ENDBRANCH  10  12
BRANCH   4  14
HETATM   14  C5          0      22.711  71.595  19.762  1.00  0.00     0.025 C 
HETATM   15  C6          0      21.604  70.999  19.176  1.00  0.00     0.004 C 
HETATM   16  C7          0      21.511  71.035  17.789  1.00  0.00     0.026 C 
HETATM   17  C8          0      22.546  71.526  17.001  1.00  0.00     0.112 C 
HETATM   18  C10         0      23.797  71.495  17.602  1.00  0.00     0.112 C 
HETATM   19  C12         0      23.865  71.546  18.989  1.00  0.00     0.028 C 
BRANCH  17  20
HETATM   20  O9          0      22.282  72.178  15.809  1.00  0.00    -0.357 OA
HETATM   21  H9          0      22.811  72.891  15.469  1.00  0.00     0.218 HD
ENDBRANCH  17  20
BRANCH  18  22
HETATM   22  O11         0      24.888  71.794  16.798  1.00  0.00    -0.357 OA
HETATM   23  H11         0      25.381  72.577  17.016  1.00  0.00     0.218 HD
ENDBRANCH  18  22
ENDBRANCH   4  14
BRANCH   8  24
HETATM   24  O17         0      26.490  76.061  23.121  1.00  0.00    -0.359 OA
HETATM   25  H17         0      26.874  76.302  22.286  1.00  0.00     0.218 HD
ENDBRANCH   8  24
TORSDOF 5
ENDMDL
