MODEL 1
REMARK VINA RESULT:      -8.3      0.000      0.000
REMARK  5 active torsions:
REMARK  status: ('A' for Active; 'I' for Inactive)
REMARK    1  A    between atoms: C4_4  and  C5_5 
REMARK    2  A    between atoms: C8_8  and  O9_9 
REMARK    3  A    between atoms: C10_11  and  O11_12 
REMARK    4  A    between atoms: C16_18  and  O17_19 
REMARK    5  A    between atoms: C19_22  and  O20_23 
ROOT
HETATM    1  O1          0      35.661  70.683 -10.072  1.00  0.00    -0.286 OA
HETATM    2  C2          0      34.870  69.745  -9.778  1.00  0.00     0.201 C 
HETATM    3  C3          0      35.303  68.460  -9.493  1.00  0.00     0.067 C 
HETATM    4  C4          0      34.405  67.422  -9.273  1.00  0.00     0.103 C 
HETATM    5  O13         0      33.111  67.681  -9.318  1.00  0.00    -0.307 OA
HETATM    6  C14         0      32.647  68.874  -9.620  1.00  0.00     0.107 C 
HETATM    7  C15         0      31.343  69.062 -10.056  1.00  0.00     0.049 C 
HETATM    8  C16         0      30.936  70.269 -10.613  1.00  0.00     0.093 C 
HETATM    9  C18         0      31.685  71.375 -10.229  1.00  0.00     0.048 C 
HETATM   10  C19         0      32.976  71.219  -9.743  1.00  0.00     0.096 C 
HETATM   11  C21         0      33.510  69.964  -9.626  1.00  0.00     0.084 C 
ENDROOT
BRANCH  10  12
HETATM   12  O20         0      33.851  72.300  -9.778  1.00  0.00    -0.359 OA
HETATM   13  H20         0      34.680  72.217  -9.322  1.00  0.00     0.218 HD
ENDBRANCH  10  12
BRANCH   4  14
HETATM   14  C5          0      34.863  66.065  -9.578  1.00  0.00     0.025 C 
HETATM   15  C6          0      34.242  64.931  -9.076  1.00  0.00     0.004 C 
HETATM   16  C7          0      34.135  63.828  -9.917  1.00  0.00     0.026 C 
HETATM   17  C8          0      34.742  63.804 -11.168  1.00  0.00     0.112 C 
HETATM   18  C10         0      35.820  64.668 -11.306  1.00  0.00     0.112 C 
HETATM   19  C12         0      35.859  65.808 -10.511  1.00  0.00     0.028 C 
BRANCH  17  20
HETATM   20  O9          0      34.163  63.124 -12.224  1.00  0.00    -0.357 OA
HETATM   21  H9          0      34.580  63.008 -13.070  1.00  0.00     0.218 HD
ENDBRANCH  17  20
BRANCH  18  22
HETATM   22  O11         0      36.577  64.549 -12.463  1.00  0.00    -0.357 OA
HETATM   23  H11         0      37.303  63.936 -12.441  1.00  0.00     0.218 HD
ENDBRANCH  18  22
ENDBRANCH   4  14
BRANCH   8  24
HETATM   24  O17         0      30.076  70.309 -11.716  1.00  0.00    -0.359 OA
HETATM   25  H17         0      29.702  69.519 -12.087  1.00  0.00     0.218 HD
ENDBRANCH   8  24
TORSDOF 5
ENDMDL
MODEL 2
REMARK VINA RESULT:      -8.3      1.324      1.906
REMARK  5 active torsions:
REMARK  status: ('A' for Active; 'I' for Inactive)
REMARK    1  A    between atoms: C4_4  and  C5_5 
REMARK    2  A    between atoms: C8_8  and  O9_9 
REMARK    3  A    between atoms: C10_11  and  O11_12 
REMARK    4  A    between atoms: C16_18  and  O17_19 
REMARK    5  A    between atoms: C19_22  and  O20_23 
ROOT
HETATM    1  O1          0      36.134  69.645  -9.246  1.00  0.00    -0.286 OA
HETATM    2  C2          0      35.150  68.900  -9.508  1.00  0.00     0.201 C 
HETATM    3  C3          0      35.270  67.531  -9.679  1.00  0.00     0.067 C 
HETATM    4  C4          0      34.189  66.748 -10.068  1.00  0.00     0.103 C 
HETATM    5  O13         0      33.019  67.331 -10.257  1.00  0.00    -0.307 OA
HETATM    6  C14         0      32.859  68.632 -10.145  1.00  0.00     0.107 C 
HETATM    7  C15         0      31.778  69.287 -10.715  1.00  0.00     0.049 C 
HETATM    8  C16         0      31.744  70.673 -10.815  1.00  0.00     0.093 C 
HETATM    9  C18         0      32.528  71.347  -9.886  1.00  0.00     0.048 C 
HETATM   10  C19         0      33.589  70.707  -9.261  1.00  0.00     0.096 C 
HETATM   11  C21         0      33.857  69.396  -9.550  1.00  0.00     0.084 C 
ENDROOT
BRANCH  10  12
HETATM   12  O20         0      34.605  71.470  -8.693  1.00  0.00    -0.359 OA
HETATM   13  H20         0      34.376  72.056  -7.982  1.00  0.00     0.218 HD
ENDBRANCH  10  12
BRANCH   4  14
HETATM   14  C5          0      34.485  65.510 -10.791  1.00  0.00     0.025 C 
HETATM   15  C6          0      35.543  65.393 -11.680  1.00  0.00     0.004 C 
HETATM   16  C7          0      36.245  64.192 -11.693  1.00  0.00     0.026 C 
HETATM   17  C8          0      35.829  63.096 -10.944  1.00  0.00     0.112 C 
HETATM   18  C10         0      34.480  63.097 -10.617  1.00  0.00     0.112 C 
HETATM   19  C12         0      33.822  64.318 -10.528  1.00  0.00     0.028 C 
BRANCH  17  20
HETATM   20  O9          0      36.749  62.212 -10.409  1.00  0.00    -0.357 OA
HETATM   21  H9          0      37.610  62.058 -10.780  1.00  0.00     0.218 HD
ENDBRANCH  17  20
BRANCH  18  22
HETATM   22  O11         0      33.973  61.942 -10.037  1.00  0.00    -0.357 OA
HETATM   23  H11         0      34.599  61.264  -9.811  1.00  0.00     0.218 HD
ENDBRANCH  18  22
ENDBRANCH   4  14
BRANCH   8  24
HETATM   24  O17         0      31.243  71.310 -11.955  1.00  0.00    -0.359 OA
HETATM   25  H17         0      30.534  71.941 -11.904  1.00  0.00     0.218 HD
ENDBRANCH   8  24
TORSDOF 5
ENDMDL
MODEL 3
REMARK VINA RESULT:      -8.1      2.022      6.561
REMARK  5 active torsions:
REMARK  status: ('A' for Active; 'I' for Inactive)
REMARK    1  A    between atoms: C4_4  and  C5_5 
REMARK    2  A    between atoms: C8_8  and  O9_9 
REMARK    3  A    between atoms: C10_11  and  O11_12 
REMARK    4  A    between atoms: C16_18  and  O17_19 
REMARK    5  A    between atoms: C19_22  and  O20_23 
ROOT
HETATM    1  O1          0      30.713  65.809 -11.608  1.00  0.00    -0.286 OA
HETATM    2  C2          0      31.651  65.735 -10.768  1.00  0.00     0.201 C 
HETATM    3  C3          0      32.062  66.816 -10.006  1.00  0.00     0.067 C 
HETATM    4  C4          0      33.164  66.735  -9.162  1.00  0.00     0.103 C 
HETATM    5  O13         0      33.817  65.589  -9.077  1.00  0.00    -0.307 OA
HETATM    6  C14         0      33.491  64.544  -9.807  1.00  0.00     0.107 C 
HETATM    7  C15         0      34.379  63.501 -10.026  1.00  0.00     0.049 C 
HETATM    8  C16         0      34.131  62.533 -10.992  1.00  0.00     0.093 C 
HETATM    9  C18         0      32.791  62.358 -11.316  1.00  0.00     0.048 C 
HETATM   10  C19         0      31.867  63.363 -11.067  1.00  0.00     0.096 C 
HETATM   11  C21         0      32.276  64.531 -10.482  1.00  0.00     0.084 C 
ENDROOT
BRANCH  10  12
HETATM   12  O20         0      30.664  63.370 -11.766  1.00  0.00    -0.359 OA
HETATM   13  H20         0      30.530  62.702 -12.427  1.00  0.00     0.218 HD
ENDBRANCH  10  12
BRANCH   4  14
HETATM   14  C5          0      33.885  67.978  -8.880  1.00  0.00     0.025 C 
HETATM   15  C6          0      35.241  68.134  -9.126  1.00  0.00     0.004 C 
HETATM   16  C7          0      35.672  69.365  -9.611  1.00  0.00     0.026 C 
HETATM   17  C8          0      34.807  70.448  -9.721  1.00  0.00     0.112 C 
HETATM   18  C10         0      33.696  70.391  -8.889  1.00  0.00     0.112 C 
HETATM   19  C12         0      33.236  69.142  -8.488  1.00  0.00     0.028 C 
BRANCH  17  20
HETATM   20  O9          0      34.960  71.377 -10.735  1.00  0.00    -0.357 OA
HETATM   21  H9          0      35.350  72.234 -10.611  1.00  0.00     0.218 HD
ENDBRANCH  17  20
BRANCH  18  22
HETATM   22  O11         0      32.903  71.527  -8.820  1.00  0.00    -0.357 OA
HETATM   23  H11         0      32.822  72.044  -9.613  1.00  0.00     0.218 HD
ENDBRANCH  18  22
ENDBRANCH   4  14
BRANCH   8  24
HETATM   24  O17         0      35.156  62.032 -11.803  1.00  0.00    -0.359 OA
HETATM   25  H17         0      36.013  62.441 -11.833  1.00  0.00     0.218 HD
ENDBRANCH   8  24
TORSDOF 5
ENDMDL
MODEL 4
REMARK VINA RESULT:      -7.9      1.730      6.840
REMARK  5 active torsions:
REMARK  status: ('A' for Active; 'I' for Inactive)
REMARK    1  A    between atoms: C4_4  and  C5_5 
REMARK    2  A    between atoms: C8_8  and  O9_9 
REMARK    3  A    between atoms: C10_11  and  O11_12 
REMARK    4  A    between atoms: C16_18  and  O17_19 
REMARK    5  A    between atoms: C19_22  and  O20_23 
ROOT
HETATM    1  O1          0      31.586  64.352 -10.195  1.00  0.00    -0.286 OA
HETATM    2  C2          0      32.507  65.181  -9.957  1.00  0.00     0.201 C 
HETATM    3  C3          0      32.259  66.478  -9.540  1.00  0.00     0.067 C 
HETATM    4  C4          0      33.286  67.401  -9.384  1.00  0.00     0.103 C 
HETATM    5  O13         0      34.528  67.016  -9.622  1.00  0.00    -0.307 OA
HETATM    6  C14         0      34.814  65.808 -10.055  1.00  0.00     0.107 C 
HETATM    7  C15         0      36.020  65.522 -10.678  1.00  0.00     0.049 C 
HETATM    8  C16         0      36.216  64.325 -11.356  1.00  0.00     0.093 C 
HETATM    9  C18         0      35.407  63.275 -10.939  1.00  0.00     0.048 C 
HETATM   10  C19         0      34.216  63.525 -10.272  1.00  0.00     0.096 C 
HETATM   11  C21         0      33.843  64.814 -10.008  1.00  0.00     0.084 C 
ENDROOT
BRANCH  10  12
HETATM   12  O20         0      33.230  62.543 -10.250  1.00  0.00    -0.359 OA
HETATM   13  H20         0      33.282  61.875  -9.577  1.00  0.00     0.218 HD
ENDBRANCH  10  12
BRANCH   4  14
HETATM   14  C5          0      32.945  68.816  -9.541  1.00  0.00     0.025 C 
HETATM   15  C6          0      33.137  69.509 -10.728  1.00  0.00     0.004 C 
HETATM   16  C7          0      32.170  70.438 -11.096  1.00  0.00     0.026 C 
HETATM   17  C8          0      31.116  70.768 -10.251  1.00  0.00     0.112 C 
HETATM   18  C10         0      31.355  70.525  -8.905  1.00  0.00     0.112 C 
HETATM   19  C12         0      32.264  69.531  -8.564  1.00  0.00     0.028 C 
BRANCH  17  20
HETATM   20  O9          0      29.875  71.103 -10.763  1.00  0.00    -0.357 OA
HETATM   21  H9          0      29.746  71.730 -11.465  1.00  0.00     0.218 HD
ENDBRANCH  17  20
BRANCH  18  22
HETATM   22  O11         0      30.417  71.008  -8.003  1.00  0.00    -0.357 OA
HETATM   23  H11         0      29.875  70.365  -7.561  1.00  0.00     0.218 HD
ENDBRANCH  18  22
ENDBRANCH   4  14
BRANCH   8  24
HETATM   24  O17         0      36.915  64.279 -12.567  1.00  0.00    -0.359 OA
HETATM   25  H17         0      37.749  64.721 -12.680  1.00  0.00     0.218 HD
ENDBRANCH   8  24
TORSDOF 5
ENDMDL
MODEL 5
REMARK VINA RESULT:      -7.9      2.129      6.694
REMARK  5 active torsions:
REMARK  status: ('A' for Active; 'I' for Inactive)
REMARK    1  A    between atoms: C4_4  and  C5_5 
REMARK    2  A    between atoms: C8_8  and  O9_9 
REMARK    3  A    between atoms: C10_11  and  O11_12 
REMARK    4  A    between atoms: C16_18  and  O17_19 
REMARK    5  A    between atoms: C19_22  and  O20_23 
ROOT
HETATM    1  O1          0      36.016  62.694 -10.649  1.00  0.00    -0.286 OA
HETATM    2  C2          0      35.127  63.557 -10.886  1.00  0.00     0.201 C 
HETATM    3  C3          0      35.318  64.911 -10.669  1.00  0.00     0.067 C 
HETATM    4  C4          0      34.289  65.830 -10.841  1.00  0.00     0.103 C 
HETATM    5  O13         0      33.108  65.392 -11.241  1.00  0.00    -0.307 OA
HETATM    6  C14         0      32.862  64.113 -11.426  1.00  0.00     0.107 C 
HETATM    7  C15         0      31.568  63.613 -11.450  1.00  0.00     0.049 C 
HETATM    8  C16         0      31.321  62.247 -11.388  1.00  0.00     0.093 C 
HETATM    9  C18         0      32.363  61.442 -11.832  1.00  0.00     0.048 C 
HETATM   10  C19         0      33.664  61.925 -11.865  1.00  0.00     0.096 C 
HETATM   11  C21         0      33.920  63.211 -11.474  1.00  0.00     0.084 C 
ENDROOT
BRANCH  10  12
HETATM   12  O20         0      34.725  61.025 -11.882  1.00  0.00    -0.359 OA
HETATM   13  H20         0      34.640  60.228 -11.373  1.00  0.00     0.218 HD
ENDBRANCH  10  12
BRANCH   4  14
HETATM   14  C5          0      34.353  67.063 -10.056  1.00  0.00     0.025 C 
HETATM   15  C6          0      35.531  67.539  -9.498  1.00  0.00     0.004 C 
HETATM   16  C7          0      35.740  68.914  -9.507  1.00  0.00     0.026 C 
HETATM   17  C8          0      34.754  69.799  -9.933  1.00  0.00     0.112 C 
HETATM   18  C10         0      33.459  69.303  -9.858  1.00  0.00     0.112 C 
HETATM   19  C12         0      33.273  67.928  -9.937  1.00  0.00     0.028 C 
BRANCH  17  20
HETATM   20  O9          0      35.089  70.980 -10.570  1.00  0.00    -0.357 OA
HETATM   21  H9          0      35.166  71.816 -10.125  1.00  0.00     0.218 HD
ENDBRANCH  17  20
BRANCH  18  22
HETATM   22  O11         0      32.428  70.202 -10.090  1.00  0.00    -0.357 OA
HETATM   23  H11         0      32.675  71.100 -10.280  1.00  0.00     0.218 HD
ENDBRANCH  18  22
ENDBRANCH   4  14
BRANCH   8  24
HETATM   24  O17         0      30.262  61.731 -10.633  1.00  0.00    -0.359 OA
HETATM   25  H17         0      29.424  62.174 -10.581  1.00  0.00     0.218 HD
ENDBRANCH   8  24
TORSDOF 5
ENDMDL
MODEL 6
REMARK VINA RESULT:      -7.8      1.753      6.868
REMARK  5 active torsions:
REMARK  status: ('A' for Active; 'I' for Inactive)
REMARK    1  A    between atoms: C4_4  and  C5_5 
REMARK    2  A    between atoms: C8_8  and  O9_9 
REMARK    3  A    between atoms: C10_11  and  O11_12 
REMARK    4  A    between atoms: C16_18  and  O17_19 
REMARK    5  A    between atoms: C19_22  and  O20_23 
ROOT
HETATM    1  O1          0      30.842  63.955 -11.106  1.00  0.00    -0.286 OA
HETATM    2  C2          0      31.784  64.690 -10.702  1.00  0.00     0.201 C 
HETATM    3  C3          0      31.633  66.048 -10.477  1.00  0.00     0.067 C 
HETATM    4  C4          0      32.712  66.854 -10.131  1.00  0.00     0.103 C 
HETATM    5  O13         0      33.903  66.296  -9.997  1.00  0.00    -0.307 OA
HETATM    6  C14         0      34.108  65.019 -10.236  1.00  0.00     0.107 C 
HETATM    7  C15         0      35.377  64.518 -10.488  1.00  0.00     0.049 C 
HETATM    8  C16         0      35.559  63.233 -10.986  1.00  0.00     0.093 C 
HETATM    9  C18         0      34.525  62.346 -10.713  1.00  0.00     0.048 C 
HETATM   10  C19         0      33.254  62.815 -10.410  1.00  0.00     0.096 C 
HETATM   11  C21         0      33.021  64.162 -10.364  1.00  0.00     0.084 C 
ENDROOT
BRANCH  10  12
HETATM   12  O20         0      32.161  61.969 -10.569  1.00  0.00    -0.359 OA
HETATM   13  H20         0      31.381  62.148 -10.058  1.00  0.00     0.218 HD
ENDBRANCH  10  12
BRANCH   4  14
HETATM   14  C5          0      32.634  68.270 -10.493  1.00  0.00     0.025 C 
HETATM   15  C6          0      31.472  69.016 -10.361  1.00  0.00     0.004 C 
HETATM   16  C7          0      31.598  70.335  -9.935  1.00  0.00     0.026 C 
HETATM   17  C8          0      32.842  70.934  -9.775  1.00  0.00     0.112 C 
HETATM   18  C10         0      33.865  70.353 -10.512  1.00  0.00     0.112 C 
HETATM   19  C12         0      33.753  69.010 -10.852  1.00  0.00     0.028 C 
BRANCH  17  20
HETATM   20  O9          0      33.049  71.887  -8.794  1.00  0.00    -0.357 OA
HETATM   21  H9          0      32.355  72.414  -8.415  1.00  0.00     0.218 HD
ENDBRANCH  17  20
BRANCH  18  22
HETATM   22  O11         0      35.081  71.022 -10.537  1.00  0.00    -0.357 OA
HETATM   23  H11         0      35.225  71.625 -11.257  1.00  0.00     0.218 HD
ENDBRANCH  18  22
ENDBRANCH   4  14
BRANCH   8  24
HETATM   24  O17         0      36.526  62.959 -11.959  1.00  0.00    -0.359 OA
HETATM   25  H17         0      36.706  63.564 -12.669  1.00  0.00     0.218 HD
ENDBRANCH   8  24
TORSDOF 5
ENDMDL
MODEL 7
REMARK VINA RESULT:      -7.8      1.323      2.659
REMARK  5 active torsions:
REMARK  status: ('A' for Active; 'I' for Inactive)
REMARK    1  A    between atoms: C4_4  and  C5_5 
REMARK    2  A    between atoms: C8_8  and  O9_9 
REMARK    3  A    between atoms: C10_11  and  O11_12 
REMARK    4  A    between atoms: C16_18  and  O17_19 
REMARK    5  A    between atoms: C19_22  and  O20_23 
ROOT
HETATM    1  O1          0      30.826  68.052  -8.845  1.00  0.00    -0.286 OA
HETATM    2  C2          0      31.913  68.003  -9.484  1.00  0.00     0.201 C 
HETATM    3  C3          0      32.515  66.811  -9.851  1.00  0.00     0.067 C 
HETATM    4  C4          0      33.762  66.784 -10.464  1.00  0.00     0.103 C 
HETATM    5  O13         0      34.371  67.929 -10.716  1.00  0.00    -0.307 OA
HETATM    6  C14         0      33.861  69.086 -10.355  1.00  0.00     0.107 C 
HETATM    7  C15         0      34.642  70.228 -10.248  1.00  0.00     0.049 C 
HETATM    8  C16         0      34.162  71.376  -9.628  1.00  0.00     0.093 C 
HETATM    9  C18         0      32.778  71.502  -9.619  1.00  0.00     0.048 C 
HETATM   10  C19         0      31.966  70.386  -9.770  1.00  0.00     0.096 C 
HETATM   11  C21         0      32.533  69.153  -9.947  1.00  0.00     0.084 C 
ENDROOT
BRANCH  10  12
HETATM   12  O20         0      30.646  70.441  -9.333  1.00  0.00    -0.359 OA
HETATM   13  H20         0      30.447  70.993  -8.587  1.00  0.00     0.218 HD
ENDBRANCH  10  12
BRANCH   4  14
HETATM   14  C5          0      34.575  65.581 -10.275  1.00  0.00     0.025 C 
HETATM   15  C6          0      34.166  64.512  -9.491  1.00  0.00     0.004 C 
HETATM   16  C7          0      34.468  63.231  -9.938  1.00  0.00     0.026 C 
HETATM   17  C8          0      35.266  63.018 -11.057  1.00  0.00     0.112 C 
HETATM   18  C10         0      36.115  64.071 -11.373  1.00  0.00     0.112 C 
HETATM   19  C12         0      35.746  65.354 -10.987  1.00  0.00     0.028 C 
BRANCH  17  20
HETATM   20  O9          0      35.052  61.930 -11.885  1.00  0.00    -0.357 OA
HETATM   21  H9          0      35.731  61.312 -12.131  1.00  0.00     0.218 HD
ENDBRANCH  17  20
BRANCH  18  22
HETATM   22  O11         0      37.062  63.840 -12.360  1.00  0.00    -0.357 OA
HETATM   23  H11         0      37.635  64.565 -12.583  1.00  0.00     0.218 HD
ENDBRANCH  18  22
ENDBRANCH   4  14
BRANCH   8  24
HETATM   24  O17         0      34.977  72.150  -8.796  1.00  0.00    -0.359 OA
HETATM   25  H17         0      35.754  72.587  -9.125  1.00  0.00     0.218 HD
ENDBRANCH   8  24
TORSDOF 5
ENDMDL
MODEL 8
REMARK VINA RESULT:      -7.5      2.484      4.218
REMARK  5 active torsions:
REMARK  status: ('A' for Active; 'I' for Inactive)
REMARK    1  A    between atoms: C4_4  and  C5_5 
REMARK    2  A    between atoms: C8_8  and  O9_9 
REMARK    3  A    between atoms: C10_11  and  O11_12 
REMARK    4  A    between atoms: C16_18  and  O17_19 
REMARK    5  A    between atoms: C19_22  and  O20_23 
ROOT
HETATM    1  O1          0      30.464  66.619  -8.582  1.00  0.00    -0.286 OA
HETATM    2  C2          0      31.316  66.244  -9.434  1.00  0.00     0.201 C 
HETATM    3  C3          0      31.279  64.995 -10.031  1.00  0.00     0.067 C 
HETATM    4  C4          0      32.287  64.569 -10.889  1.00  0.00     0.103 C 
HETATM    5  O13         0      33.289  65.390 -11.150  1.00  0.00    -0.307 OA
HETATM    6  C14         0      33.391  66.571 -10.580  1.00  0.00     0.107 C 
HETATM    7  C15         0      34.597  67.255 -10.527  1.00  0.00     0.049 C 
HETATM    8  C16         0      34.759  68.369  -9.712  1.00  0.00     0.093 C 
HETATM    9  C18         0      33.586  69.046  -9.404  1.00  0.00     0.048 C 
HETATM   10  C19         0      32.358  68.406  -9.491  1.00  0.00     0.096 C 
HETATM   11  C21         0      32.300  67.102  -9.901  1.00  0.00     0.084 C 
ENDROOT
BRANCH  10  12
HETATM   12  O20         0      31.272  68.917  -8.787  1.00  0.00    -0.359 OA
HETATM   13  H20         0      31.005  68.470  -7.993  1.00  0.00     0.218 HD
ENDBRANCH  10  12
BRANCH   4  14
HETATM   14  C5          0      32.513  63.126 -10.991  1.00  0.00     0.025 C 
HETATM   15  C6          0      31.502  62.225 -11.293  1.00  0.00     0.004 C 
HETATM   16  C7          0      31.820  61.153 -12.120  1.00  0.00     0.026 C 
HETATM   17  C8          0      33.127  60.906 -12.525  1.00  0.00     0.112 C 
HETATM   18  C10         0      34.102  61.442 -11.695  1.00  0.00     0.112 C 
HETATM   19  C12         0      33.784  62.567 -10.942  1.00  0.00     0.028 C 
BRANCH  17  20
HETATM   20  O9          0      33.393  60.357 -13.767  1.00  0.00    -0.357 OA
HETATM   21  H9          0      32.828  60.463 -14.523  1.00  0.00     0.218 HD
ENDBRANCH  17  20
BRANCH  18  22
HETATM   22  O11         0      35.415  61.069 -11.945  1.00  0.00    -0.357 OA
HETATM   23  H11         0      35.716  60.261 -11.546  1.00  0.00     0.218 HD
ENDBRANCH  18  22
ENDBRANCH   4  14
BRANCH   8  24
HETATM   24  O17         0      35.942  68.582  -8.996  1.00  0.00    -0.359 OA
HETATM   25  H17         0      36.409  69.409  -9.037  1.00  0.00     0.218 HD
ENDBRANCH   8  24
TORSDOF 5
ENDMDL
MODEL 9
REMARK VINA RESULT:      -7.3      2.228      7.475
REMARK  5 active torsions:
REMARK  status: ('A' for Active; 'I' for Inactive)
REMARK    1  A    between atoms: C4_4  and  C5_5 
REMARK    2  A    between atoms: C8_8  and  O9_9 
REMARK    3  A    between atoms: C10_11  and  O11_12 
REMARK    4  A    between atoms: C16_18  and  O17_19 
REMARK    5  A    between atoms: C19_22  and  O20_23 
ROOT
HETATM    1  O1          0      31.336  62.832 -11.930  1.00  0.00    -0.286 OA
HETATM    2  C2          0      32.299  63.173 -11.189  1.00  0.00     0.201 C 
HETATM    3  C3          0      32.289  64.331 -10.430  1.00  0.00     0.067 C 
HETATM    4  C4          0      33.402  64.735  -9.703  1.00  0.00     0.103 C 
HETATM    5  O13         0      34.485  63.978  -9.727  1.00  0.00    -0.307 OA
HETATM    6  C14         0      34.561  62.889 -10.460  1.00  0.00     0.107 C 
HETATM    7  C15         0      35.779  62.323 -10.805  1.00  0.00     0.049 C 
HETATM    8  C16         0      35.867  61.335 -11.778  1.00  0.00     0.093 C 
HETATM    9  C18         0      34.703  60.602 -11.976  1.00  0.00     0.048 C 
HETATM   10  C19         0      33.471  61.118 -11.599  1.00  0.00     0.096 C 
HETATM   11  C21         0      33.403  62.353 -11.013  1.00  0.00     0.084 C 
ENDROOT
BRANCH  10  12
HETATM   12  O20         0      32.313  60.605 -12.175  1.00  0.00    -0.359 OA
HETATM   13  H20         0      32.050  60.943 -13.022  1.00  0.00     0.218 HD
ENDBRANCH  10  12
BRANCH   4  14
HETATM   14  C5          0      33.550  66.169  -9.446  1.00  0.00     0.025 C 
HETATM   15  C6          0      34.597  66.921  -9.960  1.00  0.00     0.004 C 
HETATM   16  C7          0      34.313  68.214 -10.385  1.00  0.00     0.026 C 
HETATM   17  C8          0      33.064  68.791 -10.184  1.00  0.00     0.112 C 
HETATM   18  C10         0      32.330  68.236  -9.144  1.00  0.00     0.112 C 
HETATM   19  C12         0      32.575  66.913  -8.795  1.00  0.00     0.028 C 
BRANCH  17  20
HETATM   20  O9          0      32.543  69.691 -11.097  1.00  0.00    -0.357 OA
HETATM   21  H9          0      31.687  69.600 -11.499  1.00  0.00     0.218 HD
ENDBRANCH  17  20
BRANCH  18  22
HETATM   22  O11         0      31.163  68.892  -8.779  1.00  0.00    -0.357 OA
HETATM   23  H11         0      31.237  69.557  -8.104  1.00  0.00     0.218 HD
ENDBRANCH  18  22
ENDBRANCH   4  14
BRANCH   8  24
HETATM   24  O17         0      36.916  61.314 -12.704  1.00  0.00    -0.359 OA
HETATM   25  H17         0      37.547  60.605 -12.727  1.00  0.00     0.218 HD
ENDBRANCH   8  24
TORSDOF 5
ENDMDL
