MODEL 1
REMARK VINA RESULT:      -4.4      0.000      0.000
REMARK  5 active torsions:
REMARK  status: ('A' for Active; 'I' for Inactive)
REMARK    1  A    between atoms: C4_4  and  C5_5 
REMARK    2  A    between atoms: C8_8  and  O9_9 
REMARK    3  A    between atoms: C10_11  and  O11_12 
REMARK    4  A    between atoms: C16_18  and  O17_19 
REMARK    5  A    between atoms: C19_22  and  O20_23 
ROOT
HETATM    1  O1          0      34.129  21.235  -1.525  1.00  0.00    -0.286 OA
HETATM    2  C2          0      34.363  22.338  -2.090  1.00  0.00     0.201 C 
HETATM    3  C3          0      35.622  22.697  -2.541  1.00  0.00     0.067 C 
HETATM    4  C4          0      35.874  23.959  -3.067  1.00  0.00     0.103 C 
HETATM    5  O13         0      34.878  24.822  -3.153  1.00  0.00    -0.307 OA
HETATM    6  C14         0      33.673  24.545  -2.705  1.00  0.00     0.107 C 
HETATM    7  C15         0      32.750  25.543  -2.424  1.00  0.00     0.049 C 
HETATM    8  C16         0      31.585  25.270  -1.718  1.00  0.00     0.093 C 
HETATM    9  C18         0      31.151  23.951  -1.789  1.00  0.00     0.048 C 
HETATM   10  C19         0      32.038  22.933  -2.114  1.00  0.00     0.096 C 
HETATM   11  C21         0      33.345  23.233  -2.383  1.00  0.00     0.084 C 
ENDROOT
BRANCH  10  12
HETATM   12  O20         0      31.727  21.623  -1.764  1.00  0.00    -0.359 OA
HETATM   13  H20         0      31.438  21.456  -0.875  1.00  0.00     0.218 HD
ENDBRANCH  10  12
BRANCH   4  14
HETATM   14  C5          0      37.242  24.470  -2.954  1.00  0.00     0.025 C 
HETATM   15  C6          0      37.924  25.035  -4.022  1.00  0.00     0.004 C 
HETATM   16  C7          0      38.738  26.132  -3.759  1.00  0.00     0.026 C 
HETATM   17  C8          0      38.973  26.571  -2.461  1.00  0.00     0.112 C 
HETATM   18  C10         0      38.787  25.607  -1.480  1.00  0.00     0.112 C 
HETATM   19  C12         0      37.903  24.566  -1.737  1.00  0.00     0.028 C 
BRANCH  17  20
HETATM   20  O9          0      39.165  27.915  -2.191  1.00  0.00    -0.357 OA
HETATM   21  H9          0      38.891  28.335  -1.384  1.00  0.00     0.218 HD
ENDBRANCH  17  20
BRANCH  18  22
HETATM   22  O11         0      39.189  25.934  -0.193  1.00  0.00    -0.357 OA
HETATM   23  H11         0      40.029  26.368  -0.101  1.00  0.00     0.218 HD
ENDBRANCH  18  22
ENDBRANCH   4  14
BRANCH   8  24
HETATM   24  O17         0      31.091  26.156  -0.754  1.00  0.00    -0.359 OA
HETATM   25  H17         0      31.248  26.022   0.173  1.00  0.00     0.218 HD
ENDBRANCH   8  24
TORSDOF 5
ENDMDL
MODEL 2
REMARK VINA RESULT:      -4.3      4.216      7.852
REMARK  5 active torsions:
REMARK  status: ('A' for Active; 'I' for Inactive)
REMARK    1  A    between atoms: C4_4  and  C5_5 
REMARK    2  A    between atoms: C8_8  and  O9_9 
REMARK    3  A    between atoms: C10_11  and  O11_12 
REMARK    4  A    between atoms: C16_18  and  O17_19 
REMARK    5  A    between atoms: C19_22  and  O20_23 
ROOT
HETATM    1  O1          0      31.005  22.681  -5.922  1.00  0.00    -0.286 OA
HETATM    2  C2          0      30.569  23.526  -5.092  1.00  0.00     0.201 C 
HETATM    3  C3          0      29.465  24.323  -5.342  1.00  0.00     0.067 C 
HETATM    4  C4          0      29.069  25.317  -4.455  1.00  0.00     0.103 C 
HETATM    5  O13         0      29.756  25.484  -3.339  1.00  0.00    -0.307 OA
HETATM    6  C14         0      30.834  24.779  -3.070  1.00  0.00     0.107 C 
HETATM    7  C15         0      31.768  25.201  -2.135  1.00  0.00     0.049 C 
HETATM    8  C16         0      33.016  24.595  -2.038  1.00  0.00     0.093 C 
HETATM    9  C18         0      33.071  23.288  -2.505  1.00  0.00     0.048 C 
HETATM   10  C19         0      32.124  22.819  -3.405  1.00  0.00     0.096 C 
HETATM   11  C21         0      31.118  23.646  -3.824  1.00  0.00     0.084 C 
ENDROOT
BRANCH  10  12
HETATM   12  O20         0      32.419  21.704  -4.184  1.00  0.00    -0.359 OA
HETATM   13  H20         0      33.299  21.624  -4.531  1.00  0.00     0.218 HD
ENDBRANCH  10  12
BRANCH   4  14
HETATM   14  C5          0      28.340  26.459  -5.011  1.00  0.00     0.025 C 
HETATM   15  C6          0      26.959  26.480  -5.137  1.00  0.00     0.004 C 
HETATM   16  C7          0      26.306  27.681  -4.879  1.00  0.00     0.026 C 
HETATM   17  C8          0      27.009  28.856  -4.635  1.00  0.00     0.112 C 
HETATM   18  C10         0      28.301  28.875  -5.144  1.00  0.00     0.112 C 
HETATM   19  C12         0      28.962  27.664  -5.312  1.00  0.00     0.028 C 
BRANCH  17  20
HETATM   20  O9          0      26.510  29.815  -3.772  1.00  0.00    -0.357 OA
HETATM   21  H9          0      25.738  30.339  -3.954  1.00  0.00     0.218 HD
ENDBRANCH  17  20
BRANCH  18  22
HETATM   22  O11         0      28.978  30.085  -5.095  1.00  0.00    -0.357 OA
HETATM   23  H11         0      28.960  30.620  -5.880  1.00  0.00     0.218 HD
ENDBRANCH  18  22
ENDBRANCH   4  14
BRANCH   8  24
HETATM   24  O17         0      34.175  25.346  -1.813  1.00  0.00    -0.359 OA
HETATM   25  H17         0      34.910  24.995  -1.324  1.00  0.00     0.218 HD
ENDBRANCH   8  24
TORSDOF 5
ENDMDL
MODEL 3
REMARK VINA RESULT:      -4.1      7.113     10.045
REMARK  5 active torsions:
REMARK  status: ('A' for Active; 'I' for Inactive)
REMARK    1  A    between atoms: C4_4  and  C5_5 
REMARK    2  A    between atoms: C8_8  and  O9_9 
REMARK    3  A    between atoms: C10_11  and  O11_12 
REMARK    4  A    between atoms: C16_18  and  O17_19 
REMARK    5  A    between atoms: C19_22  and  O20_23 
ROOT
HETATM    1  O1          0      23.487  26.836  -6.370  1.00  0.00    -0.286 OA
HETATM    2  C2          0      24.474  27.390  -5.812  1.00  0.00     0.201 C 
HETATM    3  C3          0      25.785  27.047  -6.093  1.00  0.00     0.067 C 
HETATM    4  C4          0      26.849  27.600  -5.390  1.00  0.00     0.103 C 
HETATM    5  O13         0      26.594  28.489  -4.446  1.00  0.00    -0.307 OA
HETATM    6  C14         0      25.366  28.822  -4.114  1.00  0.00     0.107 C 
HETATM    7  C15         0      25.075  29.423  -2.898  1.00  0.00     0.049 C 
HETATM    8  C16         0      23.766  29.540  -2.446  1.00  0.00     0.093 C 
HETATM    9  C18         0      22.798  29.532  -3.442  1.00  0.00     0.048 C 
HETATM   10  C19         0      23.070  28.981  -4.687  1.00  0.00     0.096 C 
HETATM   11  C21         0      24.308  28.456  -4.940  1.00  0.00     0.084 C 
ENDROOT
BRANCH  10  12
HETATM   12  O20         0      22.014  28.584  -5.501  1.00  0.00    -0.359 OA
HETATM   13  H20         0      22.216  28.300  -6.385  1.00  0.00     0.218 HD
ENDBRANCH  10  12
BRANCH   4  14
HETATM   14  C5          0      28.075  26.804  -5.295  1.00  0.00     0.025 C 
HETATM   15  C6          0      29.267  27.184  -5.894  1.00  0.00     0.004 C 
HETATM   16  C7          0      30.445  26.941  -5.195  1.00  0.00     0.026 C 
HETATM   17  C8          0      30.453  26.224  -4.004  1.00  0.00     0.112 C 
HETATM   18  C10         0      29.368  25.374  -3.832  1.00  0.00     0.112 C 
HETATM   19  C12         0      28.176  25.688  -4.474  1.00  0.00     0.028 C 
BRANCH  17  20
HETATM   20  O9          0      31.365  26.517  -3.006  1.00  0.00    -0.357 OA
HETATM   21  H9          0      32.302  26.585  -3.150  1.00  0.00     0.218 HD
ENDBRANCH  17  20
BRANCH  18  22
HETATM   22  O11         0      29.419  24.500  -2.756  1.00  0.00    -0.357 OA
HETATM   23  H11         0      28.612  24.055  -2.525  1.00  0.00     0.218 HD
ENDBRANCH  18  22
ENDBRANCH   4  14
BRANCH   8  24
HETATM   24  O17         0      23.439  29.339  -1.100  1.00  0.00    -0.359 OA
HETATM   25  H17         0      23.855  28.661  -0.582  1.00  0.00     0.218 HD
ENDBRANCH   8  24
TORSDOF 5
ENDMDL
MODEL 4
REMARK VINA RESULT:      -3.8      2.783      6.064
REMARK  5 active torsions:
REMARK  status: ('A' for Active; 'I' for Inactive)
REMARK    1  A    between atoms: C4_4  and  C5_5 
REMARK    2  A    between atoms: C8_8  and  O9_9 
REMARK    3  A    between atoms: C10_11  and  O11_12 
REMARK    4  A    between atoms: C16_18  and  O17_19 
REMARK    5  A    between atoms: C19_22  and  O20_23 
ROOT
HETATM    1  O1          0      36.778  20.515  -4.177  1.00  0.00    -0.286 OA
HETATM    2  C2          0      36.205  21.048  -3.188  1.00  0.00     0.201 C 
HETATM    3  C3          0      34.891  21.481  -3.225  1.00  0.00     0.067 C 
HETATM    4  C4          0      34.316  22.157  -2.155  1.00  0.00     0.103 C 
HETATM    5  O13         0      35.043  22.369  -1.073  1.00  0.00    -0.307 OA
HETATM    6  C14         0      36.307  22.012  -0.999  1.00  0.00     0.107 C 
HETATM    7  C15         0      37.170  22.567  -0.066  1.00  0.00     0.049 C 
HETATM    8  C16         0      38.545  22.382  -0.155  1.00  0.00     0.093 C 
HETATM    9  C18         0      38.940  21.242  -0.844  1.00  0.00     0.048 C 
HETATM   10  C19         0      38.083  20.633  -1.751  1.00  0.00     0.096 C 
HETATM   11  C21         0      36.833  21.150  -1.956  1.00  0.00     0.084 C 
ENDROOT
BRANCH  10  12
HETATM   12  O20         0      38.611  19.796  -2.729  1.00  0.00    -0.359 OA
HETATM   13  H20         0      38.286  19.887  -3.616  1.00  0.00     0.218 HD
ENDBRANCH  10  12
BRANCH   4  14
HETATM   14  C5          0      33.217  23.077  -2.457  1.00  0.00     0.025 C 
HETATM   15  C6          0      31.894  22.796  -2.147  1.00  0.00     0.004 C 
HETATM   16  C7          0      31.100  23.846  -1.699  1.00  0.00     0.026 C 
HETATM   17  C8          0      31.563  25.157  -1.686  1.00  0.00     0.112 C 
HETATM   18  C10         0      32.601  25.414  -2.572  1.00  0.00     0.112 C 
HETATM   19  C12         0      33.433  24.362  -2.937  1.00  0.00     0.028 C 
BRANCH  17  20
HETATM   20  O9          0      31.148  26.046  -0.710  1.00  0.00    -0.357 OA
HETATM   21  H9          0      30.659  25.790   0.064  1.00  0.00     0.218 HD
ENDBRANCH  17  20
BRANCH  18  22
HETATM   22  O11         0      32.973  26.741  -2.736  1.00  0.00    -0.357 OA
HETATM   23  H11         0      33.852  26.978  -2.465  1.00  0.00     0.218 HD
ENDBRANCH  18  22
ENDBRANCH   4  14
BRANCH   8  24
HETATM   24  O17         0      39.440  23.420   0.125  1.00  0.00    -0.359 OA
HETATM   25  H17         0      40.352  23.378  -0.138  1.00  0.00     0.218 HD
ENDBRANCH   8  24
TORSDOF 5
ENDMDL
MODEL 5
REMARK VINA RESULT:      -3.8      3.805      6.143
REMARK  5 active torsions:
REMARK  status: ('A' for Active; 'I' for Inactive)
REMARK    1  A    between atoms: C4_4  and  C5_5 
REMARK    2  A    between atoms: C8_8  and  O9_9 
REMARK    3  A    between atoms: C10_11  and  O11_12 
REMARK    4  A    between atoms: C16_18  and  O17_19 
REMARK    5  A    between atoms: C19_22  and  O20_23 
ROOT
HETATM    1  O1          0      26.892  24.466  -3.352  1.00  0.00    -0.286 OA
HETATM    2  C2          0      28.076  24.687  -3.730  1.00  0.00     0.201 C 
HETATM    3  C3          0      29.146  23.898  -3.346  1.00  0.00     0.067 C 
HETATM    4  C4          0      30.453  24.223  -3.693  1.00  0.00     0.103 C 
HETATM    5  O13         0      30.665  25.303  -4.424  1.00  0.00    -0.307 OA
HETATM    6  C14         0      29.688  26.107  -4.784  1.00  0.00     0.107 C 
HETATM    7  C15         0      29.927  27.413  -5.188  1.00  0.00     0.049 C 
HETATM    8  C16         0      28.891  28.329  -5.319  1.00  0.00     0.093 C 
HETATM    9  C18         0      27.640  27.770  -5.551  1.00  0.00     0.048 C 
HETATM   10  C19         0      27.380  26.452  -5.202  1.00  0.00     0.096 C 
HETATM   11  C21         0      28.369  25.691  -4.640  1.00  0.00     0.084 C 
ENDROOT
BRANCH  10  12
HETATM   12  O20         0      26.062  26.041  -5.026  1.00  0.00    -0.359 OA
HETATM   13  H20         0      25.418  26.330  -5.662  1.00  0.00     0.218 HD
ENDBRANCH  10  12
BRANCH   4  14
HETATM   14  C5          0      31.518  23.751  -2.807  1.00  0.00     0.025 C 
HETATM   15  C6          0      31.699  22.412  -2.495  1.00  0.00     0.004 C 
HETATM   16  C7          0      33.005  21.944  -2.392  1.00  0.00     0.026 C 
HETATM   17  C8          0      34.095  22.804  -2.463  1.00  0.00     0.112 C 
HETATM   18  C10         0      33.814  24.125  -2.140  1.00  0.00     0.112 C 
HETATM   19  C12         0      32.519  24.590  -2.333  1.00  0.00     0.028 C 
BRANCH  17  20
HETATM   20  O9          0      35.292  22.387  -3.019  1.00  0.00    -0.357 OA
HETATM   21  H9          0      35.442  22.312  -3.955  1.00  0.00     0.218 HD
ENDBRANCH  17  20
BRANCH  18  22
HETATM   22  O11         0      34.896  24.985  -2.012  1.00  0.00    -0.357 OA
HETATM   23  H11         0      35.610  24.696  -1.456  1.00  0.00     0.218 HD
ENDBRANCH  18  22
ENDBRANCH   4  14
BRANCH   8  24
HETATM   24  O17         0      29.039  29.660  -4.915  1.00  0.00    -0.359 OA
HETATM   25  H17         0      29.882  30.096  -4.932  1.00  0.00     0.218 HD
ENDBRANCH   8  24
TORSDOF 5
ENDMDL
MODEL 6
REMARK VINA RESULT:      -3.6      3.344      7.562
REMARK  5 active torsions:
REMARK  status: ('A' for Active; 'I' for Inactive)
REMARK    1  A    between atoms: C4_4  and  C5_5 
REMARK    2  A    between atoms: C8_8  and  O9_9 
REMARK    3  A    between atoms: C10_11  and  O11_12 
REMARK    4  A    between atoms: C16_18  and  O17_19 
REMARK    5  A    between atoms: C19_22  and  O20_23 
ROOT
HETATM    1  O1          0      32.116  22.137  -1.761  1.00  0.00    -0.286 OA
HETATM    2  C2          0      31.973  23.241  -2.355  1.00  0.00     0.201 C 
HETATM    3  C3          0      30.732  23.787  -2.633  1.00  0.00     0.067 C 
HETATM    4  C4          0      30.600  24.953  -3.379  1.00  0.00     0.103 C 
HETATM    5  O13         0      31.693  25.558  -3.811  1.00  0.00    -0.307 OA
HETATM    6  C14         0      32.893  25.061  -3.607  1.00  0.00     0.107 C 
HETATM    7  C15         0      33.984  25.448  -4.372  1.00  0.00     0.049 C 
HETATM    8  C16         0      35.182  24.745  -4.327  1.00  0.00     0.093 C 
HETATM    9  C18         0      35.400  24.031  -3.155  1.00  0.00     0.048 C 
HETATM   10  C19         0      34.335  23.668  -2.342  1.00  0.00     0.096 C 
HETATM   11  C21         0      33.062  24.031  -2.688  1.00  0.00     0.084 C 
ENDROOT
BRANCH  10  12
HETATM   12  O20         0      34.493  22.617  -1.444  1.00  0.00    -0.359 OA
HETATM   13  H20         0      34.186  21.757  -1.707  1.00  0.00     0.218 HD
ENDBRANCH  10  12
BRANCH   4  14
HETATM   14  C5          0      29.353  25.133  -4.126  1.00  0.00     0.025 C 
HETATM   15  C6          0      28.198  24.419  -3.843  1.00  0.00     0.004 C 
HETATM   16  C7          0      26.984  25.093  -3.937  1.00  0.00     0.026 C 
HETATM   17  C8          0      26.908  26.394  -4.424  1.00  0.00     0.112 C 
HETATM   18  C10         0      27.964  26.769  -5.244  1.00  0.00     0.112 C 
HETATM   19  C12         0      29.190  26.137  -5.071  1.00  0.00     0.028 C 
BRANCH  17  20
HETATM   20  O9          0      25.960  27.278  -3.939  1.00  0.00    -0.357 OA
HETATM   21  H9          0      25.063  27.034  -3.742  1.00  0.00     0.218 HD
ENDBRANCH  17  20
BRANCH  18  22
HETATM   22  O11         0      27.845  27.982  -5.906  1.00  0.00    -0.357 OA
HETATM   23  H11         0      27.349  28.664  -5.468  1.00  0.00     0.218 HD
ENDBRANCH  18  22
ENDBRANCH   4  14
BRANCH   8  24
HETATM   24  O17         0      35.931  24.507  -5.485  1.00  0.00    -0.359 OA
HETATM   25  H17         0      35.685  23.834  -6.108  1.00  0.00     0.218 HD
ENDBRANCH   8  24
TORSDOF 5
ENDMDL
MODEL 7
REMARK VINA RESULT:      -3.6      3.326      8.325
REMARK  5 active torsions:
REMARK  status: ('A' for Active; 'I' for Inactive)
REMARK    1  A    between atoms: C4_4  and  C5_5 
REMARK    2  A    between atoms: C8_8  and  O9_9 
REMARK    3  A    between atoms: C10_11  and  O11_12 
REMARK    4  A    between atoms: C16_18  and  O17_19 
REMARK    5  A    between atoms: C19_22  and  O20_23 
ROOT
HETATM    1  O1          0      31.798  26.042  -1.667  1.00  0.00    -0.286 OA
HETATM    2  C2          0      31.500  25.101  -2.452  1.00  0.00     0.201 C 
HETATM    3  C3          0      30.269  25.006  -3.077  1.00  0.00     0.067 C 
HETATM    4  C4          0      29.930  23.906  -3.856  1.00  0.00     0.103 C 
HETATM    5  O13         0      30.819  22.941  -4.014  1.00  0.00    -0.307 OA
HETATM    6  C14         0      31.988  22.964  -3.412  1.00  0.00     0.107 C 
HETATM    7  C15         0      32.746  21.814  -3.243  1.00  0.00     0.049 C 
HETATM    8  C16         0      33.845  21.792  -2.394  1.00  0.00     0.093 C 
HETATM    9  C18         0      34.439  23.028  -2.171  1.00  0.00     0.048 C 
HETATM   10  C19         0      33.725  24.201  -2.375  1.00  0.00     0.096 C 
HETATM   11  C21         0      32.431  24.140  -2.816  1.00  0.00     0.084 C 
ENDROOT
BRANCH  10  12
HETATM   12  O20         0      34.147  25.372  -1.754  1.00  0.00    -0.359 OA
HETATM   13  H20         0      34.144  26.173  -2.264  1.00  0.00     0.218 HD
ENDBRANCH  10  12
BRANCH   4  14
HETATM   14  C5          0      28.507  23.578  -3.970  1.00  0.00     0.025 C 
HETATM   15  C6          0      28.003  22.750  -4.963  1.00  0.00     0.004 C 
HETATM   16  C7          0      26.979  21.875  -4.614  1.00  0.00     0.026 C 
HETATM   17  C8          0      26.383  21.913  -3.358  1.00  0.00     0.112 C 
HETATM   18  C10         0      26.498  23.130  -2.699  1.00  0.00     0.112 C 
HETATM   19  C12         0      27.579  23.948  -3.005  1.00  0.00     0.028 C 
BRANCH  17  20
HETATM   20  O9          0      25.913  20.757  -2.761  1.00  0.00    -0.357 OA
HETATM   21  H9          0      25.027  20.654  -2.436  1.00  0.00     0.218 HD
ENDBRANCH  17  20
BRANCH  18  22
HETATM   22  O11         0      25.764  23.283  -1.531  1.00  0.00    -0.357 OA
HETATM   23  H11         0      24.829  23.423  -1.626  1.00  0.00     0.218 HD
ENDBRANCH  18  22
ENDBRANCH   4  14
BRANCH   8  24
HETATM   24  O17         0      34.114  20.689  -1.576  1.00  0.00    -0.359 OA
HETATM   25  H17         0      34.902  20.169  -1.682  1.00  0.00     0.218 HD
ENDBRANCH   8  24
TORSDOF 5
ENDMDL
MODEL 8
REMARK VINA RESULT:      -3.6      2.098      6.347
REMARK  5 active torsions:
REMARK  status: ('A' for Active; 'I' for Inactive)
REMARK    1  A    between atoms: C4_4  and  C5_5 
REMARK    2  A    between atoms: C8_8  and  O9_9 
REMARK    3  A    between atoms: C10_11  and  O11_12 
REMARK    4  A    between atoms: C16_18  and  O17_19 
REMARK    5  A    between atoms: C19_22  and  O20_23 
ROOT
HETATM    1  O1          0      37.572  24.978  -5.549  1.00  0.00    -0.286 OA
HETATM    2  C2          0      36.768  24.548  -4.677  1.00  0.00     0.201 C 
HETATM    3  C3          0      35.394  24.666  -4.800  1.00  0.00     0.067 C 
HETATM    4  C4          0      34.536  24.276  -3.778  1.00  0.00     0.103 C 
HETATM    5  O13         0      35.052  23.764  -2.676  1.00  0.00    -0.307 OA
HETATM    6  C14         0      36.351  23.664  -2.493  1.00  0.00     0.107 C 
HETATM    7  C15         0      36.901  23.514  -1.228  1.00  0.00     0.049 C 
HETATM    8  C16         0      38.266  23.665  -1.012  1.00  0.00     0.093 C 
HETATM    9  C18         0      39.065  23.439  -2.127  1.00  0.00     0.048 C 
HETATM   10  C19         0      38.535  23.535  -3.406  1.00  0.00     0.096 C 
HETATM   11  C21         0      37.211  23.838  -3.571  1.00  0.00     0.084 C 
ENDROOT
BRANCH  10  12
HETATM   12  O20         0      39.391  23.740  -4.483  1.00  0.00    -0.359 OA
HETATM   13  H20         0      39.305  23.168  -5.236  1.00  0.00     0.218 HD
ENDBRANCH  10  12
BRANCH   4  14
HETATM   14  C5          0      33.237  24.948  -3.702  1.00  0.00     0.025 C 
HETATM   15  C6          0      32.245  24.778  -4.657  1.00  0.00     0.004 C 
HETATM   16  C7          0      30.928  24.718  -4.214  1.00  0.00     0.026 C 
HETATM   17  C8          0      30.594  24.953  -2.884  1.00  0.00     0.112 C 
HETATM   18  C10         0      31.519  25.712  -2.180  1.00  0.00     0.112 C 
HETATM   19  C12         0      32.845  25.687  -2.593  1.00  0.00     0.028 C 
BRANCH  17  20
HETATM   20  O9          0      29.532  24.292  -2.293  1.00  0.00    -0.357 OA
HETATM   21  H9          0      29.230  24.463  -1.408  1.00  0.00     0.218 HD
ENDBRANCH  17  20
BRANCH  18  22
HETATM   22  O11         0      31.149  26.134  -0.911  1.00  0.00    -0.357 OA
HETATM   23  H11         0      30.831  25.468  -0.311  1.00  0.00     0.218 HD
ENDBRANCH  18  22
ENDBRANCH   4  14
BRANCH   8  24
HETATM   24  O17         0      38.757  24.316   0.125  1.00  0.00    -0.359 OA
HETATM   25  H17         0      38.457  25.183   0.372  1.00  0.00     0.218 HD
ENDBRANCH   8  24
TORSDOF 5
ENDMDL
MODEL 9
REMARK VINA RESULT:      -3.5      4.997      7.556
REMARK  5 active torsions:
REMARK  status: ('A' for Active; 'I' for Inactive)
REMARK    1  A    between atoms: C4_4  and  C5_5 
REMARK    2  A    between atoms: C8_8  and  O9_9 
REMARK    3  A    between atoms: C10_11  and  O11_12 
REMARK    4  A    between atoms: C16_18  and  O17_19 
REMARK    5  A    between atoms: C19_22  and  O20_23 
ROOT
HETATM    1  O1          0      26.568  21.144  -5.538  1.00  0.00    -0.286 OA
HETATM    2  C2          0      26.870  22.049  -4.712  1.00  0.00     0.201 C 
HETATM    3  C3          0      28.008  22.827  -4.834  1.00  0.00     0.067 C 
HETATM    4  C4          0      28.371  23.746  -3.856  1.00  0.00     0.103 C 
HETATM    5  O13         0      27.593  23.887  -2.797  1.00  0.00    -0.307 OA
HETATM    6  C14         0      26.522  23.146  -2.614  1.00  0.00     0.107 C 
HETATM    7  C15         0      25.941  22.999  -1.362  1.00  0.00     0.049 C 
HETATM    8  C16         0      24.977  22.027  -1.124  1.00  0.00     0.093 C 
HETATM    9  C18         0      24.272  21.612  -2.248  1.00  0.00     0.048 C 
HETATM   10  C19         0      24.804  21.787  -3.519  1.00  0.00     0.096 C 
HETATM   11  C21         0      26.024  22.388  -3.667  1.00  0.00     0.084 C 
ENDROOT
BRANCH  10  12
HETATM   12  O20         0      24.328  21.006  -4.568  1.00  0.00    -0.359 OA
HETATM   13  H20         0      24.920  20.819  -5.287  1.00  0.00     0.218 HD
ENDBRANCH  10  12
BRANCH   4  14
HETATM   14  C5          0      29.795  24.066  -3.732  1.00  0.00     0.025 C 
HETATM   15  C6          0      30.642  24.159  -4.826  1.00  0.00     0.004 C 
HETATM   16  C7          0      31.614  25.155  -4.806  1.00  0.00     0.026 C 
HETATM   17  C8          0      31.826  25.944  -3.680  1.00  0.00     0.112 C 
HETATM   18  C10         0      31.402  25.377  -2.486  1.00  0.00     0.112 C 
HETATM   19  C12         0      30.370  24.447  -2.527  1.00  0.00     0.028 C 
BRANCH  17  20
HETATM   20  O9          0      32.229  27.262  -3.805  1.00  0.00    -0.357 OA
HETATM   21  H9          0      31.969  27.828  -4.523  1.00  0.00     0.218 HD
ENDBRANCH  17  20
BRANCH  18  22
HETATM   22  O11         0      31.757  26.035  -1.317  1.00  0.00    -0.357 OA
HETATM   23  H11         0      31.566  25.591  -0.499  1.00  0.00     0.218 HD
ENDBRANCH  18  22
ENDBRANCH   4  14
BRANCH   8  24
HETATM   24  O17         0      24.958  21.294   0.068  1.00  0.00    -0.359 OA
HETATM   25  H17         0      24.143  21.036   0.482  1.00  0.00     0.218 HD
ENDBRANCH   8  24
TORSDOF 5
ENDMDL
