MODEL 1
REMARK VINA RESULT:      -0.1      0.000      0.000
REMARK  5 active torsions:
REMARK  status: ('A' for Active; 'I' for Inactive)
REMARK    1  A    between atoms: C4_4  and  C5_5 
REMARK    2  A    between atoms: C8_8  and  O9_9 
REMARK    3  A    between atoms: C10_11  and  O11_12 
REMARK    4  A    between atoms: C16_18  and  O17_19 
REMARK    5  A    between atoms: C19_22  and  O20_23 
ROOT
HETATM    1  O1          0      56.982 110.498  -1.009  1.00  0.00    -0.286 OA
HETATM    2  C2          0      56.314 111.567  -1.046  1.00  0.00     0.201 C 
HETATM    3  C3          0      55.051 111.682  -0.491  1.00  0.00     0.067 C 
HETATM    4  C4          0      54.294 112.840  -0.635  1.00  0.00     0.103 C 
HETATM    5  O13         0      54.810 113.856  -1.303  1.00  0.00    -0.307 OA
HETATM    6  C14         0      55.988 113.786  -1.882  1.00  0.00     0.107 C 
HETATM    7  C15         0      56.360 114.661  -2.893  1.00  0.00     0.049 C 
HETATM    8  C16         0      57.488 114.429  -3.670  1.00  0.00     0.093 C 
HETATM    9  C18         0      58.462 113.641  -3.069  1.00  0.00     0.048 C 
HETATM   10  C19         0      58.135 112.789  -2.023  1.00  0.00     0.096 C 
HETATM   11  C21         0      56.845 112.736  -1.569  1.00  0.00     0.084 C 
ENDROOT
BRANCH  10  12
HETATM   12  O20         0      58.974 111.719  -1.729  1.00  0.00    -0.359 OA
HETATM   13  H20         0      59.833 111.912  -1.373  1.00  0.00     0.218 HD
ENDBRANCH  10  12
BRANCH   4  14
HETATM   14  C5          0      52.838 112.699  -0.580  1.00  0.00     0.025 C 
HETATM   15  C6          0      51.977 113.478  -1.340  1.00  0.00     0.004 C 
HETATM   16  C7          0      50.847 112.863  -1.868  1.00  0.00     0.026 C 
HETATM   17  C8          0      50.510 111.553  -1.543  1.00  0.00     0.112 C 
HETATM   18  C10         0      51.037 111.101  -0.340  1.00  0.00     0.112 C 
HETATM   19  C12         0      52.215 111.675   0.122  1.00  0.00     0.028 C 
BRANCH  17  20
HETATM   20  O9          0      49.882 110.733  -2.463  1.00  0.00    -0.357 OA
HETATM   21  H9          0      49.507 109.887  -2.247  1.00  0.00     0.218 HD
ENDBRANCH  17  20
BRANCH  18  22
HETATM   22  O11         0      50.581 109.875   0.124  1.00  0.00    -0.357 OA
HETATM   23  H11         0      51.197 109.347   0.619  1.00  0.00     0.218 HD
ENDBRANCH  18  22
ENDBRANCH   4  14
BRANCH   8  24
HETATM   24  O17         0      57.489 114.678  -5.047  1.00  0.00    -0.359 OA
HETATM   25  H17         0      58.053 114.197  -5.641  1.00  0.00     0.218 HD
ENDBRANCH   8  24
TORSDOF 5
ENDMDL
MODEL 2
REMARK VINA RESULT:      -0.0      3.605      6.801
REMARK  5 active torsions:
REMARK  status: ('A' for Active; 'I' for Inactive)
REMARK    1  A    between atoms: C4_4  and  C5_5 
REMARK    2  A    between atoms: C8_8  and  O9_9 
REMARK    3  A    between atoms: C10_11  and  O11_12 
REMARK    4  A    between atoms: C16_18  and  O17_19 
REMARK    5  A    between atoms: C19_22  and  O20_23 
ROOT
HETATM    1  O1          0      54.359 111.722  -3.440  1.00  0.00    -0.286 OA
HETATM    2  C2          0      53.447 112.567  -3.657  1.00  0.00     0.201 C 
HETATM    3  C3          0      53.629 113.678  -4.462  1.00  0.00     0.067 C 
HETATM    4  C4          0      52.641 114.647  -4.601  1.00  0.00     0.103 C 
HETATM    5  O13         0      51.497 114.482  -3.961  1.00  0.00    -0.307 OA
HETATM    6  C14         0      51.286 113.465  -3.155  1.00  0.00     0.107 C 
HETATM    7  C15         0      50.285 113.488  -2.195  1.00  0.00     0.049 C 
HETATM    8  C16         0      50.228 112.532  -1.188  1.00  0.00     0.093 C 
HETATM    9  C18         0      50.844 111.324  -1.491  1.00  0.00     0.048 C 
HETATM   10  C19         0      51.816 111.255  -2.479  1.00  0.00     0.096 C 
HETATM   11  C21         0      52.161 112.384  -3.172  1.00  0.00     0.084 C 
ENDROOT
BRANCH  10  12
HETATM   12  O20         0      52.713 110.191  -2.479  1.00  0.00    -0.359 OA
HETATM   13  H20         0      53.505 110.277  -2.995  1.00  0.00     0.218 HD
ENDBRANCH  10  12
BRANCH   4  14
HETATM   14  C5          0      53.077 116.005  -4.929  1.00  0.00     0.025 C 
HETATM   15  C6          0      52.209 116.981  -5.396  1.00  0.00     0.004 C 
HETATM   16  C7          0      52.398 118.283  -4.945  1.00  0.00     0.026 C 
HETATM   17  C8          0      53.493 118.631  -4.161  1.00  0.00     0.112 C 
HETATM   18  C10         0      54.586 117.783  -4.282  1.00  0.00     0.112 C 
HETATM   19  C12         0      54.359 116.463  -4.653  1.00  0.00     0.028 C 
BRANCH  17  20
HETATM   20  O9          0      53.390 119.618  -3.196  1.00  0.00    -0.357 OA
HETATM   21  H9          0      52.664 120.228  -3.141  1.00  0.00     0.218 HD
ENDBRANCH  17  20
BRANCH  18  22
HETATM   22  O11         0      55.765 118.186  -3.672  1.00  0.00    -0.357 OA
HETATM   23  H11         0      56.315 117.502  -3.306  1.00  0.00     0.218 HD
ENDBRANCH  18  22
ENDBRANCH   4  14
BRANCH   8  24
HETATM   24  O17         0      49.887 112.875   0.125  1.00  0.00    -0.359 OA
HETATM   25  H17         0      49.010 113.160   0.355  1.00  0.00     0.218 HD
ENDBRANCH   8  24
TORSDOF 5
ENDMDL
MODEL 3
REMARK VINA RESULT:      -0.0      2.179      2.713
REMARK  5 active torsions:
REMARK  status: ('A' for Active; 'I' for Inactive)
REMARK    1  A    between atoms: C4_4  and  C5_5 
REMARK    2  A    between atoms: C8_8  and  O9_9 
REMARK    3  A    between atoms: C10_11  and  O11_12 
REMARK    4  A    between atoms: C16_18  and  O17_19 
REMARK    5  A    between atoms: C19_22  and  O20_23 
ROOT
HETATM    1  O1          0      56.707 111.841  -2.300  1.00  0.00    -0.286 OA
HETATM    2  C2          0      56.389 113.045  -2.502  1.00  0.00     0.201 C 
HETATM    3  C3          0      55.240 113.615  -1.983  1.00  0.00     0.067 C 
HETATM    4  C4          0      54.861 114.914  -2.305  1.00  0.00     0.103 C 
HETATM    5  O13         0      55.634 115.619  -3.112  1.00  0.00    -0.307 OA
HETATM    6  C14         0      56.716 115.113  -3.662  1.00  0.00     0.107 C 
HETATM    7  C15         0      57.296 115.679  -4.789  1.00  0.00     0.049 C 
HETATM    8  C16         0      58.274 115.007  -5.511  1.00  0.00     0.093 C 
HETATM    9  C18         0      58.988 114.057  -4.790  1.00  0.00     0.048 C 
HETATM   10  C19         0      58.457 113.505  -3.633  1.00  0.00     0.096 C 
HETATM   11  C21         0      57.228 113.910  -3.188  1.00  0.00     0.084 C 
ENDROOT
BRANCH  10  12
HETATM   12  O20         0      58.947 112.285  -3.174  1.00  0.00    -0.359 OA
HETATM   13  H20         0      59.836 112.260  -2.842  1.00  0.00     0.218 HD
ENDBRANCH  10  12
BRANCH   4  14
HETATM   14  C5          0      53.432 115.229  -2.244  1.00  0.00     0.025 C 
HETATM   15  C6          0      52.816 116.100  -3.130  1.00  0.00     0.004 C 
HETATM   16  C7          0      51.533 115.778  -3.564  1.00  0.00     0.026 C 
HETATM   17  C8          0      50.833 114.700  -3.033  1.00  0.00     0.112 C 
HETATM   18  C10         0      51.246 114.307  -1.768  1.00  0.00     0.112 C 
HETATM   19  C12         0      52.559 114.565  -1.391  1.00  0.00     0.028 C 
BRANCH  17  20
HETATM   20  O9          0      49.954 113.973  -3.815  1.00  0.00    -0.357 OA
HETATM   21  H9          0      49.352 113.324  -3.469  1.00  0.00     0.218 HD
ENDBRANCH  17  20
BRANCH  18  22
HETATM   22  O11         0      50.464 113.365  -1.116  1.00  0.00    -0.357 OA
HETATM   23  H11         0      50.532 113.330  -0.168  1.00  0.00     0.218 HD
ENDBRANCH  18  22
ENDBRANCH   4  14
BRANCH   8  24
HETATM   24  O17         0      58.301 115.042  -6.910  1.00  0.00    -0.359 OA
HETATM   25  H17         0      58.673 114.332  -7.420  1.00  0.00     0.218 HD
ENDBRANCH   8  24
TORSDOF 5
ENDMDL
MODEL 4
REMARK VINA RESULT:      -0.0      3.275      4.309
REMARK  5 active torsions:
REMARK  status: ('A' for Active; 'I' for Inactive)
REMARK    1  A    between atoms: C4_4  and  C5_5 
REMARK    2  A    between atoms: C8_8  and  O9_9 
REMARK    3  A    between atoms: C10_11  and  O11_12 
REMARK    4  A    between atoms: C16_18  and  O17_19 
REMARK    5  A    between atoms: C19_22  and  O20_23 
ROOT
HETATM    1  O1          0      57.906 116.804  -1.175  1.00  0.00    -0.286 OA
HETATM    2  C2          0      57.144 116.394  -2.094  1.00  0.00     0.201 C 
HETATM    3  C3          0      55.826 116.800  -2.212  1.00  0.00     0.067 C 
HETATM    4  C4          0      54.979 116.256  -3.171  1.00  0.00     0.103 C 
HETATM    5  O13         0      55.460 115.343  -3.998  1.00  0.00    -0.307 OA
HETATM    6  C14         0      56.692 114.896  -3.904  1.00  0.00     0.107 C 
HETATM    7  C15         0      57.078 113.692  -4.476  1.00  0.00     0.049 C 
HETATM    8  C16         0      58.297 113.102  -4.164  1.00  0.00     0.093 C 
HETATM    9  C18         0      59.277 113.981  -3.718  1.00  0.00     0.048 C 
HETATM   10  C19         0      58.928 115.214  -3.183  1.00  0.00     0.096 C 
HETATM   11  C21         0      57.610 115.574  -3.109  1.00  0.00     0.084 C 
ENDROOT
BRANCH  10  12
HETATM   12  O20         0      59.833 115.879  -2.362  1.00  0.00    -0.359 OA
HETATM   13  H20         0      59.534 116.161  -1.506  1.00  0.00     0.218 HD
ENDBRANCH  10  12
BRANCH   4  14
HETATM   14  C5          0      53.545 116.253  -2.875  1.00  0.00     0.025 C 
HETATM   15  C6          0      52.699 115.225  -3.264  1.00  0.00     0.004 C 
HETATM   16  C7          0      51.695 114.847  -2.379  1.00  0.00     0.026 C 
HETATM   17  C8          0      51.453 115.552  -1.205  1.00  0.00     0.112 C 
HETATM   18  C10         0      51.891 116.870  -1.220  1.00  0.00     0.112 C 
HETATM   19  C12         0      52.954 117.203  -2.052  1.00  0.00     0.028 C 
BRANCH  17  20
HETATM   20  O9          0      51.006 114.904  -0.068  1.00  0.00    -0.357 OA
HETATM   21  H9          0      51.127 115.240   0.813  1.00  0.00     0.218 HD
ENDBRANCH  17  20
BRANCH  18  22
HETATM   22  O11         0      51.510 117.671  -0.154  1.00  0.00    -0.357 OA
HETATM   23  H11         0      50.654 117.504   0.225  1.00  0.00     0.218 HD
ENDBRANCH  18  22
ENDBRANCH   4  14
BRANCH   8  24
HETATM   24  O17         0      58.415 111.719  -3.989  1.00  0.00    -0.359 OA
HETATM   25  H17         0      58.400 111.322  -3.126  1.00  0.00     0.218 HD
ENDBRANCH   8  24
TORSDOF 5
ENDMDL
MODEL 5
REMARK VINA RESULT:      -0.0     13.668     16.237
REMARK  5 active torsions:
REMARK  status: ('A' for Active; 'I' for Inactive)
REMARK    1  A    between atoms: C4_4  and  C5_5 
REMARK    2  A    between atoms: C8_8  and  O9_9 
REMARK    3  A    between atoms: C10_11  and  O11_12 
REMARK    4  A    between atoms: C16_18  and  O17_19 
REMARK    5  A    between atoms: C19_22  and  O20_23 
ROOT
HETATM    1  O1          0      63.147 119.650  -7.147  1.00  0.00    -0.286 OA
HETATM    2  C2          0      63.962 119.877  -8.082  1.00  0.00     0.201 C 
HETATM    3  C3          0      64.791 118.901  -8.609  1.00  0.00     0.067 C 
HETATM    4  C4          0      65.752 119.202  -9.568  1.00  0.00     0.103 C 
HETATM    5  O13         0      65.856 120.448  -9.994  1.00  0.00    -0.307 OA
HETATM    6  C14         0      65.119 121.419  -9.501  1.00  0.00     0.107 C 
HETATM    7  C15         0      65.481 122.752  -9.637  1.00  0.00     0.049 C 
HETATM    8  C16         0      64.848 123.749  -8.905  1.00  0.00     0.093 C 
HETATM    9  C18         0      63.561 123.440  -8.481  1.00  0.00     0.048 C 
HETATM   10  C19         0      63.151 122.117  -8.378  1.00  0.00     0.096 C 
HETATM   11  C21         0      64.015 121.111  -8.713  1.00  0.00     0.084 C 
ENDROOT
BRANCH  10  12
HETATM   12  O20         0      62.066 121.803  -7.566  1.00  0.00    -0.359 OA
HETATM   13  H20         0      61.806 120.891  -7.504  1.00  0.00     0.218 HD
ENDBRANCH  10  12
BRANCH   4  14
HETATM   14  C5          0      66.932 118.336  -9.628  1.00  0.00     0.025 C 
HETATM   15  C6          0      68.161 118.772 -10.099  1.00  0.00     0.004 C 
HETATM   16  C7          0      69.301 118.312  -9.448  1.00  0.00     0.026 C 
HETATM   17  C8          0      69.231 117.347  -8.449  1.00  0.00     0.112 C 
HETATM   18  C10         0      68.099 116.544  -8.497  1.00  0.00     0.112 C 
HETATM   19  C12         0      66.948 117.060  -9.078  1.00  0.00     0.028 C 
BRANCH  17  20
HETATM   20  O9          0      70.122 117.356  -7.391  1.00  0.00    -0.357 OA
HETATM   21  H9          0      70.075 116.755  -6.656  1.00  0.00     0.218 HD
ENDBRANCH  17  20
BRANCH  18  22
HETATM   22  O11         0      68.069 115.449  -7.646  1.00  0.00    -0.357 OA
HETATM   23  H11         0      67.904 114.601  -8.041  1.00  0.00     0.218 HD
ENDBRANCH  18  22
ENDBRANCH   4  14
BRANCH   8  24
HETATM   24  O17         0      65.565 124.819  -8.358  1.00  0.00    -0.359 OA
HETATM   25  H17         0      65.205 125.697  -8.326  1.00  0.00     0.218 HD
ENDBRANCH   8  24
TORSDOF 5
ENDMDL
MODEL 6
REMARK VINA RESULT:      -0.0     10.994     13.125
REMARK  5 active torsions:
REMARK  status: ('A' for Active; 'I' for Inactive)
REMARK    1  A    between atoms: C4_4  and  C5_5 
REMARK    2  A    between atoms: C8_8  and  O9_9 
REMARK    3  A    between atoms: C10_11  and  O11_12 
REMARK    4  A    between atoms: C16_18  and  O17_19 
REMARK    5  A    between atoms: C19_22  and  O20_23 
ROOT
HETATM    1  O1          0      56.584 116.657 -13.529  1.00  0.00    -0.286 OA
HETATM    2  C2          0      57.502 117.335 -12.992  1.00  0.00     0.201 C 
HETATM    3  C3          0      58.781 116.844 -12.795  1.00  0.00     0.067 C 
HETATM    4  C4          0      59.744 117.574 -12.108  1.00  0.00     0.103 C 
HETATM    5  O13         0      59.427 118.773 -11.653  1.00  0.00    -0.307 OA
HETATM    6  C14         0      58.217 119.271 -11.780  1.00  0.00     0.107 C 
HETATM    7  C15         0      57.768 120.314 -10.982  1.00  0.00     0.049 C 
HETATM    8  C16         0      56.424 120.665 -10.941  1.00  0.00     0.093 C 
HETATM    9  C18         0      55.691 120.315 -12.069  1.00  0.00     0.048 C 
HETATM   10  C19         0      56.135 119.307 -12.914  1.00  0.00     0.096 C 
HETATM   11  C21         0      57.312 118.664 -12.644  1.00  0.00     0.084 C 
ENDROOT
BRANCH  10  12
HETATM   12  O20         0      55.225 118.676 -13.757  1.00  0.00    -0.359 OA
HETATM   13  H20         0      54.984 119.118 -14.562  1.00  0.00     0.218 HD
ENDBRANCH  10  12
BRANCH   4  14
HETATM   14  C5          0      60.799 116.818 -11.428  1.00  0.00     0.025 C 
HETATM   15  C6          0      61.471 117.301 -10.315  1.00  0.00     0.004 C 
HETATM   16  C7          0      61.789 116.392  -9.310  1.00  0.00     0.026 C 
HETATM   17  C8          0      61.568 115.028  -9.464  1.00  0.00     0.112 C 
HETATM   18  C10         0      61.504 114.596 -10.782  1.00  0.00     0.112 C 
HETATM   19  C12         0      61.101 115.503 -11.755  1.00  0.00     0.028 C 
BRANCH  17  20
HETATM   20  O9          0      61.232 114.237  -8.380  1.00  0.00    -0.357 OA
HETATM   21  H9          0      60.869 114.578  -7.571  1.00  0.00     0.218 HD
ENDBRANCH  17  20
BRANCH  18  22
HETATM   22  O11         0      61.475 113.225 -10.994  1.00  0.00    -0.357 OA
HETATM   23  H11         0      62.310 112.772 -10.992  1.00  0.00     0.218 HD
ENDBRANCH  18  22
ENDBRANCH   4  14
BRANCH   8  24
HETATM   24  O17         0      55.801 121.023  -9.740  1.00  0.00    -0.359 OA
HETATM   25  H17         0      54.990 121.518  -9.728  1.00  0.00     0.218 HD
ENDBRANCH   8  24
TORSDOF 5
ENDMDL
MODEL 7
REMARK VINA RESULT:      -0.0      6.838     10.249
REMARK  5 active torsions:
REMARK  status: ('A' for Active; 'I' for Inactive)
REMARK    1  A    between atoms: C4_4  and  C5_5 
REMARK    2  A    between atoms: C8_8  and  O9_9 
REMARK    3  A    between atoms: C10_11  and  O11_12 
REMARK    4  A    between atoms: C16_18  and  O17_19 
REMARK    5  A    between atoms: C19_22  and  O20_23 
ROOT
HETATM    1  O1          0      58.649 120.042  -8.430  1.00  0.00    -0.286 OA
HETATM    2  C2          0      59.552 119.634  -7.648  1.00  0.00     0.201 C 
HETATM    3  C3          0      59.972 118.315  -7.611  1.00  0.00     0.067 C 
HETATM    4  C4          0      60.894 117.871  -6.670  1.00  0.00     0.103 C 
HETATM    5  O13         0      61.391 118.741  -5.809  1.00  0.00    -0.307 OA
HETATM    6  C14         0      60.998 119.995  -5.777  1.00  0.00     0.107 C 
HETATM    7  C15         0      61.197 120.795  -4.660  1.00  0.00     0.049 C 
HETATM    8  C16         0      60.563 122.025  -4.532  1.00  0.00     0.093 C 
HETATM    9  C18         0      60.190 122.621  -5.731  1.00  0.00     0.048 C 
HETATM   10  C19         0      60.029 121.857  -6.879  1.00  0.00     0.096 C 
HETATM   11  C21         0      60.254 120.508  -6.833  1.00  0.00     0.084 C 
ENDROOT
BRANCH  10  12
HETATM   12  O20         0      59.258 122.355  -7.924  1.00  0.00    -0.359 OA
HETATM   13  H20         0      58.334 122.507  -7.764  1.00  0.00     0.218 HD
ENDBRANCH  10  12
BRANCH   4  14
HETATM   14  C5          0      60.837 116.458  -6.292  1.00  0.00     0.025 C 
HETATM   15  C6          0      61.268 115.992  -5.058  1.00  0.00     0.004 C 
HETATM   16  C7          0      60.529 114.976  -4.459  1.00  0.00     0.026 C 
HETATM   17  C8          0      59.478 114.351  -5.121  1.00  0.00     0.112 C 
HETATM   18  C10         0      59.537 114.429  -6.506  1.00  0.00     0.112 C 
HETATM   19  C12         0      60.210 115.501  -7.079  1.00  0.00     0.028 C 
BRANCH  17  20
HETATM   20  O9          0      58.376 113.889  -4.424  1.00  0.00    -0.357 OA
HETATM   21  H9          0      57.478 114.066  -4.679  1.00  0.00     0.218 HD
ENDBRANCH  17  20
BRANCH  18  22
HETATM   22  O11         0      58.623 113.666  -7.218  1.00  0.00    -0.357 OA
HETATM   23  H11         0      58.049 113.100  -6.713  1.00  0.00     0.218 HD
ENDBRANCH  18  22
ENDBRANCH   4  14
BRANCH   8  24
HETATM   24  O17         0      60.046 122.455  -3.305  1.00  0.00    -0.359 OA
HETATM   25  H17         0      59.552 121.872  -2.740  1.00  0.00     0.218 HD
ENDBRANCH   8  24
TORSDOF 5
ENDMDL
MODEL 8
REMARK VINA RESULT:      -0.0      7.662     10.998
REMARK  5 active torsions:
REMARK  status: ('A' for Active; 'I' for Inactive)
REMARK    1  A    between atoms: C4_4  and  C5_5 
REMARK    2  A    between atoms: C8_8  and  O9_9 
REMARK    3  A    between atoms: C10_11  and  O11_12 
REMARK    4  A    between atoms: C16_18  and  O17_19 
REMARK    5  A    between atoms: C19_22  and  O20_23 
ROOT
HETATM    1  O1          0      58.876 118.007 -12.214  1.00  0.00    -0.286 OA
HETATM    2  C2          0      58.246 117.090 -11.619  1.00  0.00     0.201 C 
HETATM    3  C3          0      57.941 117.143 -10.269  1.00  0.00     0.067 C 
HETATM    4  C4          0      57.338 116.074  -9.616  1.00  0.00     0.103 C 
HETATM    5  O13         0      57.034 114.994 -10.314  1.00  0.00    -0.307 OA
HETATM    6  C14         0      57.336 114.877 -11.589  1.00  0.00     0.107 C 
HETATM    7  C15         0      57.392 113.641 -12.216  1.00  0.00     0.049 C 
HETATM    8  C16         0      57.953 113.498 -13.480  1.00  0.00     0.093 C 
HETATM    9  C18         0      57.949 114.649 -14.258  1.00  0.00     0.048 C 
HETATM   10  C19         0      57.846 115.901 -13.665  1.00  0.00     0.096 C 
HETATM   11  C21         0      57.732 116.001 -12.306  1.00  0.00     0.084 C 
ENDROOT
BRANCH  10  12
HETATM   12  O20         0      58.272 117.023 -14.369  1.00  0.00    -0.359 OA
HETATM   13  H20         0      59.002 117.518 -14.018  1.00  0.00     0.218 HD
ENDBRANCH  10  12
BRANCH   4  14
HETATM   14  C5          0      57.589 115.938  -8.180  1.00  0.00     0.025 C 
HETATM   15  C6          0      57.539 114.719  -7.520  1.00  0.00     0.004 C 
HETATM   16  C7          0      58.478 114.488  -6.520  1.00  0.00     0.026 C 
HETATM   17  C8          0      59.352 115.484  -6.096  1.00  0.00     0.112 C 
HETATM   18  C10         0      58.917 116.780  -6.341  1.00  0.00     0.112 C 
HETATM   19  C12         0      58.044 116.994  -7.401  1.00  0.00     0.028 C 
BRANCH  17  20
HETATM   20  O9          0      60.629 115.170  -5.667  1.00  0.00    -0.357 OA
HETATM   21  H9          0      61.391 115.713  -5.836  1.00  0.00     0.218 HD
ENDBRANCH  17  20
BRANCH  18  22
HETATM   22  O11         0      59.655 117.808  -5.773  1.00  0.00    -0.357 OA
HETATM   23  H11         0      60.151 117.600  -4.990  1.00  0.00     0.218 HD
ENDBRANCH  18  22
ENDBRANCH   4  14
BRANCH   8  24
HETATM   24  O17         0      58.752 112.395 -13.803  1.00  0.00    -0.359 OA
HETATM   25  H17         0      58.676 111.571 -13.337  1.00  0.00     0.218 HD
ENDBRANCH   8  24
TORSDOF 5
ENDMDL
MODEL 9
REMARK VINA RESULT:      -0.0      8.955     13.266
REMARK  5 active torsions:
REMARK  status: ('A' for Active; 'I' for Inactive)
REMARK    1  A    between atoms: C4_4  and  C5_5 
REMARK    2  A    between atoms: C8_8  and  O9_9 
REMARK    3  A    between atoms: C10_11  and  O11_12 
REMARK    4  A    between atoms: C16_18  and  O17_19 
REMARK    5  A    between atoms: C19_22  and  O20_23 
ROOT
HETATM    1  O1          0      62.649 119.090  -2.927  1.00  0.00    -0.286 OA
HETATM    2  C2          0      63.354 118.618  -3.861  1.00  0.00     0.201 C 
HETATM    3  C3          0      64.244 119.386  -4.592  1.00  0.00     0.067 C 
HETATM    4  C4          0      64.932 118.864  -5.682  1.00  0.00     0.103 C 
HETATM    5  O13         0      64.741 117.598  -6.006  1.00  0.00    -0.307 OA
HETATM    6  C14         0      63.881 116.835  -5.368  1.00  0.00     0.107 C 
HETATM    7  C15         0      63.384 115.667  -5.928  1.00  0.00     0.049 C 
HETATM    8  C16         0      62.297 115.004  -5.371  1.00  0.00     0.093 C 
HETATM    9  C18         0      62.098 115.240  -4.016  1.00  0.00     0.048 C 
HETATM   10  C19         0      62.621 116.376  -3.413  1.00  0.00     0.096 C 
HETATM   11  C21         0      63.352 117.263  -4.155  1.00  0.00     0.084 C 
ENDROOT
BRANCH  10  12
HETATM   12  O20         0      62.073 116.824  -2.215  1.00  0.00    -0.359 OA
HETATM   13  H20         0      62.289 117.702  -1.927  1.00  0.00     0.218 HD
ENDBRANCH  10  12
BRANCH   4  14
HETATM   14  C5          0      65.346 119.804  -6.725  1.00  0.00     0.025 C 
HETATM   15  C6          0      65.531 119.427  -8.047  1.00  0.00     0.004 C 
HETATM   16  C7          0      65.128 120.320  -9.035  1.00  0.00     0.026 C 
HETATM   17  C8          0      64.681 121.599  -8.724  1.00  0.00     0.112 C 
HETATM   18  C10         0      65.122 122.086  -7.500  1.00  0.00     0.112 C 
HETATM   19  C12         0      65.437 121.172  -6.501  1.00  0.00     0.028 C 
BRANCH  17  20
HETATM   20  O9          0      63.709 122.217  -9.491  1.00  0.00    -0.357 OA
HETATM   21  H9          0      63.897 122.720 -10.275  1.00  0.00     0.218 HD
ENDBRANCH  17  20
BRANCH  18  22
HETATM   22  O11         0      64.864 123.421  -7.225  1.00  0.00    -0.357 OA
HETATM   23  H11         0      65.570 123.924  -6.835  1.00  0.00     0.218 HD
ENDBRANCH  18  22
ENDBRANCH   4  14
BRANCH   8  24
HETATM   24  O17         0      61.302 114.433  -6.172  1.00  0.00    -0.359 OA
HETATM   25  H17         0      61.133 113.498  -6.166  1.00  0.00     0.218 HD
ENDBRANCH   8  24
TORSDOF 5
ENDMDL
