MODEL 1
REMARK VINA RESULT:      -4.9      0.000      0.000
REMARK  5 active torsions:
REMARK  status: ('A' for Active; 'I' for Inactive)
REMARK    1  A    between atoms: C4_4  and  C5_5 
REMARK    2  A    between atoms: C8_8  and  O9_9 
REMARK    3  A    between atoms: C10_11  and  O11_12 
REMARK    4  A    between atoms: C16_18  and  O17_19 
REMARK    5  A    between atoms: C19_22  and  O20_23 
ROOT
HETATM    1  O1          0      60.084   7.214 -22.793  1.00  0.00    -0.286 OA
HETATM    2  C2          0      61.110   6.699 -22.271  1.00  0.00     0.201 C 
HETATM    3  C3          0      61.407   5.350 -22.371  1.00  0.00     0.067 C 
HETATM    4  C4          0      62.489   4.791 -21.701  1.00  0.00     0.103 C 
HETATM    5  O13         0      63.259   5.577 -20.969  1.00  0.00    -0.307 OA
HETATM    6  C14         0      63.000   6.857 -20.811  1.00  0.00     0.107 C 
HETATM    7  C15         0      63.538   7.587 -19.761  1.00  0.00     0.049 C 
HETATM    8  C16         0      63.069   8.857 -19.449  1.00  0.00     0.093 C 
HETATM    9  C18         0      62.468   9.535 -20.503  1.00  0.00     0.048 C 
HETATM   10  C19         0      61.960   8.839 -21.592  1.00  0.00     0.096 C 
HETATM   11  C21         0      62.067   7.476 -21.636  1.00  0.00     0.084 C 
ENDROOT
BRANCH  10  12
HETATM   12  O20         0      61.003   9.445 -22.400  1.00  0.00    -0.359 OA
HETATM   13  H20         0      60.980   9.205 -23.319  1.00  0.00     0.218 HD
ENDBRANCH  10  12
BRANCH   4  14
HETATM   14  C5          0      62.400   3.371 -21.354  1.00  0.00     0.025 C 
HETATM   15  C6          0      62.937   2.848 -20.186  1.00  0.00     0.004 C 
HETATM   16  C7          0      62.216   1.851 -19.536  1.00  0.00     0.026 C 
HETATM   17  C8          0      61.068   1.299 -20.094  1.00  0.00     0.112 C 
HETATM   18  C10         0      60.982   1.415 -21.475  1.00  0.00     0.112 C 
HETATM   19  C12         0      61.643   2.470 -22.092  1.00  0.00     0.028 C 
BRANCH  17  20
HETATM   20  O9          0      60.025   0.870 -19.292  1.00  0.00    -0.357 OA
HETATM   21  H9          0      59.290   1.418 -19.045  1.00  0.00     0.218 HD
ENDBRANCH  17  20
BRANCH  18  22
HETATM   22  O11         0      59.957   0.719 -22.101  1.00  0.00    -0.357 OA
HETATM   23  H11         0      59.762  -0.150 -21.770  1.00  0.00     0.218 HD
ENDBRANCH  18  22
ENDBRANCH   4  14
BRANCH   8  24
HETATM   24  O17         0      62.910   9.271 -18.122  1.00  0.00    -0.359 OA
HETATM   25  H17         0      62.601   8.678 -17.448  1.00  0.00     0.218 HD
ENDBRANCH   8  24
TORSDOF 5
ENDMDL
MODEL 2
REMARK VINA RESULT:      -4.6      2.232      6.716
REMARK  5 active torsions:
REMARK  status: ('A' for Active; 'I' for Inactive)
REMARK    1  A    between atoms: C4_4  and  C5_5 
REMARK    2  A    between atoms: C8_8  and  O9_9 
REMARK    3  A    between atoms: C10_11  and  O11_12 
REMARK    4  A    between atoms: C16_18  and  O17_19 
REMARK    5  A    between atoms: C19_22  and  O20_23 
ROOT
HETATM    1  O1          0      65.135   2.296 -22.491  1.00  0.00    -0.286 OA
HETATM    2  C2          0      64.268   2.951 -21.849  1.00  0.00     0.201 C 
HETATM    3  C3          0      64.112   4.320 -21.980  1.00  0.00     0.067 C 
HETATM    4  C4          0      63.220   5.031 -21.186  1.00  0.00     0.103 C 
HETATM    5  O13         0      62.493   4.372 -20.301  1.00  0.00    -0.307 OA
HETATM    6  C14         0      62.629   3.078 -20.110  1.00  0.00     0.107 C 
HETATM    7  C15         0      62.186   2.460 -18.949  1.00  0.00     0.049 C 
HETATM    8  C16         0      62.554   1.156 -18.640  1.00  0.00     0.093 C 
HETATM    9  C18         0      62.901   0.370 -19.732  1.00  0.00     0.048 C 
HETATM   10  C19         0      63.303   0.956 -20.924  1.00  0.00     0.096 C 
HETATM   11  C21         0      63.343   2.320 -21.031  1.00  0.00     0.084 C 
ENDROOT
BRANCH  10  12
HETATM   12  O20         0      64.046   0.209 -21.833  1.00  0.00    -0.359 OA
HETATM   13  H20         0      63.634  -0.029 -22.655  1.00  0.00     0.218 HD
ENDBRANCH  10  12
BRANCH   4  14
HETATM   14  C5          0      63.520   6.443 -20.940  1.00  0.00     0.025 C 
HETATM   15  C6          0      62.655   7.468 -21.290  1.00  0.00     0.004 C 
HETATM   16  C7          0      62.545   8.546 -20.418  1.00  0.00     0.026 C 
HETATM   17  C8          0      63.366   8.668 -19.302  1.00  0.00     0.112 C 
HETATM   18  C10         0      64.567   7.976 -19.387  1.00  0.00     0.112 C 
HETATM   19  C12         0      64.624   6.851 -20.202  1.00  0.00     0.028 C 
BRANCH  17  20
HETATM   20  O9          0      62.901   9.258 -18.140  1.00  0.00    -0.357 OA
HETATM   21  H9          0      62.688  10.181 -18.066  1.00  0.00     0.218 HD
ENDBRANCH  17  20
BRANCH  18  22
HETATM   22  O11         0      65.501   8.212 -18.389  1.00  0.00    -0.357 OA
HETATM   23  H11         0      65.929   9.061 -18.393  1.00  0.00     0.218 HD
ENDBRANCH  18  22
ENDBRANCH   4  14
BRANCH   8  24
HETATM   24  O17         0      62.874   0.780 -17.331  1.00  0.00    -0.359 OA
HETATM   25  H17         0      62.553   1.264 -16.580  1.00  0.00     0.218 HD
ENDBRANCH   8  24
TORSDOF 5
ENDMDL
MODEL 3
REMARK VINA RESULT:      -4.5      1.476      2.164
REMARK  5 active torsions:
REMARK  status: ('A' for Active; 'I' for Inactive)
REMARK    1  A    between atoms: C4_4  and  C5_5 
REMARK    2  A    between atoms: C8_8  and  O9_9 
REMARK    3  A    between atoms: C10_11  and  O11_12 
REMARK    4  A    between atoms: C16_18  and  O17_19 
REMARK    5  A    between atoms: C19_22  and  O20_23 
ROOT
HETATM    1  O1          0      60.520   9.455 -22.359  1.00  0.00    -0.286 OA
HETATM    2  C2          0      61.546   8.898 -21.882  1.00  0.00     0.201 C 
HETATM    3  C3          0      61.873   7.578 -22.140  1.00  0.00     0.067 C 
HETATM    4  C4          0      62.953   6.960 -21.520  1.00  0.00     0.103 C 
HETATM    5  O13         0      63.691   7.664 -20.680  1.00  0.00    -0.307 OA
HETATM    6  C14         0      63.402   8.909 -20.371  1.00  0.00     0.107 C 
HETATM    7  C15         0      63.904   9.513 -19.227  1.00  0.00     0.049 C 
HETATM    8  C16         0      63.401  10.726 -18.772  1.00  0.00     0.093 C 
HETATM    9  C18         0      62.807  11.518 -19.747  1.00  0.00     0.048 C 
HETATM   10  C19         0      62.337  10.953 -20.925  1.00  0.00     0.096 C 
HETATM   11  C21         0      62.474   9.608 -21.134  1.00  0.00     0.084 C 
ENDROOT
BRANCH  10  12
HETATM   12  O20         0      61.384  11.637 -21.674  1.00  0.00    -0.359 OA
HETATM   13  H20         0      61.604  12.505 -21.988  1.00  0.00     0.218 HD
ENDBRANCH  10  12
BRANCH   4  14
HETATM   14  C5          0      62.887   5.507 -21.353  1.00  0.00     0.025 C 
HETATM   15  C6          0      63.474   4.845 -20.284  1.00  0.00     0.004 C 
HETATM   16  C7          0      62.786   3.767 -19.737  1.00  0.00     0.026 C 
HETATM   17  C8          0      61.620   3.276 -20.315  1.00  0.00     0.112 C 
HETATM   18  C10         0      61.476   3.566 -21.665  1.00  0.00     0.112 C 
HETATM   19  C12         0      62.106   4.698 -22.169  1.00  0.00     0.028 C 
BRANCH  17  20
HETATM   20  O9          0      60.613   2.738 -19.533  1.00  0.00    -0.357 OA
HETATM   21  H9          0      59.957   2.133 -19.861  1.00  0.00     0.218 HD
ENDBRANCH  17  20
BRANCH  18  22
HETATM   22  O11         0      60.432   2.943 -22.334  1.00  0.00    -0.357 OA
HETATM   23  H11         0      60.512   2.863 -23.277  1.00  0.00     0.218 HD
ENDBRANCH  18  22
ENDBRANCH   4  14
BRANCH   8  24
HETATM   24  O17         0      63.207  10.969 -17.408  1.00  0.00    -0.359 OA
HETATM   25  H17         0      63.060  11.846 -17.073  1.00  0.00     0.218 HD
ENDBRANCH   8  24
TORSDOF 5
ENDMDL
MODEL 4
REMARK VINA RESULT:      -4.4      1.225      1.769
REMARK  5 active torsions:
REMARK  status: ('A' for Active; 'I' for Inactive)
REMARK    1  A    between atoms: C4_4  and  C5_5 
REMARK    2  A    between atoms: C8_8  and  O9_9 
REMARK    3  A    between atoms: C10_11  and  O11_12 
REMARK    4  A    between atoms: C16_18  and  O17_19 
REMARK    5  A    between atoms: C19_22  and  O20_23 
ROOT
HETATM    1  O1          0      60.105   7.920 -22.964  1.00  0.00    -0.286 OA
HETATM    2  C2          0      60.999   7.269 -22.356  1.00  0.00     0.201 C 
HETATM    3  C3          0      61.054   5.886 -22.360  1.00  0.00     0.067 C 
HETATM    4  C4          0      61.987   5.191 -21.599  1.00  0.00     0.103 C 
HETATM    5  O13         0      62.852   5.878 -20.874  1.00  0.00    -0.307 OA
HETATM    6  C14         0      62.820   7.191 -20.805  1.00  0.00     0.107 C 
HETATM    7  C15         0      63.433   7.884 -19.771  1.00  0.00     0.049 C 
HETATM    8  C16         0      63.184   9.235 -19.561  1.00  0.00     0.093 C 
HETATM    9  C18         0      62.762   9.935 -20.685  1.00  0.00     0.048 C 
HETATM   10  C19         0      62.187   9.268 -21.757  1.00  0.00     0.096 C 
HETATM   11  C21         0      62.051   7.907 -21.716  1.00  0.00     0.084 C 
ENDROOT
BRANCH  10  12
HETATM   12  O20         0      61.391   9.976 -22.652  1.00  0.00    -0.359 OA
HETATM   13  H20         0      60.451   9.960 -22.520  1.00  0.00     0.218 HD
ENDBRANCH  10  12
BRANCH   4  14
HETATM   14  C5          0      61.631   3.836 -21.175  1.00  0.00     0.025 C 
HETATM   15  C6          0      61.222   2.853 -22.064  1.00  0.00     0.004 C 
HETATM   16  C7          0      61.660   1.553 -21.834  1.00  0.00     0.026 C 
HETATM   17  C8          0      62.368   1.214 -20.686  1.00  0.00     0.112 C 
HETATM   18  C10         0      62.174   2.072 -19.611  1.00  0.00     0.112 C 
HETATM   19  C12         0      61.819   3.390 -19.873  1.00  0.00     0.028 C 
BRANCH  17  20
HETATM   20  O9          0      63.337   0.227 -20.716  1.00  0.00    -0.357 OA
HETATM   21  H9          0      63.147  -0.701 -20.643  1.00  0.00     0.218 HD
ENDBRANCH  17  20
BRANCH  18  22
HETATM   22  O11         0      62.703   1.679 -18.390  1.00  0.00    -0.357 OA
HETATM   23  H11         0      63.191   0.863 -18.375  1.00  0.00     0.218 HD
ENDBRANCH  18  22
ENDBRANCH   4  14
BRANCH   8  24
HETATM   24  O17         0      63.044   9.759 -18.271  1.00  0.00    -0.359 OA
HETATM   25  H17         0      63.452   9.348 -17.518  1.00  0.00     0.218 HD
ENDBRANCH   8  24
TORSDOF 5
ENDMDL
MODEL 5
REMARK VINA RESULT:      -4.4      2.622      3.770
REMARK  5 active torsions:
REMARK  status: ('A' for Active; 'I' for Inactive)
REMARK    1  A    between atoms: C4_4  and  C5_5 
REMARK    2  A    between atoms: C8_8  and  O9_9 
REMARK    3  A    between atoms: C10_11  and  O11_12 
REMARK    4  A    between atoms: C16_18  and  O17_19 
REMARK    5  A    between atoms: C19_22  and  O20_23 
ROOT
HETATM    1  O1          0      63.022   9.390 -19.418  1.00  0.00    -0.286 OA
HETATM    2  C2          0      63.845   8.456 -19.628  1.00  0.00     0.201 C 
HETATM    3  C3          0      63.506   7.296 -20.303  1.00  0.00     0.067 C 
HETATM    4  C4          0      64.402   6.240 -20.431  1.00  0.00     0.103 C 
HETATM    5  O13         0      65.609   6.365 -19.910  1.00  0.00    -0.307 OA
HETATM    6  C14         0      65.969   7.430 -19.227  1.00  0.00     0.107 C 
HETATM    7  C15         0      67.049   7.409 -18.357  1.00  0.00     0.049 C 
HETATM    8  C16         0      67.270   8.444 -17.455  1.00  0.00     0.093 C 
HETATM    9  C18         0      66.722   9.668 -17.821  1.00  0.00     0.048 C 
HETATM   10  C19         0      65.670   9.728 -18.725  1.00  0.00     0.096 C 
HETATM   11  C21         0      65.180   8.574 -19.274  1.00  0.00     0.084 C 
ENDROOT
BRANCH  10  12
HETATM   12  O20         0      64.860  10.858 -18.752  1.00  0.00    -0.359 OA
HETATM   13  H20         0      65.102  11.566 -19.337  1.00  0.00     0.218 HD
ENDBRANCH  10  12
BRANCH   4  14
HETATM   14  C5          0      63.837   4.898 -20.588  1.00  0.00     0.025 C 
HETATM   15  C6          0      64.623   3.763 -20.723  1.00  0.00     0.004 C 
HETATM   16  C7          0      64.191   2.601 -20.092  1.00  0.00     0.026 C 
HETATM   17  C8          0      62.954   2.531 -19.459  1.00  0.00     0.112 C 
HETATM   18  C10         0      62.019   3.452 -19.912  1.00  0.00     0.112 C 
HETATM   19  C12         0      62.477   4.644 -20.462  1.00  0.00     0.028 C 
BRANCH  17  20
HETATM   20  O9          0      62.776   1.745 -18.335  1.00  0.00    -0.357 OA
HETATM   21  H9          0      62.312   2.033 -17.557  1.00  0.00     0.218 HD
ENDBRANCH  17  20
BRANCH  18  22
HETATM   22  O11         0      60.718   3.305 -19.452  1.00  0.00    -0.357 OA
HETATM   23  H11         0      60.316   2.451 -19.565  1.00  0.00     0.218 HD
ENDBRANCH  18  22
ENDBRANCH   4  14
BRANCH   8  24
HETATM   24  O17         0      67.703   8.193 -16.149  1.00  0.00    -0.359 OA
HETATM   25  H17         0      67.176   7.696 -15.534  1.00  0.00     0.218 HD
ENDBRANCH   8  24
TORSDOF 5
ENDMDL
MODEL 6
REMARK VINA RESULT:      -4.2      5.327      8.603
REMARK  5 active torsions:
REMARK  status: ('A' for Active; 'I' for Inactive)
REMARK    1  A    between atoms: C4_4  and  C5_5 
REMARK    2  A    between atoms: C8_8  and  O9_9 
REMARK    3  A    between atoms: C10_11  and  O11_12 
REMARK    4  A    between atoms: C16_18  and  O17_19 
REMARK    5  A    between atoms: C19_22  and  O20_23 
ROOT
HETATM    1  O1          0      67.864  10.620 -14.750  1.00  0.00    -0.286 OA
HETATM    2  C2          0      67.766   9.640 -15.539  1.00  0.00     0.201 C 
HETATM    3  C3          0      67.339   9.771 -16.849  1.00  0.00     0.067 C 
HETATM    4  C4          0      67.142   8.663 -17.665  1.00  0.00     0.103 C 
HETATM    5  O13         0      67.390   7.462 -17.175  1.00  0.00    -0.307 OA
HETATM    6  C14         0      67.761   7.279 -15.927  1.00  0.00     0.107 C 
HETATM    7  C15         0      67.637   6.047 -15.300  1.00  0.00     0.049 C 
HETATM    8  C16         0      67.787   5.919 -13.925  1.00  0.00     0.093 C 
HETATM    9  C18         0      68.559   6.906 -13.324  1.00  0.00     0.048 C 
HETATM   10  C19         0      68.743   8.133 -13.946  1.00  0.00     0.096 C 
HETATM   11  C21         0      68.174   8.368 -15.167  1.00  0.00     0.084 C 
ENDROOT
BRANCH  10  12
HETATM   12  O20         0      69.125   9.232 -13.182  1.00  0.00    -0.359 OA
HETATM   13  H20         0      68.536   9.976 -13.147  1.00  0.00     0.218 HD
ENDBRANCH  10  12
BRANCH   4  14
HETATM   14  C5          0      66.166   8.795 -18.749  1.00  0.00     0.025 C 
HETATM   15  C6          0      65.972   7.814 -19.710  1.00  0.00     0.004 C 
HETATM   16  C7          0      64.670   7.578 -20.138  1.00  0.00     0.026 C 
HETATM   17  C8          0      63.610   8.379 -19.725  1.00  0.00     0.112 C 
HETATM   18  C10         0      63.974   9.653 -19.311  1.00  0.00     0.112 C 
HETATM   19  C12         0      65.256   9.843 -18.808  1.00  0.00     0.028 C 
BRANCH  17  20
HETATM   20  O9          0      62.345   7.847 -19.554  1.00  0.00    -0.357 OA
HETATM   21  H9          0      62.003   7.557 -18.716  1.00  0.00     0.218 HD
ENDBRANCH  17  20
BRANCH  18  22
HETATM   22  O11         0      62.946  10.553 -19.070  1.00  0.00    -0.357 OA
HETATM   23  H11         0      62.958  11.006 -18.234  1.00  0.00     0.218 HD
ENDBRANCH  18  22
ENDBRANCH   4  14
BRANCH   8  24
HETATM   24  O17         0      66.958   5.076 -13.176  1.00  0.00    -0.359 OA
HETATM   25  H17         0      66.535   4.319 -13.564  1.00  0.00     0.218 HD
ENDBRANCH   8  24
TORSDOF 5
ENDMDL
MODEL 7
REMARK VINA RESULT:      -4.1      9.417     13.491
REMARK  5 active torsions:
REMARK  status: ('A' for Active; 'I' for Inactive)
REMARK    1  A    between atoms: C4_4  and  C5_5 
REMARK    2  A    between atoms: C8_8  and  O9_9 
REMARK    3  A    between atoms: C10_11  and  O11_12 
REMARK    4  A    between atoms: C16_18  and  O17_19 
REMARK    5  A    between atoms: C19_22  and  O20_23 
ROOT
HETATM    1  O1          0      68.234  15.578 -14.962  1.00  0.00    -0.286 OA
HETATM    2  C2          0      67.090  15.090 -14.748  1.00  0.00     0.201 C 
HETATM    3  C3          0      66.222  15.601 -13.798  1.00  0.00     0.067 C 
HETATM    4  C4          0      65.011  14.982 -13.511  1.00  0.00     0.103 C 
HETATM    5  O13         0      64.680  13.892 -14.180  1.00  0.00    -0.307 OA
HETATM    6  C14         0      65.484  13.344 -15.065  1.00  0.00     0.107 C 
HETATM    7  C15         0      65.338  12.024 -15.467  1.00  0.00     0.049 C 
HETATM    8  C16         0      66.329  11.379 -16.198  1.00  0.00     0.093 C 
HETATM    9  C18         0      67.159  12.219 -16.930  1.00  0.00     0.048 C 
HETATM   10  C19         0      67.292  13.556 -16.584  1.00  0.00     0.096 C 
HETATM   11  C21         0      66.587  14.057 -15.524  1.00  0.00     0.084 C 
ENDROOT
BRANCH  10  12
HETATM   12  O20         0      68.410  14.263 -17.016  1.00  0.00    -0.359 OA
HETATM   13  H20         0      68.952  13.871 -17.690  1.00  0.00     0.218 HD
ENDBRANCH  10  12
BRANCH   4  14
HETATM   14  C5          0      64.460  15.179 -12.169  1.00  0.00     0.025 C 
HETATM   15  C6          0      65.223  15.633 -11.102  1.00  0.00     0.004 C 
HETATM   16  C7          0      64.622  16.514 -10.209  1.00  0.00     0.026 C 
HETATM   17  C8          0      63.270  16.830 -10.294  1.00  0.00     0.112 C 
HETATM   18  C10         0      62.493  15.882 -10.948  1.00  0.00     0.112 C 
HETATM   19  C12         0      63.102  15.071 -11.898  1.00  0.00     0.028 C 
BRANCH  17  20
HETATM   20  O9          0      62.811  18.085  -9.936  1.00  0.00    -0.357 OA
HETATM   21  H9          0      62.417  18.284  -9.095  1.00  0.00     0.218 HD
ENDBRANCH  17  20
BRANCH  18  22
HETATM   22  O11         0      61.117  16.054 -10.896  1.00  0.00    -0.357 OA
HETATM   23  H11         0      60.597  15.540 -11.503  1.00  0.00     0.218 HD
ENDBRANCH  18  22
ENDBRANCH   4  14
BRANCH   8  24
HETATM   24  O17         0      66.668  10.045 -15.947  1.00  0.00    -0.359 OA
HETATM   25  H17         0      66.370   9.339 -16.508  1.00  0.00     0.218 HD
ENDBRANCH   8  24
TORSDOF 5
ENDMDL
MODEL 8
REMARK VINA RESULT:      -3.9      8.526     12.529
REMARK  5 active torsions:
REMARK  status: ('A' for Active; 'I' for Inactive)
REMARK    1  A    between atoms: C4_4  and  C5_5 
REMARK    2  A    between atoms: C8_8  and  O9_9 
REMARK    3  A    between atoms: C10_11  and  O11_12 
REMARK    4  A    between atoms: C16_18  and  O17_19 
REMARK    5  A    between atoms: C19_22  and  O20_23 
ROOT
HETATM    1  O1          0      67.684  15.860 -11.616  1.00  0.00    -0.286 OA
HETATM    2  C2          0      66.790  15.148 -12.150  1.00  0.00     0.201 C 
HETATM    3  C3          0      67.062  14.212 -13.133  1.00  0.00     0.067 C 
HETATM    4  C4          0      66.046  13.514 -13.776  1.00  0.00     0.103 C 
HETATM    5  O13         0      64.795  13.743 -13.419  1.00  0.00    -0.307 OA
HETATM    6  C14         0      64.479  14.647 -12.518  1.00  0.00     0.107 C 
HETATM    7  C15         0      63.197  15.171 -12.426  1.00  0.00     0.049 C 
HETATM    8  C16         0      62.931  16.296 -11.656  1.00  0.00     0.093 C 
HETATM    9  C18         0      63.827  16.522 -10.618  1.00  0.00     0.048 C 
HETATM   10  C19         0      65.102  15.975 -10.655  1.00  0.00     0.096 C 
HETATM   11  C21         0      65.474  15.192 -11.714  1.00  0.00     0.084 C 
ENDROOT
BRANCH  10  12
HETATM   12  O20         0      66.108  16.538  -9.875  1.00  0.00    -0.359 OA
HETATM   13  H20         0      66.080  16.389  -8.938  1.00  0.00     0.218 HD
ENDBRANCH  10  12
BRANCH   4  14
HETATM   14  C5          0      66.316  13.039 -15.134  1.00  0.00     0.025 C 
HETATM   15  C6          0      67.060  11.898 -15.397  1.00  0.00     0.004 C 
HETATM   16  C7          0      66.646  11.088 -16.450  1.00  0.00     0.026 C 
HETATM   17  C8          0      65.611  11.466 -17.299  1.00  0.00     0.112 C 
HETATM   18  C10         0      65.378  12.834 -17.355  1.00  0.00     0.112 C 
HETATM   19  C12         0      65.723  13.608 -16.253  1.00  0.00     0.028 C 
BRANCH  17  20
HETATM   20  O9          0      64.770  10.520 -17.856  1.00  0.00    -0.357 OA
HETATM   21  H9          0      64.521  10.509 -18.773  1.00  0.00     0.218 HD
ENDBRANCH  17  20
BRANCH  18  22
HETATM   22  O11         0      64.489  13.281 -18.322  1.00  0.00    -0.357 OA
HETATM   23  H11         0      64.855  13.519 -19.166  1.00  0.00     0.218 HD
ENDBRANCH  18  22
ENDBRANCH   4  14
BRANCH   8  24
HETATM   24  O17         0      62.048  17.289 -12.095  1.00  0.00    -0.359 OA
HETATM   25  H17         0      61.111  17.142 -12.135  1.00  0.00     0.218 HD
ENDBRANCH   8  24
TORSDOF 5
ENDMDL
MODEL 9
REMARK VINA RESULT:      -3.9      2.602      3.551
REMARK  5 active torsions:
REMARK  status: ('A' for Active; 'I' for Inactive)
REMARK    1  A    between atoms: C4_4  and  C5_5 
REMARK    2  A    between atoms: C8_8  and  O9_9 
REMARK    3  A    between atoms: C10_11  and  O11_12 
REMARK    4  A    between atoms: C16_18  and  O17_19 
REMARK    5  A    between atoms: C19_22  and  O20_23 
ROOT
HETATM    1  O1          0      66.459   8.851 -22.444  1.00  0.00    -0.286 OA
HETATM    2  C2          0      65.780   8.349 -21.506  1.00  0.00     0.201 C 
HETATM    3  C3          0      65.623   6.983 -21.341  1.00  0.00     0.067 C 
HETATM    4  C4          0      64.786   6.460 -20.362  1.00  0.00     0.103 C 
HETATM    5  O13         0      64.146   7.293 -19.562  1.00  0.00    -0.307 OA
HETATM    6  C14         0      64.230   8.598 -19.699  1.00  0.00     0.107 C 
HETATM    7  C15         0      63.284   9.454 -19.154  1.00  0.00     0.049 C 
HETATM    8  C16         0      63.233  10.796 -19.511  1.00  0.00     0.093 C 
HETATM    9  C18         0      64.430  11.325 -19.978  1.00  0.00     0.048 C 
HETATM   10  C19         0      65.418  10.493 -20.488  1.00  0.00     0.096 C 
HETATM   11  C21         0      65.218   9.140 -20.515  1.00  0.00     0.084 C 
ENDROOT
BRANCH  10  12
HETATM   12  O20         0      66.389  11.026 -21.330  1.00  0.00    -0.359 OA
HETATM   13  H20         0      67.238  10.601 -21.356  1.00  0.00     0.218 HD
ENDBRANCH  10  12
BRANCH   4  14
HETATM   14  C5          0      64.207   5.139 -20.613  1.00  0.00     0.025 C 
HETATM   15  C6          0      64.972   3.984 -20.690  1.00  0.00     0.004 C 
HETATM   16  C7          0      64.443   2.822 -20.138  1.00  0.00     0.026 C 
HETATM   17  C8          0      63.143   2.774 -19.646  1.00  0.00     0.112 C 
HETATM   18  C10         0      62.288   3.731 -20.175  1.00  0.00     0.112 C 
HETATM   19  C12         0      62.836   4.920 -20.642  1.00  0.00     0.028 C 
BRANCH  17  20
HETATM   20  O9          0      62.822   1.969 -18.568  1.00  0.00    -0.357 OA
HETATM   21  H9          0      61.938   1.682 -18.368  1.00  0.00     0.218 HD
ENDBRANCH  17  20
BRANCH  18  22
HETATM   22  O11         0      60.941   3.611 -19.865  1.00  0.00    -0.357 OA
HETATM   23  H11         0      60.624   2.740 -19.654  1.00  0.00     0.218 HD
ENDBRANCH  18  22
ENDBRANCH   4  14
BRANCH   8  24
HETATM   24  O17         0      62.013  11.453 -19.705  1.00  0.00    -0.359 OA
HETATM   25  H17         0      61.498  11.327 -20.493  1.00  0.00     0.218 HD
ENDBRANCH   8  24
TORSDOF 5
ENDMDL
