MODEL 1
REMARK VINA RESULT:      -8.7      0.000      0.000
REMARK  5 active torsions:
REMARK  status: ('A' for Active; 'I' for Inactive)
REMARK    1  A    between atoms: C4_4  and  C5_5 
REMARK    2  A    between atoms: C8_8  and  O9_9 
REMARK    3  A    between atoms: C10_11  and  O11_12 
REMARK    4  A    between atoms: C16_18  and  O17_19 
REMARK    5  A    between atoms: C19_22  and  O20_23 
ROOT
HETATM    1  O1          0      57.394  41.037  31.049  1.00  0.00    -0.286 OA
HETATM    2  C2          0      56.993  41.184  29.862  1.00  0.00     0.201 C 
HETATM    3  C3          0      55.651  41.265  29.528  1.00  0.00     0.067 C 
HETATM    4  C4          0      55.233  41.323  28.204  1.00  0.00     0.103 C 
HETATM    5  O13         0      56.146  41.322  27.249  1.00  0.00    -0.307 OA
HETATM    6  C14         0      57.430  41.209  27.509  1.00  0.00     0.107 C 
HETATM    7  C15         0      58.340  40.810  26.541  1.00  0.00     0.049 C 
HETATM    8  C16         0      59.639  40.448  26.877  1.00  0.00     0.093 C 
HETATM    9  C18         0      60.113  40.998  28.062  1.00  0.00     0.048 C 
HETATM   10  C19         0      59.230  41.451  29.033  1.00  0.00     0.096 C 
HETATM   11  C21         0      57.882  41.371  28.814  1.00  0.00     0.084 C 
ENDROOT
BRANCH  10  12
HETATM   12  O20         0      59.671  41.583  30.346  1.00  0.00    -0.359 OA
HETATM   13  H20         0      59.078  41.329  31.043  1.00  0.00     0.218 HD
ENDBRANCH  10  12
BRANCH   4  14
HETATM   14  C5          0      53.895  40.810  27.901  1.00  0.00     0.025 C 
HETATM   15  C6          0      53.682  39.617  27.226  1.00  0.00     0.004 C 
HETATM   16  C7          0      52.619  38.822  27.643  1.00  0.00     0.026 C 
HETATM   17  C8          0      51.716  39.258  28.606  1.00  0.00     0.112 C 
HETATM   18  C10         0      51.633  40.637  28.741  1.00  0.00     0.112 C 
HETATM   19  C12         0      52.741  41.402  28.398  1.00  0.00     0.028 C 
BRANCH  17  20
HETATM   20  O9          0      51.128  38.363  29.483  1.00  0.00    -0.357 OA
HETATM   21  H9          0      51.189  38.433  30.429  1.00  0.00     0.218 HD
ENDBRANCH  17  20
BRANCH  18  22
HETATM   22  O11         0      50.617  41.129  29.548  1.00  0.00    -0.357 OA
HETATM   23  H11         0      50.145  40.498  30.079  1.00  0.00     0.218 HD
ENDBRANCH  18  22
ENDBRANCH   4  14
BRANCH   8  24
HETATM   24  O17         0      60.277  39.367  26.260  1.00  0.00    -0.359 OA
HETATM   25  H17         0      59.992  39.033  25.418  1.00  0.00     0.218 HD
ENDBRANCH   8  24
TORSDOF 5
ENDMDL
MODEL 2
REMARK VINA RESULT:      -8.3      5.307      7.544
REMARK  5 active torsions:
REMARK  status: ('A' for Active; 'I' for Inactive)
REMARK    1  A    between atoms: C4_4  and  C5_5 
REMARK    2  A    between atoms: C8_8  and  O9_9 
REMARK    3  A    between atoms: C10_11  and  O11_12 
REMARK    4  A    between atoms: C16_18  and  O17_19 
REMARK    5  A    between atoms: C19_22  and  O20_23 
ROOT
HETATM    1  O1          0      54.277  36.587  26.266  1.00  0.00    -0.286 OA
HETATM    2  C2          0      55.178  37.117  25.560  1.00  0.00     0.201 C 
HETATM    3  C3          0      55.636  36.555  24.381  1.00  0.00     0.067 C 
HETATM    4  C4          0      56.701  37.106  23.676  1.00  0.00     0.103 C 
HETATM    5  O13         0      57.268  38.205  24.141  1.00  0.00    -0.307 OA
HETATM    6  C14         0      56.897  38.758  25.274  1.00  0.00     0.107 C 
HETATM    7  C15         0      57.718  39.642  25.960  1.00  0.00     0.049 C 
HETATM    8  C16         0      57.437  40.022  27.266  1.00  0.00     0.093 C 
HETATM    9  C18         0      56.100  39.922  27.632  1.00  0.00     0.048 C 
HETATM   10  C19         0      55.240  39.082  26.939  1.00  0.00     0.096 C 
HETATM   11  C21         0      55.708  38.359  25.875  1.00  0.00     0.084 C 
ENDROOT
BRANCH  10  12
HETATM   12  O20         0      54.064  38.656  27.550  1.00  0.00    -0.359 OA
HETATM   13  H20         0      53.449  39.318  27.841  1.00  0.00     0.218 HD
ENDBRANCH  10  12
BRANCH   4  14
HETATM   14  C5          0      57.495  36.199  22.845  1.00  0.00     0.025 C 
HETATM   15  C6          0      58.857  36.010  23.029  1.00  0.00     0.004 C 
HETATM   16  C7          0      59.357  34.723  22.861  1.00  0.00     0.026 C 
HETATM   17  C8          0      58.558  33.684  22.396  1.00  0.00     0.112 C 
HETATM   18  C10         0      57.451  34.089  21.663  1.00  0.00     0.112 C 
HETATM   19  C12         0      56.919  35.349  21.911  1.00  0.00     0.028 C 
BRANCH  17  20
HETATM   20  O9          0      58.761  32.386  22.828  1.00  0.00    -0.357 OA
HETATM   21  H9          0      58.403  31.622  22.391  1.00  0.00     0.218 HD
ENDBRANCH  17  20
BRANCH  18  22
HETATM   22  O11         0      56.727  33.096  21.018  1.00  0.00    -0.357 OA
HETATM   23  H11         0      56.048  32.662  21.522  1.00  0.00     0.218 HD
ENDBRANCH  18  22
ENDBRANCH   4  14
BRANCH   8  24
HETATM   24  O17         0      58.452  40.163  28.219  1.00  0.00    -0.359 OA
HETATM   25  H17         0      58.733  41.017  28.527  1.00  0.00     0.218 HD
ENDBRANCH   8  24
TORSDOF 5
ENDMDL
MODEL 3
REMARK VINA RESULT:      -8.3      4.890      7.328
REMARK  5 active torsions:
REMARK  status: ('A' for Active; 'I' for Inactive)
REMARK    1  A    between atoms: C4_4  and  C5_5 
REMARK    2  A    between atoms: C8_8  and  O9_9 
REMARK    3  A    between atoms: C10_11  and  O11_12 
REMARK    4  A    between atoms: C16_18  and  O17_19 
REMARK    5  A    between atoms: C19_22  and  O20_23 
ROOT
HETATM    1  O1          0      59.160  39.384  27.037  1.00  0.00    -0.286 OA
HETATM    2  C2          0      58.305  38.499  26.756  1.00  0.00     0.201 C 
HETATM    3  C3          0      58.584  37.420  25.935  1.00  0.00     0.067 C 
HETATM    4  C4          0      57.597  36.516  25.558  1.00  0.00     0.103 C 
HETATM    5  O13         0      56.370  36.689  26.017  1.00  0.00    -0.307 OA
HETATM    6  C14         0      56.043  37.717  26.769  1.00  0.00     0.107 C 
HETATM    7  C15         0      54.725  38.124  26.918  1.00  0.00     0.049 C 
HETATM    8  C16         0      54.408  39.347  27.496  1.00  0.00     0.093 C 
HETATM    9  C18         0      55.372  39.856  28.359  1.00  0.00     0.048 C 
HETATM   10  C19         0      56.692  39.436  28.268  1.00  0.00     0.096 C 
HETATM   11  C21         0      57.044  38.501  27.333  1.00  0.00     0.084 C 
ENDROOT
BRANCH  10  12
HETATM   12  O20         0      57.698  40.233  28.803  1.00  0.00    -0.359 OA
HETATM   13  H20         0      58.433  40.458  28.245  1.00  0.00     0.218 HD
ENDBRANCH  10  12
BRANCH   4  14
HETATM   14  C5          0      57.782  35.814  24.287  1.00  0.00     0.025 C 
HETATM   15  C6          0      58.721  36.203  23.342  1.00  0.00     0.004 C 
HETATM   16  C7          0      59.397  35.200  22.655  1.00  0.00     0.026 C 
HETATM   17  C8          0      59.059  33.859  22.802  1.00  0.00     0.112 C 
HETATM   18  C10         0      57.761  33.633  23.239  1.00  0.00     0.112 C 
HETATM   19  C12         0      57.138  34.618  23.997  1.00  0.00     0.028 C 
BRANCH  17  20
HETATM   20  O9          0      60.024  32.872  22.718  1.00  0.00    -0.357 OA
HETATM   21  H9          0      60.424  32.592  21.902  1.00  0.00     0.218 HD
ENDBRANCH  17  20
BRANCH  18  22
HETATM   22  O11         0      57.311  32.320  23.222  1.00  0.00    -0.357 OA
HETATM   23  H11         0      56.943  31.981  24.030  1.00  0.00     0.218 HD
ENDBRANCH  18  22
ENDBRANCH   4  14
BRANCH   8  24
HETATM   24  O17         0      53.376  40.146  26.993  1.00  0.00    -0.359 OA
HETATM   25  H17         0      52.926  40.782  27.537  1.00  0.00     0.218 HD
ENDBRANCH   8  24
TORSDOF 5
ENDMDL
MODEL 4
REMARK VINA RESULT:      -8.0      3.175      4.871
REMARK  5 active torsions:
REMARK  status: ('A' for Active; 'I' for Inactive)
REMARK    1  A    between atoms: C4_4  and  C5_5 
REMARK    2  A    between atoms: C8_8  and  O9_9 
REMARK    3  A    between atoms: C10_11  and  O11_12 
REMARK    4  A    between atoms: C16_18  and  O17_19 
REMARK    5  A    between atoms: C19_22  and  O20_23 
ROOT
HETATM    1  O1          0      59.568  40.811  27.852  1.00  0.00    -0.286 OA
HETATM    2  C2          0      58.348  40.539  27.681  1.00  0.00     0.201 C 
HETATM    3  C3          0      57.896  39.738  26.647  1.00  0.00     0.067 C 
HETATM    4  C4          0      56.539  39.537  26.420  1.00  0.00     0.103 C 
HETATM    5  O13         0      55.668  40.113  27.230  1.00  0.00    -0.307 OA
HETATM    6  C14         0      56.043  40.913  28.204  1.00  0.00     0.107 C 
HETATM    7  C15         0      55.165  41.816  28.787  1.00  0.00     0.049 C 
HETATM    8  C16         0      55.621  42.825  29.627  1.00  0.00     0.093 C 
HETATM    9  C18         0      56.834  42.565  30.253  1.00  0.00     0.048 C 
HETATM   10  C19         0      57.715  41.633  29.723  1.00  0.00     0.096 C 
HETATM   11  C21         0      57.380  40.952  28.584  1.00  0.00     0.084 C 
ENDROOT
BRANCH  10  12
HETATM   12  O20         0      59.060  41.690  30.076  1.00  0.00    -0.359 OA
HETATM   13  H20         0      59.385  42.494  30.463  1.00  0.00     0.218 HD
ENDBRANCH  10  12
BRANCH   4  14
HETATM   14  C5          0      56.128  39.225  25.050  1.00  0.00     0.025 C 
HETATM   15  C6          0      57.030  39.106  24.003  1.00  0.00     0.004 C 
HETATM   16  C7          0      56.792  38.114  23.056  1.00  0.00     0.026 C 
HETATM   17  C8          0      55.628  37.354  23.074  1.00  0.00     0.112 C 
HETATM   18  C10         0      54.556  37.950  23.725  1.00  0.00     0.112 C 
HETATM   19  C12         0      54.823  38.876  24.726  1.00  0.00     0.028 C 
BRANCH  17  20
HETATM   20  O9          0      55.637  36.035  22.657  1.00  0.00    -0.357 OA
HETATM   21  H9          0      55.837  35.302  23.228  1.00  0.00     0.218 HD
ENDBRANCH  17  20
BRANCH  18  22
HETATM   22  O11         0      53.323  37.323  23.609  1.00  0.00    -0.357 OA
HETATM   23  H11         0      52.913  37.335  22.752  1.00  0.00     0.218 HD
ENDBRANCH  18  22
ENDBRANCH   4  14
BRANCH   8  24
HETATM   24  O17         0      55.080  44.115  29.578  1.00  0.00    -0.359 OA
HETATM   25  H17         0      54.145  44.261  29.495  1.00  0.00     0.218 HD
ENDBRANCH   8  24
TORSDOF 5
ENDMDL
MODEL 5
REMARK VINA RESULT:      -7.9      1.696      2.185
REMARK  5 active torsions:
REMARK  status: ('A' for Active; 'I' for Inactive)
REMARK    1  A    between atoms: C4_4  and  C5_5 
REMARK    2  A    between atoms: C8_8  and  O9_9 
REMARK    3  A    between atoms: C10_11  and  O11_12 
REMARK    4  A    between atoms: C16_18  and  O17_19 
REMARK    5  A    between atoms: C19_22  and  O20_23 
ROOT
HETATM    1  O1          0      56.638  40.058  30.558  1.00  0.00    -0.286 OA
HETATM    2  C2          0      56.520  40.347  29.336  1.00  0.00     0.201 C 
HETATM    3  C3          0      55.360  40.112  28.618  1.00  0.00     0.067 C 
HETATM    4  C4          0      55.290  40.345  27.249  1.00  0.00     0.103 C 
HETATM    5  O13         0      56.357  40.821  26.631  1.00  0.00    -0.307 OA
HETATM    6  C14         0      57.494  41.027  27.258  1.00  0.00     0.107 C 
HETATM    7  C15         0      58.697  41.135  26.574  1.00  0.00     0.049 C 
HETATM    8  C16         0      59.914  41.095  27.244  1.00  0.00     0.093 C 
HETATM    9  C18         0      59.861  41.476  28.579  1.00  0.00     0.048 C 
HETATM   10  C19         0      58.665  41.425  29.281  1.00  0.00     0.096 C 
HETATM   11  C21         0      57.524  41.012  28.648  1.00  0.00     0.084 C 
ENDROOT
BRANCH  10  12
HETATM   12  O20         0      58.693  41.378  30.671  1.00  0.00    -0.359 OA
HETATM   13  H20         0      59.488  41.655  31.110  1.00  0.00     0.218 HD
ENDBRANCH  10  12
BRANCH   4  14
HETATM   14  C5          0      54.328  39.552  26.482  1.00  0.00     0.025 C 
HETATM   15  C6          0      54.674  38.852  25.336  1.00  0.00     0.004 C 
HETATM   16  C7          0      54.087  37.605  25.139  1.00  0.00     0.026 C 
HETATM   17  C8          0      53.090  37.128  25.983  1.00  0.00     0.112 C 
HETATM   18  C10         0      52.392  38.112  26.671  1.00  0.00     0.112 C 
HETATM   19  C12         0      53.033  39.318  26.928  1.00  0.00     0.028 C 
BRANCH  17  20
HETATM   20  O9          0      52.975  35.775  26.249  1.00  0.00    -0.357 OA
HETATM   21  H9          0      52.539  35.158  25.673  1.00  0.00     0.218 HD
ENDBRANCH  17  20
BRANCH  18  22
HETATM   22  O11         0      51.269  37.708  27.378  1.00  0.00    -0.357 OA
HETATM   23  H11         0      50.900  36.862  27.151  1.00  0.00     0.218 HD
ENDBRANCH  18  22
ENDBRANCH   4  14
BRANCH   8  24
HETATM   24  O17         0      61.015  40.411  26.716  1.00  0.00    -0.359 OA
HETATM   25  H17         0      61.240  40.464  25.795  1.00  0.00     0.218 HD
ENDBRANCH   8  24
TORSDOF 5
ENDMDL
MODEL 6
REMARK VINA RESULT:      -7.9      3.170      5.145
REMARK  5 active torsions:
REMARK  status: ('A' for Active; 'I' for Inactive)
REMARK    1  A    between atoms: C4_4  and  C5_5 
REMARK    2  A    between atoms: C8_8  and  O9_9 
REMARK    3  A    between atoms: C10_11  and  O11_12 
REMARK    4  A    between atoms: C16_18  and  O17_19 
REMARK    5  A    between atoms: C19_22  and  O20_23 
ROOT
HETATM    1  O1          0      59.584  38.011  25.871  1.00  0.00    -0.286 OA
HETATM    2  C2          0      58.516  38.675  25.772  1.00  0.00     0.201 C 
HETATM    3  C3          0      58.123  39.609  26.716  1.00  0.00     0.067 C 
HETATM    4  C4          0      56.893  40.252  26.635  1.00  0.00     0.103 C 
HETATM    5  O13         0      56.097  39.975  25.618  1.00  0.00    -0.307 OA
HETATM    6  C14         0      56.405  39.070  24.716  1.00  0.00     0.107 C 
HETATM    7  C15         0      55.443  38.492  23.901  1.00  0.00     0.049 C 
HETATM    8  C16         0      55.725  37.367  23.135  1.00  0.00     0.093 C 
HETATM    9  C18         0      57.067  37.195  22.819  1.00  0.00     0.048 C 
HETATM   10  C19         0      58.056  37.797  23.586  1.00  0.00     0.096 C 
HETATM   11  C21         0      57.706  38.581  24.651  1.00  0.00     0.084 C 
ENDROOT
BRANCH  10  12
HETATM   12  O20         0      59.351  37.289  23.547  1.00  0.00    -0.359 OA
HETATM   13  H20         0      59.506  36.505  23.034  1.00  0.00     0.218 HD
ENDBRANCH  10  12
BRANCH   4  14
HETATM   14  C5          0      56.299  40.720  27.889  1.00  0.00     0.025 C 
HETATM   15  C6          0      57.059  41.136  28.972  1.00  0.00     0.004 C 
HETATM   16  C7          0      56.595  42.223  29.706  1.00  0.00     0.026 C 
HETATM   17  C8          0      55.352  42.794  29.456  1.00  0.00     0.112 C 
HETATM   18  C10         0      54.442  41.952  28.831  1.00  0.00     0.112 C 
HETATM   19  C12         0      54.933  40.925  28.034  1.00  0.00     0.028 C 
BRANCH  17  20
HETATM   20  O9          0      55.147  44.151  29.634  1.00  0.00    -0.357 OA
HETATM   21  H9          0      55.817  44.810  29.491  1.00  0.00     0.218 HD
ENDBRANCH  17  20
BRANCH  18  22
HETATM   22  O11         0      53.134  42.405  28.729  1.00  0.00    -0.357 OA
HETATM   23  H11         0      52.928  42.961  27.986  1.00  0.00     0.218 HD
ENDBRANCH  18  22
ENDBRANCH   4  14
BRANCH   8  24
HETATM   24  O17         0      54.796  36.330  22.992  1.00  0.00    -0.359 OA
HETATM   25  H17         0      54.631  35.708  23.690  1.00  0.00     0.218 HD
ENDBRANCH   8  24
TORSDOF 5
ENDMDL
MODEL 7
REMARK VINA RESULT:      -7.9      3.325      4.976
REMARK  5 active torsions:
REMARK  status: ('A' for Active; 'I' for Inactive)
REMARK    1  A    between atoms: C4_4  and  C5_5 
REMARK    2  A    between atoms: C8_8  and  O9_9 
REMARK    3  A    between atoms: C10_11  and  O11_12 
REMARK    4  A    between atoms: C16_18  and  O17_19 
REMARK    5  A    between atoms: C19_22  and  O20_23 
ROOT
HETATM    1  O1          0      54.292  37.983  23.096  1.00  0.00    -0.286 OA
HETATM    2  C2          0      54.797  37.914  24.250  1.00  0.00     0.201 C 
HETATM    3  C3          0      54.088  38.222  25.399  1.00  0.00     0.067 C 
HETATM    4  C4          0      54.697  38.237  26.649  1.00  0.00     0.103 C 
HETATM    5  O13         0      55.979  37.928  26.734  1.00  0.00    -0.307 OA
HETATM    6  C14         0      56.707  37.664  25.671  1.00  0.00     0.107 C 
HETATM    7  C15         0      58.092  37.734  25.697  1.00  0.00     0.049 C 
HETATM    8  C16         0      58.838  37.707  24.525  1.00  0.00     0.093 C 
HETATM    9  C18         0      58.215  37.090  23.447  1.00  0.00     0.048 C 
HETATM   10  C19         0      56.833  36.960  23.410  1.00  0.00     0.096 C 
HETATM   11  C21         0      56.080  37.428  24.452  1.00  0.00     0.084 C 
ENDROOT
BRANCH  10  12
HETATM   12  O20         0      56.201  36.757  22.187  1.00  0.00    -0.359 OA
HETATM   13  H20         0      56.023  37.517  21.646  1.00  0.00     0.218 HD
ENDBRANCH  10  12
BRANCH   4  14
HETATM   14  C5          0      54.114  39.112  27.668  1.00  0.00     0.025 C 
HETATM   15  C6          0      54.875  39.979  28.439  1.00  0.00     0.004 C 
HETATM   16  C7          0      54.333  41.227  28.730  1.00  0.00     0.026 C 
HETATM   17  C8          0      53.027  41.554  28.382  1.00  0.00     0.112 C 
HETATM   18  C10         0      52.183  40.465  28.209  1.00  0.00     0.112 C 
HETATM   19  C12         0      52.742  39.249  27.835  1.00  0.00     0.028 C 
BRANCH  17  20
HETATM   20  O9          0      52.689  42.850  28.037  1.00  0.00    -0.357 OA
HETATM   21  H9          0      52.729  43.188  27.149  1.00  0.00     0.218 HD
ENDBRANCH  17  20
BRANCH  18  22
HETATM   22  O11         0      50.832  40.736  28.048  1.00  0.00    -0.357 OA
HETATM   23  H11         0      50.538  41.610  28.278  1.00  0.00     0.218 HD
ENDBRANCH  18  22
ENDBRANCH   4  14
BRANCH   8  24
HETATM   24  O17         0      59.962  38.523  24.356  1.00  0.00    -0.359 OA
HETATM   25  H17         0      60.430  38.887  25.099  1.00  0.00     0.218 HD
ENDBRANCH   8  24
TORSDOF 5
ENDMDL
MODEL 8
REMARK VINA RESULT:      -7.8      1.928      6.690
REMARK  5 active torsions:
REMARK  status: ('A' for Active; 'I' for Inactive)
REMARK    1  A    between atoms: C4_4  and  C5_5 
REMARK    2  A    between atoms: C8_8  and  O9_9 
REMARK    3  A    between atoms: C10_11  and  O11_12 
REMARK    4  A    between atoms: C16_18  and  O17_19 
REMARK    5  A    between atoms: C19_22  and  O20_23 
ROOT
HETATM    1  O1          0      55.318  37.032  26.324  1.00  0.00    -0.286 OA
HETATM    2  C2          0      54.960  38.213  26.586  1.00  0.00     0.201 C 
HETATM    3  C3          0      55.863  39.245  26.783  1.00  0.00     0.067 C 
HETATM    4  C4          0      55.446  40.513  27.172  1.00  0.00     0.103 C 
HETATM    5  O13         0      54.153  40.734  27.335  1.00  0.00    -0.307 OA
HETATM    6  C14         0      53.258  39.781  27.198  1.00  0.00     0.107 C 
HETATM    7  C15         0      51.987  39.888  27.742  1.00  0.00     0.049 C 
HETATM    8  C16         0      51.138  38.790  27.816  1.00  0.00     0.093 C 
HETATM    9  C18         0      51.391  37.789  26.886  1.00  0.00     0.048 C 
HETATM   10  C19         0      52.639  37.681  26.286  1.00  0.00     0.096 C 
HETATM   11  C21         0      53.623  38.578  26.602  1.00  0.00     0.084 C 
ENDROOT
BRANCH  10  12
HETATM   12  O20         0      53.018  36.470  25.718  1.00  0.00    -0.359 OA
HETATM   13  H20         0      52.540  36.167  24.955  1.00  0.00     0.218 HD
ENDBRANCH  10  12
BRANCH   4  14
HETATM   14  C5          0      56.401  41.331  27.921  1.00  0.00     0.025 C 
HETATM   15  C6          0      56.018  42.193  28.938  1.00  0.00     0.004 C 
HETATM   16  C7          0      56.849  42.287  30.050  1.00  0.00     0.026 C 
HETATM   17  C8          0      58.085  41.652  30.093  1.00  0.00     0.112 C 
HETATM   18  C10         0      58.635  41.369  28.850  1.00  0.00     0.112 C 
HETATM   19  C12         0      57.775  41.196  27.772  1.00  0.00     0.028 C 
BRANCH  17  20
HETATM   20  O9          0      58.591  41.166  31.286  1.00  0.00    -0.357 OA
HETATM   21  H9          0      58.087  41.111  32.089  1.00  0.00     0.218 HD
ENDBRANCH  17  20
BRANCH  18  22
HETATM   22  O11         0      59.944  40.910  28.832  1.00  0.00    -0.357 OA
HETATM   23  H11         0      60.109  40.065  29.233  1.00  0.00     0.218 HD
ENDBRANCH  18  22
ENDBRANCH   4  14
BRANCH   8  24
HETATM   24  O17         0      50.333  38.565  28.939  1.00  0.00    -0.359 OA
HETATM   25  H17         0      50.629  38.778  29.816  1.00  0.00     0.218 HD
ENDBRANCH   8  24
TORSDOF 5
ENDMDL
MODEL 9
REMARK VINA RESULT:      -7.7      3.847      6.435
REMARK  5 active torsions:
REMARK  status: ('A' for Active; 'I' for Inactive)
REMARK    1  A    between atoms: C4_4  and  C5_5 
REMARK    2  A    between atoms: C8_8  and  O9_9 
REMARK    3  A    between atoms: C10_11  and  O11_12 
REMARK    4  A    between atoms: C16_18  and  O17_19 
REMARK    5  A    between atoms: C19_22  and  O20_23 
ROOT
HETATM    1  O1          0      56.817  41.913  27.090  1.00  0.00    -0.286 OA
HETATM    2  C2          0      56.252  40.832  26.770  1.00  0.00     0.201 C 
HETATM    3  C3          0      56.828  39.909  25.914  1.00  0.00     0.067 C 
HETATM    4  C4          0      56.141  38.774  25.497  1.00  0.00     0.103 C 
HETATM    5  O13         0      54.917  38.571  25.951  1.00  0.00    -0.307 OA
HETATM    6  C14         0      54.310  39.434  26.736  1.00  0.00     0.107 C 
HETATM    7  C15         0      52.931  39.439  26.889  1.00  0.00     0.049 C 
HETATM    8  C16         0      52.278  40.498  27.508  1.00  0.00     0.093 C 
HETATM    9  C18         0      53.057  41.230  28.396  1.00  0.00     0.048 C 
HETATM   10  C19         0      54.442  41.210  28.301  1.00  0.00     0.096 C 
HETATM   11  C21         0      55.045  40.450  27.336  1.00  0.00     0.084 C 
ENDROOT
BRANCH  10  12
HETATM   12  O20         0      55.178  42.243  28.873  1.00  0.00    -0.359 OA
HETATM   13  H20         0      55.754  42.744  28.309  1.00  0.00     0.218 HD
ENDBRANCH  10  12
BRANCH   4  14
HETATM   14  C5          0      56.517  38.201  24.203  1.00  0.00     0.025 C 
HETATM   15  C6          0      57.816  37.823  23.897  1.00  0.00     0.004 C 
HETATM   16  C7          0      57.990  36.667  23.143  1.00  0.00     0.026 C 
HETATM   17  C8          0      56.910  35.983  22.597  1.00  0.00     0.112 C 
HETATM   18  C10         0      55.768  36.752  22.416  1.00  0.00     0.112 C 
HETATM   19  C12         0      55.577  37.854  23.241  1.00  0.00     0.028 C 
BRANCH  17  20
HETATM   20  O9          0      56.939  34.606  22.458  1.00  0.00    -0.357 OA
HETATM   21  H9          0      57.516  34.038  22.955  1.00  0.00     0.218 HD
ENDBRANCH  17  20
BRANCH  18  22
HETATM   22  O11         0      54.727  36.173  21.704  1.00  0.00    -0.357 OA
HETATM   23  H11         0      54.563  36.511  20.831  1.00  0.00     0.218 HD
ENDBRANCH  18  22
ENDBRANCH   4  14
BRANCH   8  24
HETATM   24  O17         0      51.058  40.985  27.025  1.00  0.00    -0.359 OA
HETATM   25  H17         0      50.808  40.889  26.114  1.00  0.00     0.218 HD
ENDBRANCH   8  24
TORSDOF 5
ENDMDL
