MODEL 1
REMARK VINA RESULT:      -3.4      0.000      0.000
REMARK  5 active torsions:
REMARK  status: ('A' for Active; 'I' for Inactive)
REMARK    1  A    between atoms: C4_4  and  C5_5 
REMARK    2  A    between atoms: C8_8  and  O9_9 
REMARK    3  A    between atoms: C10_11  and  O11_12 
REMARK    4  A    between atoms: C16_18  and  O17_19 
REMARK    5  A    between atoms: C19_22  and  O20_23 
ROOT
HETATM    1  O1          0      28.830 104.155 -13.934  1.00  0.00    -0.286 OA
HETATM    2  C2          0      29.646 104.343 -12.990  1.00  0.00     0.201 C 
HETATM    3  C3          0      30.581 105.364 -12.998  1.00  0.00     0.067 C 
HETATM    4  C4          0      31.535 105.487 -11.995  1.00  0.00     0.103 C 
HETATM    5  O13         0      31.528 104.614 -11.002  1.00  0.00    -0.307 OA
HETATM    6  C14         0      30.686 103.604 -10.966  1.00  0.00     0.107 C 
HETATM    7  C15         0      30.919 102.487 -10.177  1.00  0.00     0.049 C 
HETATM    8  C16         0      30.171 101.326 -10.331  1.00  0.00     0.093 C 
HETATM    9  C18         0      28.910 101.509 -10.884  1.00  0.00     0.048 C 
HETATM   10  C19         0      28.628 102.639 -11.640  1.00  0.00     0.096 C 
HETATM   11  C21         0      29.596 103.588 -11.829  1.00  0.00     0.084 C 
ENDROOT
BRANCH  10  12
HETATM   12  O20         0      27.557 102.614 -12.527  1.00  0.00    -0.359 OA
HETATM   13  H20         0      26.681 102.551 -12.166  1.00  0.00     0.218 HD
ENDBRANCH  10  12
BRANCH   4  14
HETATM   14  C5          0      32.794 106.146 -12.344  1.00  0.00     0.025 C 
HETATM   15  C6          0      33.321 107.199 -11.610  1.00  0.00     0.004 C 
HETATM   16  C7          0      34.701 107.238 -11.438  1.00  0.00     0.026 C 
HETATM   17  C8          0      35.542 106.339 -12.084  1.00  0.00     0.112 C 
HETATM   18  C10         0      35.012 105.775 -13.237  1.00  0.00     0.112 C 
HETATM   19  C12         0      33.631 105.670 -13.346  1.00  0.00     0.028 C 
BRANCH  17  20
HETATM   20  O9          0      36.712 105.907 -11.485  1.00  0.00    -0.357 OA
HETATM   21  H9          0      37.455 105.560 -11.966  1.00  0.00     0.218 HD
ENDBRANCH  17  20
BRANCH  18  22
HETATM   22  O11         0      35.874 105.020 -14.020  1.00  0.00    -0.357 OA
HETATM   23  H11         0      35.811 104.075 -13.940  1.00  0.00     0.218 HD
ENDBRANCH  18  22
ENDBRANCH   4  14
BRANCH   8  24
HETATM   24  O17         0      30.765 100.061 -10.256  1.00  0.00    -0.359 OA
HETATM   25  H17         0      31.545  99.905  -9.737  1.00  0.00     0.218 HD
ENDBRANCH   8  24
TORSDOF 5
ENDMDL
MODEL 2
REMARK VINA RESULT:      -3.1      3.804      6.099
REMARK  5 active torsions:
REMARK  status: ('A' for Active; 'I' for Inactive)
REMARK    1  A    between atoms: C4_4  and  C5_5 
REMARK    2  A    between atoms: C8_8  and  O9_9 
REMARK    3  A    between atoms: C10_11  and  O11_12 
REMARK    4  A    between atoms: C16_18  and  O17_19 
REMARK    5  A    between atoms: C19_22  and  O20_23 
ROOT
HETATM    1  O1          0      31.817 105.562 -13.667  1.00  0.00    -0.286 OA
HETATM    2  C2          0      33.057 105.565 -13.901  1.00  0.00     0.201 C 
HETATM    3  C3          0      33.648 104.721 -14.825  1.00  0.00     0.067 C 
HETATM    4  C4          0      35.028 104.673 -14.990  1.00  0.00     0.103 C 
HETATM    5  O13         0      35.783 105.471 -14.256  1.00  0.00    -0.307 OA
HETATM    6  C14         0      35.275 106.264 -13.338  1.00  0.00     0.107 C 
HETATM    7  C15         0      36.051 106.789 -12.315  1.00  0.00     0.049 C 
HETATM    8  C16         0      35.472 107.410 -11.215  1.00  0.00     0.093 C 
HETATM    9  C18         0      34.205 107.937 -11.438  1.00  0.00     0.048 C 
HETATM   10  C19         0      33.420 107.467 -12.482  1.00  0.00     0.096 C 
HETATM   11  C21         0      33.903 106.489 -13.309  1.00  0.00     0.084 C 
ENDROOT
BRANCH  10  12
HETATM   12  O20         0      32.043 107.663 -12.439  1.00  0.00    -0.359 OA
HETATM   13  H20         0      31.598 107.514 -11.614  1.00  0.00     0.218 HD
ENDBRANCH  10  12
BRANCH   4  14
HETATM   14  C5          0      35.600 103.419 -15.484  1.00  0.00     0.025 C 
HETATM   15  C6          0      36.799 103.362 -16.180  1.00  0.00     0.004 C 
HETATM   16  C7          0      37.644 102.288 -15.922  1.00  0.00     0.026 C 
HETATM   17  C8          0      37.254 101.234 -15.102  1.00  0.00     0.112 C 
HETATM   18  C10         0      35.881 101.068 -14.984  1.00  0.00     0.112 C 
HETATM   19  C12         0      35.064 102.178 -15.163  1.00  0.00     0.028 C 
BRANCH  17  20
HETATM   20  O9          0      38.179 100.566 -14.319  1.00  0.00    -0.357 OA
HETATM   21  H9          0      38.766  99.896 -14.650  1.00  0.00     0.218 HD
ENDBRANCH  17  20
BRANCH  18  22
HETATM   22  O11         0      35.440  99.924 -14.335  1.00  0.00    -0.357 OA
HETATM   23  H11         0      34.808 100.043 -13.635  1.00  0.00     0.218 HD
ENDBRANCH  18  22
ENDBRANCH   4  14
BRANCH   8  24
HETATM   24  O17         0      35.972 107.219  -9.922  1.00  0.00    -0.359 OA
HETATM   25  H17         0      35.631 106.541  -9.350  1.00  0.00     0.218 HD
ENDBRANCH   8  24
TORSDOF 5
ENDMDL
MODEL 3
REMARK VINA RESULT:      -3.0      3.061      5.427
REMARK  5 active torsions:
REMARK  status: ('A' for Active; 'I' for Inactive)
REMARK    1  A    between atoms: C4_4  and  C5_5 
REMARK    2  A    between atoms: C8_8  and  O9_9 
REMARK    3  A    between atoms: C10_11  and  O11_12 
REMARK    4  A    between atoms: C16_18  and  O17_19 
REMARK    5  A    between atoms: C19_22  and  O20_23 
ROOT
HETATM    1  O1          0      35.255 104.941 -13.623  1.00  0.00    -0.286 OA
HETATM    2  C2          0      34.982 105.946 -12.912  1.00  0.00     0.201 C 
HETATM    3  C3          0      35.938 106.866 -12.515  1.00  0.00     0.067 C 
HETATM    4  C4          0      35.630 107.908 -11.647  1.00  0.00     0.103 C 
HETATM    5  O13         0      34.388 108.026 -11.212  1.00  0.00    -0.307 OA
HETATM    6  C14         0      33.451 107.159 -11.528  1.00  0.00     0.107 C 
HETATM    7  C15         0      32.287 107.037 -10.784  1.00  0.00     0.049 C 
HETATM    8  C16         0      31.425 105.961 -10.962  1.00  0.00     0.093 C 
HETATM    9  C18         0      31.493 105.355 -12.211  1.00  0.00     0.048 C 
HETATM   10  C19         0      32.626 105.495 -13.002  1.00  0.00     0.096 C 
HETATM   11  C21         0      33.677 106.249 -12.556  1.00  0.00     0.084 C 
ENDROOT
BRANCH  10  12
HETATM   12  O20         0      32.870 104.568 -14.010  1.00  0.00    -0.359 OA
HETATM   13  H20         0      32.781 103.646 -13.798  1.00  0.00     0.218 HD
ENDBRANCH  10  12
BRANCH   4  14
HETATM   14  C5          0      36.719 108.437 -10.823  1.00  0.00     0.025 C 
HETATM   15  C6          0      37.914 107.759 -10.631  1.00  0.00     0.004 C 
HETATM   16  C7          0      39.083 108.512 -10.591  1.00  0.00     0.026 C 
HETATM   17  C8          0      39.055 109.903 -10.607  1.00  0.00     0.112 C 
HETATM   18  C10         0      37.864 110.464 -10.167  1.00  0.00     0.112 C 
HETATM   19  C12         0      36.697 109.722 -10.297  1.00  0.00     0.028 C 
BRANCH  17  20
HETATM   20  O9          0      40.066 110.625 -11.217  1.00  0.00    -0.357 OA
HETATM   21  H9          0      40.888 110.845 -10.793  1.00  0.00     0.218 HD
ENDBRANCH  17  20
BRANCH  18  22
HETATM   22  O11         0      37.848 111.840  -9.983  1.00  0.00    -0.357 OA
HETATM   23  H11         0      38.453 112.351 -10.509  1.00  0.00     0.218 HD
ENDBRANCH  18  22
ENDBRANCH   4  14
BRANCH   8  24
HETATM   24  O17         0      30.802 105.339  -9.875  1.00  0.00    -0.359 OA
HETATM   25  H17         0      30.903 105.663  -8.988  1.00  0.00     0.218 HD
ENDBRANCH   8  24
TORSDOF 5
ENDMDL
MODEL 4
REMARK VINA RESULT:      -3.0      4.264      7.053
REMARK  5 active torsions:
REMARK  status: ('A' for Active; 'I' for Inactive)
REMARK    1  A    between atoms: C4_4  and  C5_5 
REMARK    2  A    between atoms: C8_8  and  O9_9 
REMARK    3  A    between atoms: C10_11  and  O11_12 
REMARK    4  A    between atoms: C16_18  and  O17_19 
REMARK    5  A    between atoms: C19_22  and  O20_23 
ROOT
HETATM    1  O1          0      36.396 103.606 -18.706  1.00  0.00    -0.286 OA
HETATM    2  C2          0      36.072 103.357 -17.512  1.00  0.00     0.201 C 
HETATM    3  C3          0      35.265 104.196 -16.762  1.00  0.00     0.067 C 
HETATM    4  C4          0      35.008 103.950 -15.419  1.00  0.00     0.103 C 
HETATM    5  O13         0      35.534 102.876 -14.858  1.00  0.00    -0.307 OA
HETATM    6  C14         0      36.336 102.067 -15.514  1.00  0.00     0.107 C 
HETATM    7  C15         0      37.192 101.194 -14.857  1.00  0.00     0.049 C 
HETATM    8  C16         0      38.209 100.533 -15.535  1.00  0.00     0.093 C 
HETATM    9  C18         0      37.994 100.367 -16.898  1.00  0.00     0.048 C 
HETATM   10  C19         0      37.109 101.193 -17.578  1.00  0.00     0.096 C 
HETATM   11  C21         0      36.430 102.166 -16.898  1.00  0.00     0.084 C 
ENDROOT
BRANCH  10  12
HETATM   12  O20         0      37.221 101.319 -18.959  1.00  0.00    -0.359 OA
HETATM   13  H20         0      36.440 101.190 -19.483  1.00  0.00     0.218 HD
ENDBRANCH  10  12
BRANCH   4  14
HETATM   14  C5          0      34.696 105.105 -14.574  1.00  0.00     0.025 C 
HETATM   15  C6          0      33.423 105.650 -14.485  1.00  0.00     0.004 C 
HETATM   16  C7          0      33.000 106.099 -13.239  1.00  0.00     0.026 C 
HETATM   17  C8          0      33.858 106.131 -12.145  1.00  0.00     0.112 C 
HETATM   18  C10         0      35.208 106.181 -12.468  1.00  0.00     0.112 C 
HETATM   19  C12         0      35.615 105.647 -13.685  1.00  0.00     0.028 C 
BRANCH  17  20
HETATM   20  O9          0      33.383 105.914 -10.864  1.00  0.00    -0.357 OA
HETATM   21  H9          0      33.825 106.215 -10.079  1.00  0.00     0.218 HD
ENDBRANCH  17  20
BRANCH  18  22
HETATM   22  O11         0      36.096 106.404 -11.426  1.00  0.00    -0.357 OA
HETATM   23  H11         0      36.595 107.213 -11.451  1.00  0.00     0.218 HD
ENDBRANCH  18  22
ENDBRANCH   4  14
BRANCH   8  24
HETATM   24  O17         0      39.474 100.358 -14.962  1.00  0.00    -0.359 OA
HETATM   25  H17         0      39.583  99.971 -14.102  1.00  0.00     0.218 HD
ENDBRANCH   8  24
TORSDOF 5
ENDMDL
MODEL 5
REMARK VINA RESULT:      -2.9      4.136      4.905
REMARK  5 active torsions:
REMARK  status: ('A' for Active; 'I' for Inactive)
REMARK    1  A    between atoms: C4_4  and  C5_5 
REMARK    2  A    between atoms: C8_8  and  O9_9 
REMARK    3  A    between atoms: C10_11  and  O11_12 
REMARK    4  A    between atoms: C16_18  and  O17_19 
REMARK    5  A    between atoms: C19_22  and  O20_23 
ROOT
HETATM    1  O1          0      32.419 104.476 -18.072  1.00  0.00    -0.286 OA
HETATM    2  C2          0      32.751 104.207 -16.884  1.00  0.00     0.201 C 
HETATM    3  C3          0      32.880 105.176 -15.904  1.00  0.00     0.067 C 
HETATM    4  C4          0      33.346 104.866 -14.631  1.00  0.00     0.103 C 
HETATM    5  O13         0      33.652 103.611 -14.355  1.00  0.00    -0.307 OA
HETATM    6  C14         0      33.583 102.659 -15.260  1.00  0.00     0.107 C 
HETATM    7  C15         0      34.262 101.459 -15.111  1.00  0.00     0.049 C 
HETATM    8  C16         0      34.395 100.569 -16.170  1.00  0.00     0.093 C 
HETATM    9  C18         0      33.415 100.672 -17.150  1.00  0.00     0.048 C 
HETATM   10  C19         0      32.684 101.843 -17.296  1.00  0.00     0.096 C 
HETATM   11  C21         0      32.919 102.899 -16.458  1.00  0.00     0.084 C 
ENDROOT
BRANCH  10  12
HETATM   12  O20         0      32.045 102.099 -18.505  1.00  0.00    -0.359 OA
HETATM   13  H20         0      31.750 102.986 -18.673  1.00  0.00     0.218 HD
ENDBRANCH  10  12
BRANCH   4  14
HETATM   14  C5          0      34.012 105.935 -13.884  1.00  0.00     0.025 C 
HETATM   15  C6          0      33.378 107.119 -13.538  1.00  0.00     0.004 C 
HETATM   16  C7          0      33.663 107.662 -12.289  1.00  0.00     0.026 C 
HETATM   17  C8          0      34.646 107.122 -11.466  1.00  0.00     0.112 C 
HETATM   18  C10         0      35.617 106.385 -12.130  1.00  0.00     0.112 C 
HETATM   19  C12         0      35.279 105.781 -13.336  1.00  0.00     0.028 C 
BRANCH  17  20
HETATM   20  O9          0      34.515 107.157 -10.089  1.00  0.00    -0.357 OA
HETATM   21  H9          0      33.756 106.829  -9.623  1.00  0.00     0.218 HD
ENDBRANCH  17  20
BRANCH  18  22
HETATM   22  O11         0      36.719 105.985 -11.388  1.00  0.00    -0.357 OA
HETATM   23  H11         0      36.871 105.050 -11.313  1.00  0.00     0.218 HD
ENDBRANCH  18  22
ENDBRANCH   4  14
BRANCH   8  24
HETATM   24  O17         0      35.590  99.875 -16.394  1.00  0.00    -0.359 OA
HETATM   25  H17         0      36.359 100.306 -16.748  1.00  0.00     0.218 HD
ENDBRANCH   8  24
TORSDOF 5
ENDMDL
MODEL 6
REMARK VINA RESULT:      -2.9      3.852      4.843
REMARK  5 active torsions:
REMARK  status: ('A' for Active; 'I' for Inactive)
REMARK    1  A    between atoms: C4_4  and  C5_5 
REMARK    2  A    between atoms: C8_8  and  O9_9 
REMARK    3  A    between atoms: C10_11  and  O11_12 
REMARK    4  A    between atoms: C16_18  and  O17_19 
REMARK    5  A    between atoms: C19_22  and  O20_23 
ROOT
HETATM    1  O1          0      31.383 106.594 -14.399  1.00  0.00    -0.286 OA
HETATM    2  C2          0      32.502 106.181 -13.989  1.00  0.00     0.201 C 
HETATM    3  C3          0      33.212 106.812 -12.982  1.00  0.00     0.067 C 
HETATM    4  C4          0      34.489 106.397 -12.620  1.00  0.00     0.103 C 
HETATM    5  O13         0      35.019 105.360 -13.244  1.00  0.00    -0.307 OA
HETATM    6  C14         0      34.403 104.748 -14.232  1.00  0.00     0.107 C 
HETATM    7  C15         0      35.087 103.948 -15.137  1.00  0.00     0.049 C 
HETATM    8  C16         0      34.488 103.515 -16.313  1.00  0.00     0.093 C 
HETATM    9  C18         0      33.100 103.459 -16.279  1.00  0.00     0.048 C 
HETATM   10  C19         0      32.386 104.210 -15.355  1.00  0.00     0.096 C 
HETATM   11  C21         0      33.055 105.000 -14.460  1.00  0.00     0.084 C 
ENDROOT
BRANCH  10  12
HETATM   12  O20         0      31.045 104.491 -15.598  1.00  0.00    -0.359 OA
HETATM   13  H20         0      30.573 103.924 -16.196  1.00  0.00     0.218 HD
ENDBRANCH  10  12
BRANCH   4  14
HETATM   14  C5          0      35.381 107.402 -12.039  1.00  0.00     0.025 C 
HETATM   15  C6          0      35.481 107.618 -10.673  1.00  0.00     0.004 C 
HETATM   16  C7          0      36.743 107.894 -10.155  1.00  0.00     0.026 C 
HETATM   17  C8          0      37.845 108.082 -10.981  1.00  0.00     0.112 C 
HETATM   18  C10         0      37.538 108.472 -12.278  1.00  0.00     0.112 C 
HETATM   19  C12         0      36.302 108.109 -12.801  1.00  0.00     0.028 C 
BRANCH  17  20
HETATM   20  O9          0      39.111 107.698 -10.574  1.00  0.00    -0.357 OA
HETATM   21  H9          0      39.465 106.826 -10.704  1.00  0.00     0.218 HD
ENDBRANCH  17  20
BRANCH  18  22
HETATM   22  O11         0      38.598 108.855 -13.087  1.00  0.00    -0.357 OA
HETATM   23  H11         0      39.473 108.692 -12.755  1.00  0.00     0.218 HD
ENDBRANCH  18  22
ENDBRANCH   4  14
BRANCH   8  24
HETATM   24  O17         0      35.197 103.471 -17.519  1.00  0.00    -0.359 OA
HETATM   25  H17         0      35.427 102.648 -17.933  1.00  0.00     0.218 HD
ENDBRANCH   8  24
TORSDOF 5
ENDMDL
MODEL 7
REMARK VINA RESULT:      -2.8      2.609      7.219
REMARK  5 active torsions:
REMARK  status: ('A' for Active; 'I' for Inactive)
REMARK    1  A    between atoms: C4_4  and  C5_5 
REMARK    2  A    between atoms: C8_8  and  O9_9 
REMARK    3  A    between atoms: C10_11  and  O11_12 
REMARK    4  A    between atoms: C16_18  and  O17_19 
REMARK    5  A    between atoms: C19_22  and  O20_23 
ROOT
HETATM    1  O1          0      33.511 110.818 -10.857  1.00  0.00    -0.286 OA
HETATM    2  C2          0      33.568 109.606 -11.201  1.00  0.00     0.201 C 
HETATM    3  C3          0      32.469 108.765 -11.170  1.00  0.00     0.067 C 
HETATM    4  C4          0      32.581 107.409 -11.455  1.00  0.00     0.103 C 
HETATM    5  O13         0      33.766 106.925 -11.783  1.00  0.00    -0.307 OA
HETATM    6  C14         0      34.848 107.672 -11.792  1.00  0.00     0.107 C 
HETATM    7  C15         0      36.119 107.118 -11.737  1.00  0.00     0.049 C 
HETATM    8  C16         0      37.238 107.904 -11.490  1.00  0.00     0.093 C 
HETATM    9  C18         0      37.101 109.244 -11.830  1.00  0.00     0.048 C 
HETATM   10  C19         0      35.842 109.819 -11.939  1.00  0.00     0.096 C 
HETATM   11  C21         0      34.727 109.056 -11.727  1.00  0.00     0.084 C 
ENDROOT
BRANCH  10  12
HETATM   12  O20         0      35.715 111.201 -11.843  1.00  0.00    -0.359 OA
HETATM   13  H20         0      34.843 111.562 -11.738  1.00  0.00     0.218 HD
ENDBRANCH  10  12
BRANCH   4  14
HETATM   14  C5          0      31.598 106.512 -10.844  1.00  0.00     0.025 C 
HETATM   15  C6          0      30.230 106.668 -11.015  1.00  0.00     0.004 C 
HETATM   16  C7          0      29.462 105.515 -11.152  1.00  0.00     0.026 C 
HETATM   17  C8          0      30.013 104.249 -10.991  1.00  0.00     0.112 C 
HETATM   18  C10         0      31.170 104.213 -10.224  1.00  0.00     0.112 C 
HETATM   19  C12         0      31.964 105.352 -10.173  1.00  0.00     0.028 C 
BRANCH  17  20
HETATM   20  O9          0      29.543 103.173 -11.723  1.00  0.00    -0.357 OA
HETATM   21  H9          0      30.092 102.459 -12.025  1.00  0.00     0.218 HD
ENDBRANCH  17  20
BRANCH  18  22
HETATM   22  O11         0      31.654 102.960  -9.875  1.00  0.00    -0.357 OA
HETATM   23  H11         0      32.576 102.794 -10.038  1.00  0.00     0.218 HD
ENDBRANCH  18  22
ENDBRANCH   4  14
BRANCH   8  24
HETATM   24  O17         0      38.275 107.456 -10.664  1.00  0.00    -0.359 OA
HETATM   25  H17         0      38.104 106.957  -9.874  1.00  0.00     0.218 HD
ENDBRANCH   8  24
TORSDOF 5
ENDMDL
MODEL 8
REMARK VINA RESULT:      -2.8      4.003      7.370
REMARK  5 active torsions:
REMARK  status: ('A' for Active; 'I' for Inactive)
REMARK    1  A    between atoms: C4_4  and  C5_5 
REMARK    2  A    between atoms: C8_8  and  O9_9 
REMARK    3  A    between atoms: C10_11  and  O11_12 
REMARK    4  A    between atoms: C16_18  and  O17_19 
REMARK    5  A    between atoms: C19_22  and  O20_23 
ROOT
HETATM    1  O1          0      34.513 105.438 -12.610  1.00  0.00    -0.286 OA
HETATM    2  C2          0      34.157 106.551 -12.135  1.00  0.00     0.201 C 
HETATM    3  C3          0      32.848 107.000 -12.177  1.00  0.00     0.067 C 
HETATM    4  C4          0      32.500 108.274 -11.740  1.00  0.00     0.103 C 
HETATM    5  O13         0      33.447 109.059 -11.256  1.00  0.00    -0.307 OA
HETATM    6  C14         0      34.710 108.695 -11.229  1.00  0.00     0.107 C 
HETATM    7  C15         0      35.735 109.623 -11.108  1.00  0.00     0.049 C 
HETATM    8  C16         0      37.060 109.268 -11.335  1.00  0.00     0.093 C 
HETATM    9  C18         0      37.346 107.921 -11.153  1.00  0.00     0.048 C 
HETATM   10  C19         0      36.336 106.970 -11.220  1.00  0.00     0.096 C 
HETATM   11  C21         0      35.046 107.364 -11.451  1.00  0.00     0.084 C 
ENDROOT
BRANCH  10  12
HETATM   12  O20         0      36.668 105.643 -11.474  1.00  0.00    -0.359 OA
HETATM   13  H20         0      37.051 105.137 -10.768  1.00  0.00     0.218 HD
ENDBRANCH  10  12
BRANCH   4  14
HETATM   14  C5          0      31.314 108.887 -12.339  1.00  0.00     0.025 C 
HETATM   15  C6          0      31.387 109.893 -13.292  1.00  0.00     0.004 C 
HETATM   16  C7          0      30.462 109.866 -14.330  1.00  0.00     0.026 C 
HETATM   17  C8          0      29.415 108.951 -14.351  1.00  0.00     0.112 C 
HETATM   18  C10         0      29.062 108.445 -13.107  1.00  0.00     0.112 C 
HETATM   19  C12         0      30.031 108.405 -12.111  1.00  0.00     0.028 C 
BRANCH  17  20
HETATM   20  O9          0      28.936 108.450 -15.548  1.00  0.00    -0.357 OA
HETATM   21  H9          0      28.021 108.243 -15.706  1.00  0.00     0.218 HD
ENDBRANCH  17  20
BRANCH  18  22
HETATM   22  O11         0      27.908 107.677 -13.045  1.00  0.00    -0.357 OA
HETATM   23  H11         0      27.476 107.484 -13.869  1.00  0.00     0.218 HD
ENDBRANCH  18  22
ENDBRANCH   4  14
BRANCH   8  24
HETATM   24  O17         0      37.938 110.122 -12.011  1.00  0.00    -0.359 OA
HETATM   25  H17         0      37.668 110.984 -12.305  1.00  0.00     0.218 HD
ENDBRANCH   8  24
TORSDOF 5
ENDMDL
MODEL 9
REMARK VINA RESULT:      -2.8      4.445      6.864
REMARK  5 active torsions:
REMARK  status: ('A' for Active; 'I' for Inactive)
REMARK    1  A    between atoms: C4_4  and  C5_5 
REMARK    2  A    between atoms: C8_8  and  O9_9 
REMARK    3  A    between atoms: C10_11  and  O11_12 
REMARK    4  A    between atoms: C16_18  and  O17_19 
REMARK    5  A    between atoms: C19_22  and  O20_23 
ROOT
HETATM    1  O1          0      33.452 105.727 -11.555  1.00  0.00    -0.286 OA
HETATM    2  C2          0      34.348 106.167 -12.326  1.00  0.00     0.201 C 
HETATM    3  C3          0      34.496 105.728 -13.631  1.00  0.00     0.067 C 
HETATM    4  C4          0      35.554 106.153 -14.426  1.00  0.00     0.103 C 
HETATM    5  O13         0      36.422 107.012 -13.922  1.00  0.00    -0.307 OA
HETATM    6  C14         0      36.349 107.432 -12.678  1.00  0.00     0.107 C 
HETATM    7  C15         0      37.439 107.993 -12.030  1.00  0.00     0.049 C 
HETATM    8  C16         0      37.436 108.197 -10.655  1.00  0.00     0.093 C 
HETATM    9  C18         0      36.175 108.321 -10.083  1.00  0.00     0.048 C 
HETATM   10  C19         0      35.056 107.811 -10.727  1.00  0.00     0.096 C 
HETATM   11  C21         0      35.192 107.197 -11.942  1.00  0.00     0.084 C 
ENDROOT
BRANCH  10  12
HETATM   12  O20         0      33.908 107.547  -9.987  1.00  0.00    -0.359 OA
HETATM   13  H20         0      33.099 107.390 -10.460  1.00  0.00     0.218 HD
ENDBRANCH  10  12
BRANCH   4  14
HETATM   14  C5          0      35.993 105.253 -15.494  1.00  0.00     0.025 C 
HETATM   15  C6          0      36.777 105.675 -16.559  1.00  0.00     0.004 C 
HETATM   16  C7          0      37.762 104.807 -17.017  1.00  0.00     0.026 C 
HETATM   17  C8          0      37.879 103.511 -16.526  1.00  0.00     0.112 C 
HETATM   18  C10         0      36.715 102.994 -15.972  1.00  0.00     0.112 C 
HETATM   19  C12         0      35.784 103.881 -15.444  1.00  0.00     0.028 C 
BRANCH  17  20
HETATM   20  O9          0      39.116 102.901 -16.421  1.00  0.00    -0.357 OA
HETATM   21  H9          0      39.893 103.202 -16.878  1.00  0.00     0.218 HD
ENDBRANCH  17  20
BRANCH  18  22
HETATM   22  O11         0      36.721 101.647 -15.641  1.00  0.00    -0.357 OA
HETATM   23  H11         0      37.307 101.085 -16.135  1.00  0.00     0.218 HD
ENDBRANCH  18  22
ENDBRANCH   4  14
BRANCH   8  24
HETATM   24  O17         0      38.575 107.957  -9.879  1.00  0.00    -0.359 OA
HETATM   25  H17         0      39.447 108.169 -10.193  1.00  0.00     0.218 HD
ENDBRANCH   8  24
TORSDOF 5
ENDMDL
