MODEL 1
REMARK VINA RESULT:      -6.1      0.000      0.000
REMARK  5 active torsions:
REMARK  status: ('A' for Active; 'I' for Inactive)
REMARK    1  A    between atoms: C4_4  and  C5_5 
REMARK    2  A    between atoms: C8_8  and  O9_9 
REMARK    3  A    between atoms: C10_11  and  O11_12 
REMARK    4  A    between atoms: C16_18  and  O17_19 
REMARK    5  A    between atoms: C19_22  and  O20_23 
ROOT
HETATM    1  O1          0      48.256  72.380 -14.624  1.00  0.00    -0.286 OA
HETATM    2  C2          0      47.274  72.670 -15.360  1.00  0.00     0.201 C 
HETATM    3  C3          0      46.199  71.817 -15.548  1.00  0.00     0.067 C 
HETATM    4  C4          0      45.179  72.117 -16.444  1.00  0.00     0.103 C 
HETATM    5  O13         0      45.236  73.256 -17.112  1.00  0.00    -0.307 OA
HETATM    6  C14         0      46.252  74.083 -16.999  1.00  0.00     0.107 C 
HETATM    7  C15         0      46.518  75.049 -17.958  1.00  0.00     0.049 C 
HETATM    8  C16         0      47.722  75.744 -17.968  1.00  0.00     0.093 C 
HETATM    9  C18         0      48.366  75.819 -16.739  1.00  0.00     0.048 C 
HETATM   10  C19         0      48.089  74.896 -15.740  1.00  0.00     0.096 C 
HETATM   11  C21         0      47.161  73.915 -15.960  1.00  0.00     0.084 C 
ENDROOT
BRANCH  10  12
HETATM   12  O20         0      49.012  74.703 -14.717  1.00  0.00    -0.359 OA
HETATM   13  H20         0      49.648  75.389 -14.556  1.00  0.00     0.218 HD
ENDBRANCH  10  12
BRANCH   4  14
HETATM   14  C5          0      44.450  70.991 -17.030  1.00  0.00     0.025 C 
HETATM   15  C6          0      44.886  70.323 -18.166  1.00  0.00     0.004 C 
HETATM   16  C7          0      44.714  68.943 -18.208  1.00  0.00     0.026 C 
HETATM   17  C8          0      44.013  68.265 -17.216  1.00  0.00     0.112 C 
HETATM   18  C10         0      43.110  69.046 -16.507  1.00  0.00     0.112 C 
HETATM   19  C12         0      43.352  70.411 -16.409  1.00  0.00     0.028 C 
BRANCH  17  20
HETATM   20  O9          0      44.367  66.978 -16.853  1.00  0.00    -0.357 OA
HETATM   21  H9          0      45.073  66.489 -17.260  1.00  0.00     0.218 HD
ENDBRANCH  17  20
BRANCH  18  22
HETATM   22  O11         0      42.253  68.384 -15.640  1.00  0.00    -0.357 OA
HETATM   23  H11         0      42.143  68.759 -14.774  1.00  0.00     0.218 HD
ENDBRANCH  18  22
ENDBRANCH   4  14
BRANCH   8  24
HETATM   24  O17         0      48.383  76.039 -19.165  1.00  0.00    -0.359 OA
HETATM   25  H17         0      48.059  75.731 -20.004  1.00  0.00     0.218 HD
ENDBRANCH   8  24
TORSDOF 5
ENDMDL
MODEL 2
REMARK VINA RESULT:      -6.1      2.194      6.635
REMARK  5 active torsions:
REMARK  status: ('A' for Active; 'I' for Inactive)
REMARK    1  A    between atoms: C4_4  and  C5_5 
REMARK    2  A    between atoms: C8_8  and  O9_9 
REMARK    3  A    between atoms: C10_11  and  O11_12 
REMARK    4  A    between atoms: C16_18  and  O17_19 
REMARK    5  A    between atoms: C19_22  and  O20_23 
ROOT
HETATM    1  O1          0      44.209  72.540 -14.086  1.00  0.00    -0.286 OA
HETATM    2  C2          0      45.183  72.584 -14.887  1.00  0.00     0.201 C 
HETATM    3  C3          0      46.356  73.264 -14.606  1.00  0.00     0.067 C 
HETATM    4  C4          0      47.372  73.383 -15.547  1.00  0.00     0.103 C 
HETATM    5  O13         0      47.213  72.813 -16.728  1.00  0.00    -0.307 OA
HETATM    6  C14         0      46.105  72.188 -17.059  1.00  0.00     0.107 C 
HETATM    7  C15         0      45.770  71.945 -18.384  1.00  0.00     0.049 C 
HETATM    8  C16         0      44.496  71.520 -18.740  1.00  0.00     0.093 C 
HETATM    9  C18         0      43.794  70.863 -17.737  1.00  0.00     0.048 C 
HETATM   10  C19         0      44.133  71.047 -16.403  1.00  0.00     0.096 C 
HETATM   11  C21         0      45.176  71.869 -16.074  1.00  0.00     0.084 C 
ENDROOT
BRANCH  10  12
HETATM   12  O20         0      43.194  70.759 -15.417  1.00  0.00    -0.359 OA
HETATM   13  H20         0      43.511  70.568 -14.542  1.00  0.00     0.218 HD
ENDBRANCH  10  12
BRANCH   4  14
HETATM   14  C5          0      48.251  74.549 -15.439  1.00  0.00     0.025 C 
HETATM   15  C6          0      48.996  75.030 -16.506  1.00  0.00     0.004 C 
HETATM   16  C7          0      49.120  76.410 -16.636  1.00  0.00     0.026 C 
HETATM   17  C8          0      48.635  77.280 -15.665  1.00  0.00     0.112 C 
HETATM   18  C10         0      48.499  76.720 -14.401  1.00  0.00     0.112 C 
HETATM   19  C12         0      48.290  75.350 -14.305  1.00  0.00     0.028 C 
BRANCH  17  20
HETATM   20  O9          0      48.141  78.524 -16.012  1.00  0.00    -0.357 OA
HETATM   21  H9          0      47.229  78.775 -15.920  1.00  0.00     0.218 HD
ENDBRANCH  17  20
BRANCH  18  22
HETATM   22  O11         0      48.201  77.587 -13.359  1.00  0.00    -0.357 OA
HETATM   23  H11         0      47.873  78.447 -13.596  1.00  0.00     0.218 HD
ENDBRANCH  18  22
ENDBRANCH   4  14
BRANCH   8  24
HETATM   24  O17         0      43.858  72.010 -19.885  1.00  0.00    -0.359 OA
HETATM   25  H17         0      43.741  72.941 -20.031  1.00  0.00     0.218 HD
ENDBRANCH   8  24
TORSDOF 5
ENDMDL
MODEL 3
REMARK VINA RESULT:      -6.1      3.857      6.236
REMARK  5 active torsions:
REMARK  status: ('A' for Active; 'I' for Inactive)
REMARK    1  A    between atoms: C4_4  and  C5_5 
REMARK    2  A    between atoms: C8_8  and  O9_9 
REMARK    3  A    between atoms: C10_11  and  O11_12 
REMARK    4  A    between atoms: C16_18  and  O17_19 
REMARK    5  A    between atoms: C19_22  and  O20_23 
ROOT
HETATM    1  O1          0      45.346  71.823 -19.858  1.00  0.00    -0.286 OA
HETATM    2  C2          0      44.846  70.724 -19.493  1.00  0.00     0.201 C 
HETATM    3  C3          0      44.544  69.705 -20.381  1.00  0.00     0.067 C 
HETATM    4  C4          0      43.899  68.545 -19.966  1.00  0.00     0.103 C 
HETATM    5  O13         0      43.589  68.413 -18.689  1.00  0.00    -0.307 OA
HETATM    6  C14         0      43.819  69.366 -17.812  1.00  0.00     0.107 C 
HETATM    7  C15         0      43.158  69.412 -16.593  1.00  0.00     0.049 C 
HETATM    8  C16         0      43.210  70.542 -15.786  1.00  0.00     0.093 C 
HETATM    9  C18         0      44.324  71.350 -15.979  1.00  0.00     0.048 C 
HETATM   10  C19         0      45.037  71.295 -17.169  1.00  0.00     0.096 C 
HETATM   11  C21         0      44.650  70.427 -18.153  1.00  0.00     0.084 C 
ENDROOT
BRANCH  10  12
HETATM   12  O20         0      45.845  72.370 -17.528  1.00  0.00    -0.359 OA
HETATM   13  H20         0      46.751  72.191 -17.750  1.00  0.00     0.218 HD
ENDBRANCH  10  12
BRANCH   4  14
HETATM   14  C5          0      43.099  67.831 -20.963  1.00  0.00     0.025 C 
HETATM   15  C6          0      41.968  67.098 -20.635  1.00  0.00     0.004 C 
HETATM   16  C7          0      40.891  67.146 -21.514  1.00  0.00     0.026 C 
HETATM   17  C8          0      40.980  67.791 -22.743  1.00  0.00     0.112 C 
HETATM   18  C10         0      42.272  67.923 -23.235  1.00  0.00     0.112 C 
HETATM   19  C12         0      43.324  67.958 -22.328  1.00  0.00     0.028 C 
BRANCH  17  20
HETATM   20  O9          0      39.880  68.422 -23.294  1.00  0.00    -0.357 OA
HETATM   21  H9          0      39.212  68.863 -22.781  1.00  0.00     0.218 HD
ENDBRANCH  17  20
BRANCH  18  22
HETATM   22  O11         0      42.404  68.386 -24.537  1.00  0.00    -0.357 OA
HETATM   23  H11         0      42.366  67.737 -25.230  1.00  0.00     0.218 HD
ENDBRANCH  18  22
ENDBRANCH   4  14
BRANCH   8  24
HETATM   24  O17         0      42.082  70.997 -15.094  1.00  0.00    -0.359 OA
HETATM   25  H17         0      41.592  70.430 -14.510  1.00  0.00     0.218 HD
ENDBRANCH   8  24
TORSDOF 5
ENDMDL
MODEL 4
REMARK VINA RESULT:      -6.1      2.222      2.772
REMARK  5 active torsions:
REMARK  status: ('A' for Active; 'I' for Inactive)
REMARK    1  A    between atoms: C4_4  and  C5_5 
REMARK    2  A    between atoms: C8_8  and  O9_9 
REMARK    3  A    between atoms: C10_11  and  O11_12 
REMARK    4  A    between atoms: C16_18  and  O17_19 
REMARK    5  A    between atoms: C19_22  and  O20_23 
ROOT
HETATM    1  O1          0      47.133  73.667 -16.833  1.00  0.00    -0.286 OA
HETATM    2  C2          0      46.467  73.264 -17.826  1.00  0.00     0.201 C 
HETATM    3  C3          0      45.368  72.431 -17.704  1.00  0.00     0.067 C 
HETATM    4  C4          0      44.714  71.919 -18.819  1.00  0.00     0.103 C 
HETATM    5  O13         0      45.148  72.258 -20.021  1.00  0.00    -0.307 OA
HETATM    6  C14         0      46.210  73.015 -20.192  1.00  0.00     0.107 C 
HETATM    7  C15         0      46.898  73.046 -21.397  1.00  0.00     0.049 C 
HETATM    8  C16         0      48.150  73.640 -21.497  1.00  0.00     0.093 C 
HETATM    9  C18         0      48.416  74.616 -20.544  1.00  0.00     0.048 C 
HETATM   10  C19         0      47.713  74.642 -19.347  1.00  0.00     0.096 C 
HETATM   11  C21         0      46.740  73.709 -19.110  1.00  0.00     0.084 C 
ENDROOT
BRANCH  10  12
HETATM   12  O20         0      48.256  75.309 -18.254  1.00  0.00    -0.359 OA
HETATM   13  H20         0      48.873  74.839 -17.706  1.00  0.00     0.218 HD
ENDBRANCH  10  12
BRANCH   4  14
HETATM   14  C5          0      44.011  70.646 -18.657  1.00  0.00     0.025 C 
HETATM   15  C6          0      44.201  69.568 -19.510  1.00  0.00     0.004 C 
HETATM   16  C7          0      44.213  68.295 -18.947  1.00  0.00     0.026 C 
HETATM   17  C8          0      43.911  68.088 -17.605  1.00  0.00     0.112 C 
HETATM   18  C10         0      43.142  69.087 -17.023  1.00  0.00     0.112 C 
HETATM   19  C12         0      43.215  70.370 -17.553  1.00  0.00     0.028 C 
BRANCH  17  20
HETATM   20  O9          0      44.521  67.073 -16.890  1.00  0.00    -0.357 OA
HETATM   21  H9          0      45.247  66.556 -17.222  1.00  0.00     0.218 HD
ENDBRANCH  17  20
BRANCH  18  22
HETATM   22  O11         0      42.655  68.842 -15.747  1.00  0.00    -0.357 OA
HETATM   23  H11         0      43.146  68.231 -15.209  1.00  0.00     0.218 HD
ENDBRANCH  18  22
ENDBRANCH   4  14
BRANCH   8  24
HETATM   24  O17         0      49.169  73.068 -22.268  1.00  0.00    -0.359 OA
HETATM   25  H17         0      49.897  73.583 -22.593  1.00  0.00     0.218 HD
ENDBRANCH   8  24
TORSDOF 5
ENDMDL
MODEL 5
REMARK VINA RESULT:      -6.0      2.179      6.387
REMARK  5 active torsions:
REMARK  status: ('A' for Active; 'I' for Inactive)
REMARK    1  A    between atoms: C4_4  and  C5_5 
REMARK    2  A    between atoms: C8_8  and  O9_9 
REMARK    3  A    between atoms: C10_11  and  O11_12 
REMARK    4  A    between atoms: C16_18  and  O17_19 
REMARK    5  A    between atoms: C19_22  and  O20_23 
ROOT
HETATM    1  O1          0      43.437  72.354 -13.901  1.00  0.00    -0.286 OA
HETATM    2  C2          0      44.471  72.093 -14.575  1.00  0.00     0.201 C 
HETATM    3  C3          0      45.738  72.501 -14.194  1.00  0.00     0.067 C 
HETATM    4  C4          0      46.847  72.289 -15.006  1.00  0.00     0.103 C 
HETATM    5  O13         0      46.680  71.664 -16.158  1.00  0.00    -0.307 OA
HETATM    6  C14         0      45.493  71.289 -16.584  1.00  0.00     0.107 C 
HETATM    7  C15         0      45.252  71.009 -17.921  1.00  0.00     0.049 C 
HETATM    8  C16         0      43.958  70.864 -18.406  1.00  0.00     0.093 C 
HETATM    9  C18         0      43.015  70.488 -17.458  1.00  0.00     0.048 C 
HETATM   10  C19         0      43.244  70.711 -16.107  1.00  0.00     0.096 C 
HETATM   11  C21         0      44.416  71.291 -15.704  1.00  0.00     0.084 C 
ENDROOT
BRANCH  10  12
HETATM   12  O20         0      42.165  70.744 -15.230  1.00  0.00    -0.359 OA
HETATM   13  H20         0      41.982  69.965 -14.718  1.00  0.00     0.218 HD
ENDBRANCH  10  12
BRANCH   4  14
HETATM   14  C5          0      47.968  73.221 -14.865  1.00  0.00     0.025 C 
HETATM   15  C6          0      49.279  72.800 -14.699  1.00  0.00     0.004 C 
HETATM   16  C7          0      50.276  73.526 -15.342  1.00  0.00     0.026 C 
HETATM   17  C8          0      49.996  74.709 -16.018  1.00  0.00     0.112 C 
HETATM   18  C10         0      48.839  75.355 -15.601  1.00  0.00     0.112 C 
HETATM   19  C12         0      47.823  74.591 -15.039  1.00  0.00     0.028 C 
BRANCH  17  20
HETATM   20  O9          0      50.713  75.068 -17.145  1.00  0.00    -0.357 OA
HETATM   21  H9          0      51.169  75.896 -17.239  1.00  0.00     0.218 HD
ENDBRANCH  17  20
BRANCH  18  22
HETATM   22  O11         0      48.613  76.627 -16.106  1.00  0.00    -0.357 OA
HETATM   23  H11         0      49.312  77.016 -16.619  1.00  0.00     0.218 HD
ENDBRANCH  18  22
ENDBRANCH   4  14
BRANCH   8  24
HETATM   24  O17         0      43.583  71.382 -19.651  1.00  0.00    -0.359 OA
HETATM   25  H17         0      42.855  71.021 -20.143  1.00  0.00     0.218 HD
ENDBRANCH   8  24
TORSDOF 5
ENDMDL
MODEL 6
REMARK VINA RESULT:      -5.8      4.520      7.165
REMARK  5 active torsions:
REMARK  status: ('A' for Active; 'I' for Inactive)
REMARK    1  A    between atoms: C4_4  and  C5_5 
REMARK    2  A    between atoms: C8_8  and  O9_9 
REMARK    3  A    between atoms: C10_11  and  O11_12 
REMARK    4  A    between atoms: C16_18  and  O17_19 
REMARK    5  A    between atoms: C19_22  and  O20_23 
ROOT
HETATM    1  O1          0      44.730  69.523 -21.179  1.00  0.00    -0.286 OA
HETATM    2  C2          0      44.164  68.717 -20.390  1.00  0.00     0.201 C 
HETATM    3  C3          0      43.375  67.667 -20.828  1.00  0.00     0.067 C 
HETATM    4  C4          0      42.680  66.857 -19.937  1.00  0.00     0.103 C 
HETATM    5  O13         0      42.798  67.091 -18.642  1.00  0.00    -0.307 OA
HETATM    6  C14         0      43.504  68.097 -18.175  1.00  0.00     0.107 C 
HETATM    7  C15         0      43.316  68.587 -16.890  1.00  0.00     0.049 C 
HETATM    8  C16         0      43.872  69.797 -16.491  1.00  0.00     0.093 C 
HETATM    9  C18         0      44.999  70.189 -17.204  1.00  0.00     0.048 C 
HETATM   10  C19         0      45.241  69.682 -18.474  1.00  0.00     0.096 C 
HETATM   11  C21         0      44.374  68.777 -19.021  1.00  0.00     0.084 C 
ENDROOT
BRANCH  10  12
HETATM   12  O20         0      46.087  70.377 -19.333  1.00  0.00    -0.359 OA
HETATM   13  H20         0      46.238  71.298 -19.160  1.00  0.00     0.218 HD
ENDBRANCH  10  12
BRANCH   4  14
HETATM   14  C5          0      41.461  66.212 -20.429  1.00  0.00     0.025 C 
HETATM   15  C6          0      40.587  66.831 -21.311  1.00  0.00     0.004 C 
HETATM   16  C7          0      40.005  66.044 -22.299  1.00  0.00     0.026 C 
HETATM   17  C8          0      40.178  64.664 -22.329  1.00  0.00     0.112 C 
HETATM   18  C10         0      40.508  64.095 -21.107  1.00  0.00     0.112 C 
HETATM   19  C12         0      41.166  64.880 -20.169  1.00  0.00     0.028 C 
BRANCH  17  20
HETATM   20  O9          0      40.220  63.981 -23.532  1.00  0.00    -0.357 OA
HETATM   21  H9          0      39.629  64.150 -24.256  1.00  0.00     0.218 HD
ENDBRANCH  17  20
BRANCH  18  22
HETATM   22  O11         0      40.507  62.709 -21.038  1.00  0.00    -0.357 OA
HETATM   23  H11         0      40.949  62.314 -20.295  1.00  0.00     0.218 HD
ENDBRANCH  18  22
ENDBRANCH   4  14
BRANCH   8  24
HETATM   24  O17         0      43.165  70.693 -15.682  1.00  0.00    -0.359 OA
HETATM   25  H17         0      43.254  70.689 -14.736  1.00  0.00     0.218 HD
ENDBRANCH   8  24
TORSDOF 5
ENDMDL
MODEL 7
REMARK VINA RESULT:      -5.8      2.775      4.019
REMARK  5 active torsions:
REMARK  status: ('A' for Active; 'I' for Inactive)
REMARK    1  A    between atoms: C4_4  and  C5_5 
REMARK    2  A    between atoms: C8_8  and  O9_9 
REMARK    3  A    between atoms: C10_11  and  O11_12 
REMARK    4  A    between atoms: C16_18  and  O17_19 
REMARK    5  A    between atoms: C19_22  and  O20_23 
ROOT
HETATM    1  O1          0      42.680  71.126 -14.960  1.00  0.00    -0.286 OA
HETATM    2  C2          0      43.516  71.087 -15.904  1.00  0.00     0.201 C 
HETATM    3  C3          0      43.259  70.451 -17.107  1.00  0.00     0.067 C 
HETATM    4  C4          0      44.233  70.334 -18.092  1.00  0.00     0.103 C 
HETATM    5  O13         0      45.424  70.864 -17.873  1.00  0.00    -0.307 OA
HETATM    6  C14         0      45.731  71.446 -16.734  1.00  0.00     0.107 C 
HETATM    7  C15         0      47.049  71.640 -16.345  1.00  0.00     0.049 C 
HETATM    8  C16         0      47.370  72.016 -15.046  1.00  0.00     0.093 C 
HETATM    9  C18         0      46.360  72.681 -14.362  1.00  0.00     0.048 C 
HETATM   10  C19         0      45.035  72.547 -14.754  1.00  0.00     0.096 C 
HETATM   11  C21         0      44.722  71.767 -15.833  1.00  0.00     0.084 C 
ENDROOT
BRANCH  10  12
HETATM   12  O20         0      44.023  72.836 -13.843  1.00  0.00    -0.359 OA
HETATM   13  H20         0      44.243  73.369 -13.088  1.00  0.00     0.218 HD
ENDBRANCH  10  12
BRANCH   4  14
HETATM   14  C5          0      44.126  69.198 -19.009  1.00  0.00     0.025 C 
HETATM   15  C6          0      44.916  68.064 -18.898  1.00  0.00     0.004 C 
HETATM   16  C7          0      44.321  66.835 -19.163  1.00  0.00     0.026 C 
HETATM   17  C8          0      43.022  66.744 -19.654  1.00  0.00     0.112 C 
HETATM   18  C10         0      42.571  67.880 -20.312  1.00  0.00     0.112 C 
HETATM   19  C12         0      43.123  69.107 -19.967  1.00  0.00     0.028 C 
BRANCH  17  20
HETATM   20  O9          0      42.207  65.680 -19.309  1.00  0.00    -0.357 OA
HETATM   21  H9          0      42.488  64.773 -19.326  1.00  0.00     0.218 HD
ENDBRANCH  17  20
BRANCH  18  22
HETATM   22  O11         0      41.360  67.778 -20.982  1.00  0.00    -0.357 OA
HETATM   23  H11         0      40.903  66.947 -20.921  1.00  0.00     0.218 HD
ENDBRANCH  18  22
ENDBRANCH   4  14
BRANCH   8  24
HETATM   24  O17         0      48.475  71.474 -14.382  1.00  0.00    -0.359 OA
HETATM   25  H17         0      48.983  70.763 -14.756  1.00  0.00     0.218 HD
ENDBRANCH   8  24
TORSDOF 5
ENDMDL
MODEL 8
REMARK VINA RESULT:      -5.7      2.690      7.285
REMARK  5 active torsions:
REMARK  status: ('A' for Active; 'I' for Inactive)
REMARK    1  A    between atoms: C4_4  and  C5_5 
REMARK    2  A    between atoms: C8_8  and  O9_9 
REMARK    3  A    between atoms: C10_11  and  O11_12 
REMARK    4  A    between atoms: C16_18  and  O17_19 
REMARK    5  A    between atoms: C19_22  and  O20_23 
ROOT
HETATM    1  O1          0      42.881  67.407 -16.702  1.00  0.00    -0.286 OA
HETATM    2  C2          0      43.574  67.934 -17.615  1.00  0.00     0.201 C 
HETATM    3  C3          0      44.637  68.782 -17.354  1.00  0.00     0.067 C 
HETATM    4  C4          0      45.319  69.431 -18.378  1.00  0.00     0.103 C 
HETATM    5  O13         0      44.948  69.211 -19.627  1.00  0.00    -0.307 OA
HETATM    6  C14         0      43.922  68.445 -19.927  1.00  0.00     0.107 C 
HETATM    7  C15         0      43.288  68.522 -21.158  1.00  0.00     0.049 C 
HETATM    8  C16         0      42.063  67.904 -21.379  1.00  0.00     0.093 C 
HETATM    9  C18         0      41.792  66.824 -20.548  1.00  0.00     0.048 C 
HETATM   10  C19         0      42.443  66.691 -19.329  1.00  0.00     0.096 C 
HETATM   11  C21         0      43.372  67.622 -18.950  1.00  0.00     0.084 C 
ENDROOT
BRANCH  10  12
HETATM   12  O20         0      41.878  65.893 -18.339  1.00  0.00    -0.359 OA
HETATM   13  H20         0      41.004  65.553 -18.487  1.00  0.00     0.218 HD
ENDBRANCH  10  12
BRANCH   4  14
HETATM   14  C5          0      45.969  70.701 -18.049  1.00  0.00     0.025 C 
HETATM   15  C6          0      46.525  71.532 -19.011  1.00  0.00     0.004 C 
HETATM   16  C7          0      46.378  72.905 -18.839  1.00  0.00     0.026 C 
HETATM   17  C8          0      45.816  73.440 -17.685  1.00  0.00     0.112 C 
HETATM   18  C10         0      45.885  72.615 -16.571  1.00  0.00     0.112 C 
HETATM   19  C12         0      45.946  71.240 -16.769  1.00  0.00     0.028 C 
BRANCH  17  20
HETATM   20  O9          0      45.071  74.605 -17.733  1.00  0.00    -0.357 OA
HETATM   21  H9          0      44.131  74.636 -17.601  1.00  0.00     0.218 HD
ENDBRANCH  17  20
BRANCH  18  22
HETATM   22  O11         0      45.512  73.169 -15.354  1.00  0.00    -0.357 OA
HETATM   23  H11         0      44.644  72.955 -15.032  1.00  0.00     0.218 HD
ENDBRANCH  18  22
ENDBRANCH   4  14
BRANCH   8  24
HETATM   24  O17         0      41.058  68.524 -22.130  1.00  0.00    -0.359 OA
HETATM   25  H17         0      41.157  69.410 -22.460  1.00  0.00     0.218 HD
ENDBRANCH   8  24
TORSDOF 5
ENDMDL
MODEL 9
REMARK VINA RESULT:      -5.6      1.848      6.877
REMARK  5 active torsions:
REMARK  status: ('A' for Active; 'I' for Inactive)
REMARK    1  A    between atoms: C4_4  and  C5_5 
REMARK    2  A    between atoms: C8_8  and  O9_9 
REMARK    3  A    between atoms: C10_11  and  O11_12 
REMARK    4  A    between atoms: C16_18  and  O17_19 
REMARK    5  A    between atoms: C19_22  and  O20_23 
ROOT
HETATM    1  O1          0      45.842  71.067 -20.822  1.00  0.00    -0.286 OA
HETATM    2  C2          0      45.370  71.294 -19.674  1.00  0.00     0.201 C 
HETATM    3  C3          0      45.605  72.471 -18.985  1.00  0.00     0.067 C 
HETATM    4  C4          0      45.159  72.654 -17.681  1.00  0.00     0.103 C 
HETATM    5  O13         0      44.477  71.682 -17.101  1.00  0.00    -0.307 OA
HETATM    6  C14         0      44.258  70.530 -17.697  1.00  0.00     0.107 C 
HETATM    7  C15         0      43.912  69.392 -16.983  1.00  0.00     0.049 C 
HETATM    8  C16         0      43.932  68.134 -17.575  1.00  0.00     0.093 C 
HETATM    9  C18         0      43.785  68.134 -18.957  1.00  0.00     0.048 C 
HETATM   10  C19         0      44.077  69.271 -19.698  1.00  0.00     0.096 C 
HETATM   11  C21         0      44.498  70.406 -19.061  1.00  0.00     0.084 C 
ENDROOT
BRANCH  10  12
HETATM   12  O20         0      44.349  69.146 -21.057  1.00  0.00    -0.359 OA
HETATM   13  H20         0      43.771  69.586 -21.669  1.00  0.00     0.218 HD
ENDBRANCH  10  12
BRANCH   4  14
HETATM   14  C5          0      45.912  73.585 -16.839  1.00  0.00     0.025 C 
HETATM   15  C6          0      46.293  73.284 -15.539  1.00  0.00     0.004 C 
HETATM   16  C7          0      47.545  73.719 -15.118  1.00  0.00     0.026 C 
HETATM   17  C8          0      48.339  74.539 -15.912  1.00  0.00     0.112 C 
HETATM   18  C10         0      47.642  75.277 -16.861  1.00  0.00     0.112 C 
HETATM   19  C12         0      46.432  74.776 -17.328  1.00  0.00     0.028 C 
BRANCH  17  20
HETATM   20  O9          0      49.718  74.442 -15.877  1.00  0.00    -0.357 OA
HETATM   21  H9          0      50.257  74.829 -15.196  1.00  0.00     0.218 HD
ENDBRANCH  17  20
BRANCH  18  22
HETATM   22  O11         0      48.355  76.247 -17.550  1.00  0.00    -0.357 OA
HETATM   23  H11         0      47.860  76.813 -18.131  1.00  0.00     0.218 HD
ENDBRANCH  18  22
ENDBRANCH   4  14
BRANCH   8  24
HETATM   24  O17         0      44.399  67.011 -16.884  1.00  0.00    -0.359 OA
HETATM   25  H17         0      44.436  66.154 -17.292  1.00  0.00     0.218 HD
ENDBRANCH   8  24
TORSDOF 5
ENDMDL
