MODEL 1
REMARK VINA RESULT:      -4.6      0.000      0.000
REMARK  5 active torsions:
REMARK  status: ('A' for Active; 'I' for Inactive)
REMARK    1  A    between atoms: C4_4  and  C5_5 
REMARK    2  A    between atoms: C8_8  and  O9_9 
REMARK    3  A    between atoms: C10_11  and  O11_12 
REMARK    4  A    between atoms: C16_18  and  O17_19 
REMARK    5  A    between atoms: C19_22  and  O20_23 
ROOT
HETATM    1  O1          0      64.133  85.836 -25.991  1.00  0.00    -0.286 OA
HETATM    2  C2          0      63.482  86.648 -26.705  1.00  0.00     0.201 C 
HETATM    3  C3          0      63.943  87.112 -27.925  1.00  0.00     0.067 C 
HETATM    4  C4          0      63.254  88.083 -28.642  1.00  0.00     0.103 C 
HETATM    5  O13         0      62.122  88.554 -28.148  1.00  0.00    -0.307 OA
HETATM    6  C14         0      61.659  88.175 -26.977  1.00  0.00     0.107 C 
HETATM    7  C15         0      60.724  88.928 -26.283  1.00  0.00     0.049 C 
HETATM    8  C16         0      60.431  88.664 -24.950  1.00  0.00     0.093 C 
HETATM    9  C18         0      60.686  87.361 -24.540  1.00  0.00     0.048 C 
HETATM   10  C19         0      61.582  86.564 -25.240  1.00  0.00     0.096 C 
HETATM   11  C21         0      62.205  87.059 -26.352  1.00  0.00     0.084 C 
ENDROOT
BRANCH  10  12
HETATM   12  O20         0      62.153  85.465 -24.606  1.00  0.00    -0.359 OA
HETATM   13  H20         0      61.572  84.812 -24.236  1.00  0.00     0.218 HD
ENDBRANCH  10  12
BRANCH   4  14
HETATM   14  C5          0      64.037  88.931 -29.543  1.00  0.00     0.025 C 
HETATM   15  C6          0      63.580  90.155 -30.010  1.00  0.00     0.004 C 
HETATM   16  C7          0      64.505  91.188 -30.125  1.00  0.00     0.026 C 
HETATM   17  C8          0      65.863  90.977 -29.913  1.00  0.00     0.112 C 
HETATM   18  C10         0      66.279  89.663 -30.082  1.00  0.00     0.112 C 
HETATM   19  C12         0      65.354  88.646 -29.877  1.00  0.00     0.028 C 
BRANCH  17  20
HETATM   20  O9          0      66.659  91.971 -29.372  1.00  0.00    -0.357 OA
HETATM   21  H9          0      66.326  92.681 -28.837  1.00  0.00     0.218 HD
ENDBRANCH  17  20
BRANCH  18  22
HETATM   22  O11         0      67.647  89.430 -30.068  1.00  0.00    -0.357 OA
HETATM   23  H11         0      68.210  90.181 -29.918  1.00  0.00     0.218 HD
ENDBRANCH  18  22
ENDBRANCH   4  14
BRANCH   8  24
HETATM   24  O17         0      60.225  89.698 -24.030  1.00  0.00    -0.359 OA
HETATM   25  H17         0      59.699  89.574 -23.249  1.00  0.00     0.218 HD
ENDBRANCH   8  24
TORSDOF 5
ENDMDL
MODEL 2
REMARK VINA RESULT:      -4.3      2.594      7.441
REMARK  5 active torsions:
REMARK  status: ('A' for Active; 'I' for Inactive)
REMARK    1  A    between atoms: C4_4  and  C5_5 
REMARK    2  A    between atoms: C8_8  and  O9_9 
REMARK    3  A    between atoms: C10_11  and  O11_12 
REMARK    4  A    between atoms: C16_18  and  O17_19 
REMARK    5  A    between atoms: C19_22  and  O20_23 
ROOT
HETATM    1  O1          0      61.118  88.100 -27.327  1.00  0.00    -0.286 OA
HETATM    2  C2          0      61.948  87.328 -26.774  1.00  0.00     0.201 C 
HETATM    3  C3          0      61.647  86.588 -25.644  1.00  0.00     0.067 C 
HETATM    4  C4          0      62.611  85.824 -24.995  1.00  0.00     0.103 C 
HETATM    5  O13         0      63.836  85.794 -25.490  1.00  0.00    -0.307 OA
HETATM    6  C14         0      64.184  86.507 -26.538  1.00  0.00     0.107 C 
HETATM    7  C15         0      65.512  86.797 -26.817  1.00  0.00     0.049 C 
HETATM    8  C16         0      65.858  87.751 -27.766  1.00  0.00     0.093 C 
HETATM    9  C18         0      64.898  87.982 -28.744  1.00  0.00     0.048 C 
HETATM   10  C19         0      63.567  87.661 -28.515  1.00  0.00     0.096 C 
HETATM   11  C21         0      63.200  87.097 -27.324  1.00  0.00     0.084 C 
ENDROOT
BRANCH  10  12
HETATM   12  O20         0      62.579  88.273 -29.280  1.00  0.00    -0.359 OA
HETATM   13  H20         0      62.701  89.184 -29.518  1.00  0.00     0.218 HD
ENDBRANCH  10  12
BRANCH   4  14
HETATM   14  C5          0      62.423  85.583 -23.563  1.00  0.00     0.025 C 
HETATM   15  C6          0      61.230  85.849 -22.907  1.00  0.00     0.004 C 
HETATM   16  C7          0      60.824  84.955 -21.920  1.00  0.00     0.026 C 
HETATM   17  C8          0      61.639  83.908 -21.505  1.00  0.00     0.112 C 
HETATM   18  C10         0      62.994  84.099 -21.740  1.00  0.00     0.112 C 
HETATM   19  C12         0      63.372  84.931 -22.787  1.00  0.00     0.028 C 
BRANCH  17  20
HETATM   20  O9          0      61.093  82.704 -21.095  1.00  0.00    -0.357 OA
HETATM   21  H9          0      60.906  81.981 -21.683  1.00  0.00     0.218 HD
ENDBRANCH  17  20
BRANCH  18  22
HETATM   22  O11         0      63.865  83.176 -21.179  1.00  0.00    -0.357 OA
HETATM   23  H11         0      64.360  83.459 -20.419  1.00  0.00     0.218 HD
ENDBRANCH  18  22
ENDBRANCH   4  14
BRANCH   8  24
HETATM   24  O17         0      66.922  88.635 -27.557  1.00  0.00    -0.359 OA
HETATM   25  H17         0      66.904  89.283 -26.862  1.00  0.00     0.218 HD
ENDBRANCH   8  24
TORSDOF 5
ENDMDL
MODEL 3
REMARK VINA RESULT:      -4.1      1.756      6.638
REMARK  5 active torsions:
REMARK  status: ('A' for Active; 'I' for Inactive)
REMARK    1  A    between atoms: C4_4  and  C5_5 
REMARK    2  A    between atoms: C8_8  and  O9_9 
REMARK    3  A    between atoms: C10_11  and  O11_12 
REMARK    4  A    between atoms: C16_18  and  O17_19 
REMARK    5  A    between atoms: C19_22  and  O20_23 
ROOT
HETATM    1  O1          0      62.510  91.822 -26.491  1.00  0.00    -0.286 OA
HETATM    2  C2          0      62.576  90.716 -27.094  1.00  0.00     0.201 C 
HETATM    3  C3          0      61.980  89.563 -26.613  1.00  0.00     0.067 C 
HETATM    4  C4          0      62.154  88.336 -27.243  1.00  0.00     0.103 C 
HETATM    5  O13         0      62.892  88.283 -28.338  1.00  0.00    -0.307 OA
HETATM    6  C14         0      63.510  89.341 -28.815  1.00  0.00     0.107 C 
HETATM    7  C15         0      64.578  89.228 -29.694  1.00  0.00     0.049 C 
HETATM    8  C16         0      65.384  90.320 -29.993  1.00  0.00     0.093 C 
HETATM    9  C18         0      64.782  91.560 -29.820  1.00  0.00     0.048 C 
HETATM   10  C19         0      63.682  91.699 -28.984  1.00  0.00     0.096 C 
HETATM   11  C21         0      63.178  90.604 -28.338  1.00  0.00     0.084 C 
ENDROOT
BRANCH  10  12
HETATM   12  O20         0      63.366  92.957 -28.479  1.00  0.00    -0.359 OA
HETATM   13  H20         0      64.016  93.399 -27.946  1.00  0.00     0.218 HD
ENDBRANCH  10  12
BRANCH   4  14
HETATM   14  C5          0      62.036  87.135 -26.414  1.00  0.00     0.025 C 
HETATM   15  C6          0      62.982  86.120 -26.422  1.00  0.00     0.004 C 
HETATM   16  C7          0      63.283  85.510 -25.208  1.00  0.00     0.026 C 
HETATM   17  C8          0      62.573  85.802 -24.049  1.00  0.00     0.112 C 
HETATM   18  C10         0      61.298  86.310 -24.262  1.00  0.00     0.112 C 
HETATM   19  C12         0      61.049  86.990 -25.448  1.00  0.00     0.028 C 
BRANCH  17  20
HETATM   20  O9          0      63.194  85.780 -22.813  1.00  0.00    -0.357 OA
HETATM   21  H9          0      62.974  85.164 -22.123  1.00  0.00     0.218 HD
ENDBRANCH  17  20
BRANCH  18  22
HETATM   22  O11         0      60.480  86.441 -23.149  1.00  0.00    -0.357 OA
HETATM   23  H11         0      60.911  86.528 -22.307  1.00  0.00     0.218 HD
ENDBRANCH  18  22
ENDBRANCH   4  14
BRANCH   8  24
HETATM   24  O17         0      66.771  90.188 -30.125  1.00  0.00    -0.359 OA
HETATM   25  H17         0      67.188  90.127 -30.976  1.00  0.00     0.218 HD
ENDBRANCH   8  24
TORSDOF 5
ENDMDL
MODEL 4
REMARK VINA RESULT:      -4.1      2.014      6.894
REMARK  5 active torsions:
REMARK  status: ('A' for Active; 'I' for Inactive)
REMARK    1  A    between atoms: C4_4  and  C5_5 
REMARK    2  A    between atoms: C8_8  and  O9_9 
REMARK    3  A    between atoms: C10_11  and  O11_12 
REMARK    4  A    between atoms: C16_18  and  O17_19 
REMARK    5  A    between atoms: C19_22  and  O20_23 
ROOT
HETATM    1  O1          0      61.833  89.743 -27.426  1.00  0.00    -0.286 OA
HETATM    2  C2          0      62.317  88.586 -27.284  1.00  0.00     0.201 C 
HETATM    3  C3          0      61.849  87.687 -26.341  1.00  0.00     0.067 C 
HETATM    4  C4          0      62.466  86.459 -26.136  1.00  0.00     0.103 C 
HETATM    5  O13         0      63.513  86.142 -26.878  1.00  0.00    -0.307 OA
HETATM    6  C14         0      64.020  86.974 -27.761  1.00  0.00     0.107 C 
HETATM    7  C15         0      65.314  86.830 -28.242  1.00  0.00     0.049 C 
HETATM    8  C16         0      65.930  87.840 -28.970  1.00  0.00     0.093 C 
HETATM    9  C18         0      65.062  88.708 -29.621  1.00  0.00     0.048 C 
HETATM   10  C19         0      63.748  88.843 -29.195  1.00  0.00     0.096 C 
HETATM   11  C21         0      63.298  88.102 -28.136  1.00  0.00     0.084 C 
ENDROOT
BRANCH  10  12
HETATM   12  O20         0      63.034  89.986 -29.542  1.00  0.00    -0.359 OA
HETATM   13  H20         0      62.720  90.544 -28.841  1.00  0.00     0.218 HD
ENDBRANCH  10  12
BRANCH   4  14
HETATM   14  C5          0      62.337  85.858 -24.807  1.00  0.00     0.025 C 
HETATM   15  C6          0      63.280  84.987 -24.281  1.00  0.00     0.004 C 
HETATM   16  C7          0      63.568  85.091 -22.924  1.00  0.00     0.026 C 
HETATM   17  C8          0      62.848  85.939 -22.089  1.00  0.00     0.112 C 
HETATM   18  C10         0      61.577  86.261 -22.546  1.00  0.00     0.112 C 
HETATM   19  C12         0      61.340  86.230 -23.915  1.00  0.00     0.028 C 
BRANCH  17  20
HETATM   20  O9          0      63.457  86.559 -21.012  1.00  0.00    -0.357 OA
HETATM   21  H9          0      63.826  86.090 -20.273  1.00  0.00     0.218 HD
ENDBRANCH  17  20
BRANCH  18  22
HETATM   22  O11         0      60.748  86.945 -21.669  1.00  0.00    -0.357 OA
HETATM   23  H11         0      61.018  86.977 -20.758  1.00  0.00     0.218 HD
ENDBRANCH  18  22
ENDBRANCH   4  14
BRANCH   8  24
HETATM   24  O17         0      67.281  88.154 -28.782  1.00  0.00    -0.359 OA
HETATM   25  H17         0      67.947  87.885 -29.403  1.00  0.00     0.218 HD
ENDBRANCH   8  24
TORSDOF 5
ENDMDL
MODEL 5
REMARK VINA RESULT:      -4.1      1.974      3.426
REMARK  5 active torsions:
REMARK  status: ('A' for Active; 'I' for Inactive)
REMARK    1  A    between atoms: C4_4  and  C5_5 
REMARK    2  A    between atoms: C8_8  and  O9_9 
REMARK    3  A    between atoms: C10_11  and  O11_12 
REMARK    4  A    between atoms: C16_18  and  O17_19 
REMARK    5  A    between atoms: C19_22  and  O20_23 
ROOT
HETATM    1  O1          0      60.288  87.003 -25.402  1.00  0.00    -0.286 OA
HETATM    2  C2          0      61.548  86.994 -25.466  1.00  0.00     0.201 C 
HETATM    3  C3          0      62.250  87.561 -26.517  1.00  0.00     0.067 C 
HETATM    4  C4          0      63.632  87.448 -26.615  1.00  0.00     0.103 C 
HETATM    5  O13         0      64.285  86.799 -25.667  1.00  0.00    -0.307 OA
HETATM    6  C14         0      63.664  86.211 -24.668  1.00  0.00     0.107 C 
HETATM    7  C15         0      64.271  85.217 -23.914  1.00  0.00     0.049 C 
HETATM    8  C16         0      63.538  84.427 -23.037  1.00  0.00     0.093 C 
HETATM    9  C18         0      62.363  85.003 -22.571  1.00  0.00     0.048 C 
HETATM   10  C19         0      61.753  86.032 -23.276  1.00  0.00     0.096 C 
HETATM   11  C21         0      62.323  86.494 -24.431  1.00  0.00     0.084 C 
ENDROOT
BRANCH  10  12
HETATM   12  O20         0      60.404  86.296 -23.064  1.00  0.00    -0.359 OA
HETATM   13  H20         0      60.176  86.988 -22.455  1.00  0.00     0.218 HD
ENDBRANCH  10  12
BRANCH   4  14
HETATM   14  C5          0      64.215  87.510 -27.957  1.00  0.00     0.025 C 
HETATM   15  C6          0      63.622  88.201 -29.003  1.00  0.00     0.004 C 
HETATM   16  C7          0      64.458  88.887 -29.878  1.00  0.00     0.026 C 
HETATM   17  C8          0      65.842  88.783 -29.798  1.00  0.00     0.112 C 
HETATM   18  C10         0      66.301  87.628 -29.177  1.00  0.00     0.112 C 
HETATM   19  C12         0      65.479  87.009 -28.243  1.00  0.00     0.028 C 
BRANCH  17  20
HETATM   20  O9          0      66.655  89.854 -30.125  1.00  0.00    -0.357 OA
HETATM   21  H9          0      67.325  90.203 -29.549  1.00  0.00     0.218 HD
ENDBRANCH  17  20
BRANCH  18  22
HETATM   22  O11         0      67.666  87.383 -29.237  1.00  0.00    -0.357 OA
HETATM   23  H11         0      68.222  88.107 -29.498  1.00  0.00     0.218 HD
ENDBRANCH  18  22
ENDBRANCH   4  14
BRANCH   8  24
HETATM   24  O17         0      63.787  83.056 -22.908  1.00  0.00    -0.359 OA
HETATM   25  H17         0      63.084  82.418 -22.924  1.00  0.00     0.218 HD
ENDBRANCH   8  24
TORSDOF 5
ENDMDL
MODEL 6
REMARK VINA RESULT:      -4.1      1.910      2.624
REMARK  5 active torsions:
REMARK  status: ('A' for Active; 'I' for Inactive)
REMARK    1  A    between atoms: C4_4  and  C5_5 
REMARK    2  A    between atoms: C8_8  and  O9_9 
REMARK    3  A    between atoms: C10_11  and  O11_12 
REMARK    4  A    between atoms: C16_18  and  O17_19 
REMARK    5  A    between atoms: C19_22  and  O20_23 
ROOT
HETATM    1  O1          0      63.725  84.719 -24.103  1.00  0.00    -0.286 OA
HETATM    2  C2          0      62.921  85.523 -24.651  1.00  0.00     0.201 C 
HETATM    3  C3          0      63.114  86.023 -25.927  1.00  0.00     0.067 C 
HETATM    4  C4          0      62.268  86.985 -26.468  1.00  0.00     0.103 C 
HETATM    5  O13         0      61.247  87.411 -25.745  1.00  0.00    -0.307 OA
HETATM    6  C14         0      61.040  86.996 -24.515  1.00  0.00     0.107 C 
HETATM    7  C15         0      60.243  87.706 -23.628  1.00  0.00     0.049 C 
HETATM    8  C16         0      60.232  87.409 -22.271  1.00  0.00     0.093 C 
HETATM    9  C18         0      60.601  86.107 -21.952  1.00  0.00     0.048 C 
HETATM   10  C19         0      61.358  85.352 -22.837  1.00  0.00     0.096 C 
HETATM   11  C21         0      61.731  85.887 -24.039  1.00  0.00     0.084 C 
ENDROOT
BRANCH  10  12
HETATM   12  O20         0      62.076  84.260 -22.357  1.00  0.00    -0.359 OA
HETATM   13  H20         0      62.597  83.763 -22.976  1.00  0.00     0.218 HD
ENDBRANCH  10  12
BRANCH   4  14
HETATM   14  C5          0      62.830  87.874 -27.487  1.00  0.00     0.025 C 
HETATM   15  C6          0      62.538  89.229 -27.546  1.00  0.00     0.004 C 
HETATM   16  C7          0      63.568  90.096 -27.893  1.00  0.00     0.026 C 
HETATM   17  C8          0      64.812  89.625 -28.299  1.00  0.00     0.112 C 
HETATM   18  C10         0      64.806  88.332 -28.806  1.00  0.00     0.112 C 
HETATM   19  C12         0      63.813  87.460 -28.376  1.00  0.00     0.028 C 
BRANCH  17  20
HETATM   20  O9          0      65.967  90.330 -28.009  1.00  0.00    -0.357 OA
HETATM   21  H9          0      66.715  89.956 -27.559  1.00  0.00     0.218 HD
ENDBRANCH  17  20
BRANCH  18  22
HETATM   22  O11         0      65.978  87.883 -29.397  1.00  0.00    -0.357 OA
HETATM   23  H11         0      66.136  88.150 -30.295  1.00  0.00     0.218 HD
ENDBRANCH  18  22
ENDBRANCH   4  14
BRANCH   8  24
HETATM   24  O17         0      60.187  88.419 -21.303  1.00  0.00    -0.359 OA
HETATM   25  H17         0      59.761  89.251 -21.470  1.00  0.00     0.218 HD
ENDBRANCH   8  24
TORSDOF 5
ENDMDL
MODEL 7
REMARK VINA RESULT:      -4.0      1.378      1.623
REMARK  5 active torsions:
REMARK  status: ('A' for Active; 'I' for Inactive)
REMARK    1  A    between atoms: C4_4  and  C5_5 
REMARK    2  A    between atoms: C8_8  and  O9_9 
REMARK    3  A    between atoms: C10_11  and  O11_12 
REMARK    4  A    between atoms: C16_18  and  O17_19 
REMARK    5  A    between atoms: C19_22  and  O20_23 
ROOT
HETATM    1  O1          0      64.835  85.757 -25.358  1.00  0.00    -0.286 OA
HETATM    2  C2          0      64.378  86.404 -26.340  1.00  0.00     0.201 C 
HETATM    3  C3          0      65.158  86.775 -27.422  1.00  0.00     0.067 C 
HETATM    4  C4          0      64.656  87.575 -28.442  1.00  0.00     0.103 C 
HETATM    5  O13         0      63.397  87.971 -28.377  1.00  0.00    -0.307 OA
HETATM    6  C14         0      62.624  87.679 -27.353  1.00  0.00     0.107 C 
HETATM    7  C15         0      61.470  88.398 -27.080  1.00  0.00     0.049 C 
HETATM    8  C16         0      60.801  88.258 -25.870  1.00  0.00     0.093 C 
HETATM    9  C18         0      61.009  87.046 -25.222  1.00  0.00     0.048 C 
HETATM   10  C19         0      62.131  86.279 -25.505  1.00  0.00     0.096 C 
HETATM   11  C21         0      63.029  86.709 -26.442  1.00  0.00     0.084 C 
ENDROOT
BRANCH  10  12
HETATM   12  O20         0      62.556  85.329 -24.581  1.00  0.00    -0.359 OA
HETATM   13  H20         0      62.005  85.166 -23.825  1.00  0.00     0.218 HD
ENDBRANCH  10  12
BRANCH   4  14
HETATM   14  C5          0      65.615  88.397 -29.182  1.00  0.00     0.025 C 
HETATM   15  C6          0      65.536  89.781 -29.236  1.00  0.00     0.004 C 
HETATM   16  C7          0      66.729  90.496 -29.198  1.00  0.00     0.026 C 
HETATM   17  C8          0      67.964  89.858 -29.241  1.00  0.00     0.112 C 
HETATM   18  C10         0      67.943  88.593 -29.812  1.00  0.00     0.112 C 
HETATM   19  C12         0      66.760  87.865 -29.761  1.00  0.00     0.028 C 
BRANCH  17  20
HETATM   20  O9          0      69.055  90.381 -28.571  1.00  0.00    -0.357 OA
HETATM   21  H9          0      69.301  91.298 -28.596  1.00  0.00     0.218 HD
ENDBRANCH  17  20
BRANCH  18  22
HETATM   22  O11         0      69.170  87.991 -30.052  1.00  0.00    -0.357 OA
HETATM   23  H11         0      69.637  87.650 -29.298  1.00  0.00     0.218 HD
ENDBRANCH  18  22
ENDBRANCH   4  14
BRANCH   8  24
HETATM   24  O17         0      60.249  89.361 -25.209  1.00  0.00    -0.359 OA
HETATM   25  H17         0      60.160  90.205 -25.636  1.00  0.00     0.218 HD
ENDBRANCH   8  24
TORSDOF 5
ENDMDL
MODEL 8
REMARK VINA RESULT:      -4.0      1.765      6.518
REMARK  5 active torsions:
REMARK  status: ('A' for Active; 'I' for Inactive)
REMARK    1  A    between atoms: C4_4  and  C5_5 
REMARK    2  A    between atoms: C8_8  and  O9_9 
REMARK    3  A    between atoms: C10_11  and  O11_12 
REMARK    4  A    between atoms: C16_18  and  O17_19 
REMARK    5  A    between atoms: C19_22  and  O20_23 
ROOT
HETATM    1  O1          0      65.327  91.183 -28.883  1.00  0.00    -0.286 OA
HETATM    2  C2          0      64.745  90.082 -28.686  1.00  0.00     0.201 C 
HETATM    3  C3          0      63.449  89.993 -28.207  1.00  0.00     0.067 C 
HETATM    4  C4          0      62.867  88.768 -27.900  1.00  0.00     0.103 C 
HETATM    5  O13         0      63.570  87.666 -28.094  1.00  0.00    -0.307 OA
HETATM    6  C14         0      64.816  87.696 -28.510  1.00  0.00     0.107 C 
HETATM    7  C15         0      65.671  86.617 -28.336  1.00  0.00     0.049 C 
HETATM    8  C16         0      67.040  86.740 -28.543  1.00  0.00     0.093 C 
HETATM    9  C18         0      67.414  87.764 -29.404  1.00  0.00     0.048 C 
HETATM   10  C19         0      66.563  88.836 -29.638  1.00  0.00     0.096 C 
HETATM   11  C21         0      65.339  88.876 -29.027  1.00  0.00     0.084 C 
ENDROOT
BRANCH  10  12
HETATM   12  O20         0      67.088  90.029 -30.125  1.00  0.00    -0.359 OA
HETATM   13  H20         0      68.008  90.208 -29.967  1.00  0.00     0.218 HD
ENDBRANCH  10  12
BRANCH   4  14
HETATM   14  C5          0      61.812  88.763 -26.885  1.00  0.00     0.025 C 
HETATM   15  C6          0      60.600  88.112 -27.063  1.00  0.00     0.004 C 
HETATM   16  C7          0      60.048  87.465 -25.962  1.00  0.00     0.026 C 
HETATM   17  C8          0      60.611  87.573 -24.695  1.00  0.00     0.112 C 
HETATM   18  C10         0      61.394  88.703 -24.503  1.00  0.00     0.112 C 
HETATM   19  C12         0      62.003  89.280 -25.610  1.00  0.00     0.028 C 
BRANCH  17  20
HETATM   20  O9          0      60.549  86.520 -23.800  1.00  0.00    -0.357 OA
HETATM   21  H9          0      61.298  85.986 -23.560  1.00  0.00     0.218 HD
ENDBRANCH  17  20
BRANCH  18  22
HETATM   22  O11         0      61.823  88.958 -23.208  1.00  0.00    -0.357 OA
HETATM   23  H11         0      62.751  88.856 -23.034  1.00  0.00     0.218 HD
ENDBRANCH  18  22
ENDBRANCH   4  14
BRANCH   8  24
HETATM   24  O17         0      67.964  86.116 -27.697  1.00  0.00    -0.359 OA
HETATM   25  H17         0      67.880  85.202 -27.454  1.00  0.00     0.218 HD
ENDBRANCH   8  24
TORSDOF 5
ENDMDL
MODEL 9
REMARK VINA RESULT:      -4.0      2.288      3.210
REMARK  5 active torsions:
REMARK  status: ('A' for Active; 'I' for Inactive)
REMARK    1  A    between atoms: C4_4  and  C5_5 
REMARK    2  A    between atoms: C8_8  and  O9_9 
REMARK    3  A    between atoms: C10_11  and  O11_12 
REMARK    4  A    between atoms: C16_18  and  O17_19 
REMARK    5  A    between atoms: C19_22  and  O20_23 
ROOT
HETATM    1  O1          0      65.682  86.062 -25.706  1.00  0.00    -0.286 OA
HETATM    2  C2          0      65.465  86.517 -26.863  1.00  0.00     0.201 C 
HETATM    3  C3          0      66.464  86.669 -27.809  1.00  0.00     0.067 C 
HETATM    4  C4          0      66.218  87.269 -29.039  1.00  0.00     0.103 C 
HETATM    5  O13         0      64.992  87.682 -29.309  1.00  0.00    -0.307 OA
HETATM    6  C14         0      64.016  87.596 -28.432  1.00  0.00     0.107 C 
HETATM    7  C15         0      62.866  88.366 -28.541  1.00  0.00     0.049 C 
HETATM    8  C16         0      61.961  88.462 -27.491  1.00  0.00     0.093 C 
HETATM    9  C18         0      61.975  87.392 -26.604  1.00  0.00     0.048 C 
HETATM   10  C19         0      63.092  86.574 -26.503  1.00  0.00     0.096 C 
HETATM   11  C21         0      64.181  86.811 -27.297  1.00  0.00     0.084 C 
ENDROOT
BRANCH  10  12
HETATM   12  O20         0      63.276  85.811 -25.354  1.00  0.00    -0.359 OA
HETATM   13  H20         0      62.927  86.147 -24.537  1.00  0.00     0.218 HD
ENDBRANCH  10  12
BRANCH   4  14
HETATM   14  C5          0      67.346  87.926 -29.702  1.00  0.00     0.025 C 
HETATM   15  C6          0      67.378  89.290 -29.956  1.00  0.00     0.004 C 
HETATM   16  C7          0      68.595  89.945 -29.804  1.00  0.00     0.026 C 
HETATM   17  C8          0      69.770  89.250 -29.540  1.00  0.00     0.112 C 
HETATM   18  C10         0      69.754  87.917 -29.928  1.00  0.00     0.112 C 
HETATM   19  C12         0      68.530  87.261 -29.989  1.00  0.00     0.028 C 
BRANCH  17  20
HETATM   20  O9          0      70.767  89.812 -28.762  1.00  0.00    -0.357 OA
HETATM   21  H9          0      70.686  90.652 -28.325  1.00  0.00     0.218 HD
ENDBRANCH  17  20
BRANCH  18  22
HETATM   22  O11         0      70.958  87.229 -29.862  1.00  0.00    -0.357 OA
HETATM   23  H11         0      71.678  87.572 -30.378  1.00  0.00     0.218 HD
ENDBRANCH  18  22
ENDBRANCH   4  14
BRANCH   8  24
HETATM   24  O17         0      61.342  89.675 -27.171  1.00  0.00    -0.359 OA
HETATM   25  H17         0      61.543  90.477 -27.639  1.00  0.00     0.218 HD
ENDBRANCH   8  24
TORSDOF 5
ENDMDL
