MODEL 1
REMARK VINA RESULT:      -4.1      0.000      0.000
REMARK  5 active torsions:
REMARK  status: ('A' for Active; 'I' for Inactive)
REMARK    1  A    between atoms: C4_4  and  C5_5 
REMARK    2  A    between atoms: C8_8  and  O9_9 
REMARK    3  A    between atoms: C10_11  and  O11_12 
REMARK    4  A    between atoms: C16_18  and  O17_19 
REMARK    5  A    between atoms: C19_22  and  O20_23 
ROOT
HETATM    1  O1          0      14.843  59.011  -4.685  1.00  0.00    -0.286 OA
HETATM    2  C2          0      16.066  59.289  -4.546  1.00  0.00     0.201 C 
HETATM    3  C3          0      16.984  59.168  -5.575  1.00  0.00     0.067 C 
HETATM    4  C4          0      18.342  59.381  -5.369  1.00  0.00     0.103 C 
HETATM    5  O13         0      18.754  59.726  -4.162  1.00  0.00    -0.307 OA
HETATM    6  C14         0      17.929  59.818  -3.141  1.00  0.00     0.107 C 
HETATM    7  C15         0      18.381  59.782  -1.830  1.00  0.00     0.049 C 
HETATM    8  C16         0      17.501  59.623  -0.767  1.00  0.00     0.093 C 
HETATM    9  C18         0      16.197  60.032  -1.019  1.00  0.00     0.048 C 
HETATM   10  C19         0      15.726  60.125  -2.322  1.00  0.00     0.096 C 
HETATM   11  C21         0      16.557  59.827  -3.367  1.00  0.00     0.084 C 
ENDROOT
BRANCH  10  12
HETATM   12  O20         0      14.354  60.102  -2.553  1.00  0.00    -0.359 OA
HETATM   13  H20         0      13.974  60.816  -3.050  1.00  0.00     0.218 HD
ENDBRANCH  10  12
BRANCH   4  14
HETATM   14  C5          0      19.273  58.682  -6.258  1.00  0.00     0.025 C 
HETATM   15  C6          0      19.935  57.520  -5.890  1.00  0.00     0.004 C 
HETATM   16  C7          0      20.101  56.538  -6.862  1.00  0.00     0.026 C 
HETATM   17  C8          0      19.742  56.756  -8.188  1.00  0.00     0.112 C 
HETATM   18  C10         0      19.700  58.092  -8.565  1.00  0.00     0.112 C 
HETATM   19  C12         0      19.448  59.046  -7.586  1.00  0.00     0.028 C 
BRANCH  17  20
HETATM   20  O9          0      19.268  55.721  -8.973  1.00  0.00    -0.357 OA
HETATM   21  H9          0      19.823  55.173  -9.516  1.00  0.00     0.218 HD
ENDBRANCH  17  20
BRANCH  18  22
HETATM   22  O11         0      19.534  58.358  -9.916  1.00  0.00    -0.357 OA
HETATM   23  H11         0      18.773  58.872 -10.163  1.00  0.00     0.218 HD
ENDBRANCH  18  22
ENDBRANCH   4  14
BRANCH   8  24
HETATM   24  O17         0      17.819  58.813   0.329  1.00  0.00    -0.359 OA
HETATM   25  H17         0      18.699  58.777   0.683  1.00  0.00     0.218 HD
ENDBRANCH   8  24
TORSDOF 5
ENDMDL
MODEL 2
REMARK VINA RESULT:      -3.8      4.784      7.350
REMARK  5 active torsions:
REMARK  status: ('A' for Active; 'I' for Inactive)
REMARK    1  A    between atoms: C4_4  and  C5_5 
REMARK    2  A    between atoms: C8_8  and  O9_9 
REMARK    3  A    between atoms: C10_11  and  O11_12 
REMARK    4  A    between atoms: C16_18  and  O17_19 
REMARK    5  A    between atoms: C19_22  and  O20_23 
ROOT
HETATM    1  O1          0      14.987  52.964  -9.171  1.00  0.00    -0.286 OA
HETATM    2  C2          0      15.168  54.185  -9.431  1.00  0.00     0.201 C 
HETATM    3  C3          0      16.412  54.790  -9.371  1.00  0.00     0.067 C 
HETATM    4  C4          0      16.567  56.158  -9.562  1.00  0.00     0.103 C 
HETATM    5  O13         0      15.498  56.887  -9.826  1.00  0.00    -0.307 OA
HETATM    6  C14         0      14.289  56.370  -9.858  1.00  0.00     0.107 C 
HETATM    7  C15         0      13.154  57.158  -9.734  1.00  0.00     0.049 C 
HETATM    8  C16         0      11.904  56.592  -9.512  1.00  0.00     0.093 C 
HETATM    9  C18         0      11.769  55.279  -9.945  1.00  0.00     0.048 C 
HETATM   10  C19         0      12.888  54.477 -10.124  1.00  0.00     0.096 C 
HETATM   11  C21         0      14.135  54.988  -9.890  1.00  0.00     0.084 C 
ENDROOT
BRANCH  10  12
HETATM   12  O20         0      12.740  53.093 -10.125  1.00  0.00    -0.359 OA
HETATM   13  H20         0      11.992  52.725 -10.579  1.00  0.00     0.218 HD
ENDBRANCH  10  12
BRANCH   4  14
HETATM   14  C5          0      17.715  56.798  -8.917  1.00  0.00     0.025 C 
HETATM   15  C6          0      17.861  58.175  -8.837  1.00  0.00     0.004 C 
HETATM   16  C7          0      18.394  58.700  -7.664  1.00  0.00     0.026 C 
HETATM   17  C8          0      18.889  57.879  -6.656  1.00  0.00     0.112 C 
HETATM   18  C10         0      19.276  56.614  -7.077  1.00  0.00     0.112 C 
HETATM   19  C12         0      18.666  56.078  -8.205  1.00  0.00     0.028 C 
BRANCH  17  20
HETATM   20  O9          0      18.789  58.249  -5.327  1.00  0.00    -0.357 OA
HETATM   21  H9          0      18.855  57.638  -4.602  1.00  0.00     0.218 HD
ENDBRANCH  17  20
BRANCH  18  22
HETATM   22  O11         0      19.949  55.824  -6.156  1.00  0.00    -0.357 OA
HETATM   23  H11         0      20.281  54.989  -6.467  1.00  0.00     0.218 HD
ENDBRANCH  18  22
ENDBRANCH   4  14
BRANCH   8  24
HETATM   24  O17         0      10.986  57.175  -8.632  1.00  0.00    -0.359 OA
HETATM   25  H17         0      10.056  57.200  -8.825  1.00  0.00     0.218 HD
ENDBRANCH   8  24
TORSDOF 5
ENDMDL
MODEL 3
REMARK VINA RESULT:      -3.7      2.569      6.738
REMARK  5 active torsions:
REMARK  status: ('A' for Active; 'I' for Inactive)
REMARK    1  A    between atoms: C4_4  and  C5_5 
REMARK    2  A    between atoms: C8_8  and  O9_9 
REMARK    3  A    between atoms: C10_11  and  O11_12 
REMARK    4  A    between atoms: C16_18  and  O17_19 
REMARK    5  A    between atoms: C19_22  and  O20_23 
ROOT
HETATM    1  O1          0      17.902  53.977  -6.478  1.00  0.00    -0.286 OA
HETATM    2  C2          0      18.364  55.112  -6.777  1.00  0.00     0.201 C 
HETATM    3  C3          0      19.199  55.827  -5.936  1.00  0.00     0.067 C 
HETATM    4  C4          0      19.612  57.119  -6.245  1.00  0.00     0.103 C 
HETATM    5  O13         0      19.207  57.659  -7.381  1.00  0.00    -0.307 OA
HETATM    6  C14         0      18.385  57.038  -8.197  1.00  0.00     0.107 C 
HETATM    7  C15         0      17.653  57.722  -9.157  1.00  0.00     0.049 C 
HETATM    8  C16         0      16.607  57.110  -9.838  1.00  0.00     0.093 C 
HETATM    9  C18         0      16.683  55.724  -9.909  1.00  0.00     0.048 C 
HETATM   10  C19         0      17.444  55.012  -8.992  1.00  0.00     0.096 C 
HETATM   11  C21         0      18.139  55.681  -8.021  1.00  0.00     0.084 C 
ENDROOT
BRANCH  10  12
HETATM   12  O20         0      17.179  53.661  -8.792  1.00  0.00    -0.359 OA
HETATM   13  H20         0      16.454  53.274  -9.268  1.00  0.00     0.218 HD
ENDBRANCH  10  12
BRANCH   4  14
HETATM   14  C5          0      19.949  58.000  -5.126  1.00  0.00     0.025 C 
HETATM   15  C6          0      19.972  59.382  -5.238  1.00  0.00     0.004 C 
HETATM   16  C7          0      19.503  60.125  -4.159  1.00  0.00     0.026 C 
HETATM   17  C8          0      19.148  59.521  -2.957  1.00  0.00     0.112 C 
HETATM   18  C10         0      19.740  58.285  -2.732  1.00  0.00     0.112 C 
HETATM   19  C12         0      20.123  57.526  -3.832  1.00  0.00     0.028 C 
BRANCH  17  20
HETATM   20  O9          0      18.126  60.036  -2.180  1.00  0.00    -0.357 OA
HETATM   21  H9          0      17.753  59.584  -1.431  1.00  0.00     0.218 HD
ENDBRANCH  17  20
BRANCH  18  22
HETATM   22  O11         0      19.571  57.727  -1.473  1.00  0.00    -0.357 OA
HETATM   23  H11         0      19.960  58.192  -0.741  1.00  0.00     0.218 HD
ENDBRANCH  18  22
ENDBRANCH   4  14
BRANCH   8  24
HETATM   24  O17         0      15.421  57.797 -10.123  1.00  0.00    -0.359 OA
HETATM   25  H17         0      14.811  58.044  -9.438  1.00  0.00     0.218 HD
ENDBRANCH   8  24
TORSDOF 5
ENDMDL
MODEL 4
REMARK VINA RESULT:      -3.6      1.811      6.780
REMARK  5 active torsions:
REMARK  status: ('A' for Active; 'I' for Inactive)
REMARK    1  A    between atoms: C4_4  and  C5_5 
REMARK    2  A    between atoms: C8_8  and  O9_9 
REMARK    3  A    between atoms: C10_11  and  O11_12 
REMARK    4  A    between atoms: C16_18  and  O17_19 
REMARK    5  A    between atoms: C19_22  and  O20_23 
ROOT
HETATM    1  O1          0      17.931  55.558  -4.757  1.00  0.00    -0.286 OA
HETATM    2  C2          0      17.942  56.806  -4.936  1.00  0.00     0.201 C 
HETATM    3  C3          0      17.183  57.680  -4.176  1.00  0.00     0.067 C 
HETATM    4  C4          0      17.134  59.040  -4.461  1.00  0.00     0.103 C 
HETATM    5  O13         0      17.849  59.503  -5.471  1.00  0.00    -0.307 OA
HETATM    6  C14         0      18.556  58.712  -6.247  1.00  0.00     0.107 C 
HETATM    7  C15         0      18.971  59.108  -7.511  1.00  0.00     0.049 C 
HETATM    8  C16         0      19.490  58.193  -8.419  1.00  0.00     0.093 C 
HETATM    9  C18         0      20.051  57.056  -7.851  1.00  0.00     0.048 C 
HETATM   10  C19         0      19.694  56.657  -6.570  1.00  0.00     0.096 C 
HETATM   11  C21         0      18.794  57.399  -5.855  1.00  0.00     0.084 C 
ENDROOT
BRANCH  10  12
HETATM   12  O20         0      19.902  55.336  -6.186  1.00  0.00    -0.359 OA
HETATM   13  H20         0      19.180  54.727  -6.277  1.00  0.00     0.218 HD
ENDBRANCH  10  12
BRANCH   4  14
HETATM   14  C5          0      15.927  59.765  -4.061  1.00  0.00     0.025 C 
HETATM   15  C6          0      14.880  60.022  -4.934  1.00  0.00     0.004 C 
HETATM   16  C7          0      13.585  59.939  -4.431  1.00  0.00     0.026 C 
HETATM   17  C8          0      13.341  59.740  -3.076  1.00  0.00     0.112 C 
HETATM   18  C10         0      14.378  60.125  -2.237  1.00  0.00     0.112 C 
HETATM   19  C12         0      15.673  60.117  -2.741  1.00  0.00     0.028 C 
BRANCH  17  20
HETATM   20  O9          0      12.237  59.020  -2.654  1.00  0.00    -0.357 OA
HETATM   21  H9          0      12.210  58.522  -1.845  1.00  0.00     0.218 HD
ENDBRANCH  17  20
BRANCH  18  22
HETATM   22  O11         0      14.116  60.125  -0.874  1.00  0.00    -0.357 OA
HETATM   23  H11         0      14.843  59.922  -0.297  1.00  0.00     0.218 HD
ENDBRANCH  18  22
ENDBRANCH   4  14
BRANCH   8  24
HETATM   24  O17         0      19.169  58.254  -9.780  1.00  0.00    -0.359 OA
HETATM   25  H17         0      18.885  57.486 -10.261  1.00  0.00     0.218 HD
ENDBRANCH   8  24
TORSDOF 5
ENDMDL
MODEL 5
REMARK VINA RESULT:      -3.5      6.914     10.970
REMARK  5 active torsions:
REMARK  status: ('A' for Active; 'I' for Inactive)
REMARK    1  A    between atoms: C4_4  and  C5_5 
REMARK    2  A    between atoms: C8_8  and  O9_9 
REMARK    3  A    between atoms: C10_11  and  O11_12 
REMARK    4  A    between atoms: C16_18  and  O17_19 
REMARK    5  A    between atoms: C19_22  and  O20_23 
ROOT
HETATM    1  O1          0      19.095  58.101   1.252  1.00  0.00    -0.286 OA
HETATM    2  C2          0      18.712  58.704   2.292  1.00  0.00     0.201 C 
HETATM    3  C3          0      19.542  58.932   3.376  1.00  0.00     0.067 C 
HETATM    4  C4          0      19.068  59.507   4.549  1.00  0.00     0.103 C 
HETATM    5  O13         0      17.796  59.861   4.613  1.00  0.00    -0.307 OA
HETATM    6  C14         0      16.957  59.633   3.627  1.00  0.00     0.107 C 
HETATM    7  C15         0      15.583  59.625   3.823  1.00  0.00     0.049 C 
HETATM    8  C16         0      14.718  59.138   2.851  1.00  0.00     0.093 C 
HETATM    9  C18         0      15.213  59.176   1.553  1.00  0.00     0.048 C 
HETATM   10  C19         0      16.581  59.232   1.321  1.00  0.00     0.096 C 
HETATM   11  C21         0      17.448  59.267   2.379  1.00  0.00     0.084 C 
ENDROOT
BRANCH  10  12
HETATM   12  O20         0      17.077  58.836   0.083  1.00  0.00    -0.359 OA
HETATM   13  H20         0      16.601  58.168  -0.395  1.00  0.00     0.218 HD
ENDBRANCH  10  12
BRANCH   4  14
HETATM   14  C5          0      19.771  59.176   5.790  1.00  0.00     0.025 C 
HETATM   15  C6          0      20.088  60.125   6.751  1.00  0.00     0.004 C 
HETATM   16  C7          0      19.978  59.751   8.086  1.00  0.00     0.026 C 
HETATM   17  C8          0      19.694  58.441   8.456  1.00  0.00     0.112 C 
HETATM   18  C10         0      20.020  57.486   7.503  1.00  0.00     0.112 C 
HETATM   19  C12         0      20.040  57.866   6.166  1.00  0.00     0.028 C 
BRANCH  17  20
HETATM   20  O9          0      18.953  58.170   9.593  1.00  0.00    -0.357 OA
HETATM   21  H9          0      18.279  58.747   9.934  1.00  0.00     0.218 HD
ENDBRANCH  17  20
BRANCH  18  22
HETATM   22  O11         0      19.935  56.156   7.890  1.00  0.00    -0.357 OA
HETATM   23  H11         0      20.715  55.625   7.780  1.00  0.00     0.218 HD
ENDBRANCH  18  22
ENDBRANCH   4  14
BRANCH   8  24
HETATM   24  O17         0      13.598  58.370   3.189  1.00  0.00    -0.359 OA
HETATM   25  H17         0      13.347  57.605   2.685  1.00  0.00     0.218 HD
ENDBRANCH   8  24
TORSDOF 5
ENDMDL
MODEL 6
REMARK VINA RESULT:      -3.5      1.490      1.923
REMARK  5 active torsions:
REMARK  status: ('A' for Active; 'I' for Inactive)
REMARK    1  A    between atoms: C4_4  and  C5_5 
REMARK    2  A    between atoms: C8_8  and  O9_9 
REMARK    3  A    between atoms: C10_11  and  O11_12 
REMARK    4  A    between atoms: C16_18  and  O17_19 
REMARK    5  A    between atoms: C19_22  and  O20_23 
ROOT
HETATM    1  O1          0      15.151  58.165  -2.092  1.00  0.00    -0.286 OA
HETATM    2  C2          0      16.182  58.821  -2.406  1.00  0.00     0.201 C 
HETATM    3  C3          0      16.612  58.960  -3.715  1.00  0.00     0.067 C 
HETATM    4  C4          0      17.807  59.600  -4.025  1.00  0.00     0.103 C 
HETATM    5  O13         0      18.531  60.103  -3.041  1.00  0.00    -0.307 OA
HETATM    6  C14         0      18.187  59.966  -1.779  1.00  0.00     0.107 C 
HETATM    7  C15         0      19.105  60.123  -0.750  1.00  0.00     0.049 C 
HETATM    8  C16         0      18.806  59.732   0.550  1.00  0.00     0.093 C 
HETATM    9  C18         0      17.450  59.696   0.855  1.00  0.00     0.048 C 
HETATM   10  C19         0      16.503  59.587  -0.154  1.00  0.00     0.096 C 
HETATM   11  C21         0      16.906  59.531  -1.461  1.00  0.00     0.084 C 
ENDROOT
BRANCH  10  12
HETATM   12  O20         0      15.229  59.122   0.157  1.00  0.00    -0.359 OA
HETATM   13  H20         0      14.929  58.328  -0.270  1.00  0.00     0.218 HD
ENDBRANCH  10  12
BRANCH   4  14
HETATM   14  C5          0      18.479  59.201  -5.263  1.00  0.00     0.025 C 
HETATM   15  C6          0      19.633  58.431  -5.277  1.00  0.00     0.004 C 
HETATM   16  C7          0      19.755  57.472  -6.278  1.00  0.00     0.026 C 
HETATM   17  C8          0      18.828  57.371  -7.309  1.00  0.00     0.112 C 
HETATM   18  C10         0      18.110  58.534  -7.559  1.00  0.00     0.112 C 
HETATM   19  C12         0      17.930  59.435  -6.517  1.00  0.00     0.028 C 
BRANCH  17  20
HETATM   20  O9          0      18.523  56.144  -7.870  1.00  0.00    -0.357 OA
HETATM   21  H9          0      17.660  55.747  -7.835  1.00  0.00     0.218 HD
ENDBRANCH  17  20
BRANCH  18  22
HETATM   22  O11         0      17.311  58.547  -8.693  1.00  0.00    -0.357 OA
HETATM   23  H11         0      17.497  59.215  -9.342  1.00  0.00     0.218 HD
ENDBRANCH  18  22
ENDBRANCH   4  14
BRANCH   8  24
HETATM   24  O17         0      19.759  59.105   1.360  1.00  0.00    -0.359 OA
HETATM   25  H17         0      19.844  58.160   1.392  1.00  0.00     0.218 HD
ENDBRANCH   8  24
TORSDOF 5
ENDMDL
MODEL 7
REMARK VINA RESULT:      -3.2      5.998      7.763
REMARK  5 active torsions:
REMARK  status: ('A' for Active; 'I' for Inactive)
REMARK    1  A    between atoms: C4_4  and  C5_5 
REMARK    2  A    between atoms: C8_8  and  O9_9 
REMARK    3  A    between atoms: C10_11  and  O11_12 
REMARK    4  A    between atoms: C16_18  and  O17_19 
REMARK    5  A    between atoms: C19_22  and  O20_23 
ROOT
HETATM    1  O1          0      12.347  53.248 -10.125  1.00  0.00    -0.286 OA
HETATM    2  C2          0      12.625  54.434  -9.799  1.00  0.00     0.201 C 
HETATM    3  C3          0      13.906  54.953  -9.875  1.00  0.00     0.067 C 
HETATM    4  C4          0      14.204  56.230  -9.413  1.00  0.00     0.103 C 
HETATM    5  O13         0      13.229  56.965  -8.908  1.00  0.00    -0.307 OA
HETATM    6  C14         0      12.003  56.508  -8.778  1.00  0.00     0.107 C 
HETATM    7  C15         0      11.093  57.093  -7.910  1.00  0.00     0.049 C 
HETATM    8  C16         0       9.897  56.463  -7.586  1.00  0.00     0.093 C 
HETATM    9  C18         0       9.439  55.553  -8.530  1.00  0.00     0.048 C 
HETATM   10  C19         0      10.314  54.983  -9.444  1.00  0.00     0.096 C 
HETATM   11  C21         0      11.637  55.333  -9.426  1.00  0.00     0.084 C 
ENDROOT
BRANCH  10  12
HETATM   12  O20         0       9.964  53.791 -10.070  1.00  0.00    -0.359 OA
HETATM   13  H20         0       9.052  53.527 -10.046  1.00  0.00     0.218 HD
ENDBRANCH  10  12
BRANCH   4  14
HETATM   14  C5          0      15.577  56.478  -8.969  1.00  0.00     0.025 C 
HETATM   15  C6          0      16.541  57.047  -9.788  1.00  0.00     0.004 C 
HETATM   16  C7          0      17.432  57.944  -9.208  1.00  0.00     0.026 C 
HETATM   17  C8          0      17.452  58.167  -7.836  1.00  0.00     0.112 C 
HETATM   18  C10         0      16.928  57.133  -7.072  1.00  0.00     0.112 C 
HETATM   19  C12         0      15.976  56.302  -7.650  1.00  0.00     0.028 C 
BRANCH  17  20
HETATM   20  O9          0      17.776  59.412  -7.325  1.00  0.00    -0.357 OA
HETATM   21  H9          0      18.623  59.626  -6.952  1.00  0.00     0.218 HD
ENDBRANCH  17  20
BRANCH  18  22
HETATM   22  O11         0      17.095  57.220  -5.697  1.00  0.00    -0.357 OA
HETATM   23  H11         0      16.701  56.533  -5.172  1.00  0.00     0.218 HD
ENDBRANCH  18  22
ENDBRANCH   4  14
BRANCH   8  24
HETATM   24  O17         0       9.388  56.491  -6.283  1.00  0.00    -0.359 OA
HETATM   25  H17         0       9.578  57.207  -5.688  1.00  0.00     0.218 HD
ENDBRANCH   8  24
TORSDOF 5
ENDMDL
MODEL 8
REMARK VINA RESULT:      -3.2      2.380      3.873
REMARK  5 active torsions:
REMARK  status: ('A' for Active; 'I' for Inactive)
REMARK    1  A    between atoms: C4_4  and  C5_5 
REMARK    2  A    between atoms: C8_8  and  O9_9 
REMARK    3  A    between atoms: C10_11  and  O11_12 
REMARK    4  A    between atoms: C16_18  and  O17_19 
REMARK    5  A    between atoms: C19_22  and  O20_23 
ROOT
HETATM    1  O1          0      15.303  57.979   0.154  1.00  0.00    -0.286 OA
HETATM    2  C2          0      16.282  58.699  -0.187  1.00  0.00     0.201 C 
HETATM    3  C3          0      16.605  58.946  -1.511  1.00  0.00     0.067 C 
HETATM    4  C4          0      17.747  59.657  -1.861  1.00  0.00     0.103 C 
HETATM    5  O13         0      18.525  60.121  -0.900  1.00  0.00    -0.307 OA
HETATM    6  C14         0      18.285  59.883   0.371  1.00  0.00     0.107 C 
HETATM    7  C15         0      19.272  60.007   1.338  1.00  0.00     0.049 C 
HETATM    8  C16         0      19.089  59.514   2.624  1.00  0.00     0.093 C 
HETATM    9  C18         0      17.764  59.400   3.025  1.00  0.00     0.048 C 
HETATM   10  C19         0      16.746  59.320   2.084  1.00  0.00     0.096 C 
HETATM   11  C21         0      17.049  59.372   0.751  1.00  0.00     0.084 C 
ENDROOT
BRANCH  10  12
HETATM   12  O20         0      15.518  58.780   2.454  1.00  0.00    -0.359 OA
HETATM   13  H20         0      14.791  59.376   2.586  1.00  0.00     0.218 HD
ENDBRANCH  10  12
BRANCH   4  14
HETATM   14  C5          0      18.336  59.374  -3.171  1.00  0.00     0.025 C 
HETATM   15  C6          0      19.328  58.422  -3.359  1.00  0.00     0.004 C 
HETATM   16  C7          0      19.273  57.656  -4.519  1.00  0.00     0.026 C 
HETATM   17  C8          0      18.345  57.915  -5.522  1.00  0.00     0.112 C 
HETATM   18  C10         0      17.856  59.215  -5.537  1.00  0.00     0.112 C 
HETATM   19  C12         0      17.844  59.929  -4.345  1.00  0.00     0.028 C 
BRANCH  17  20
HETATM   20  O9          0      17.819  56.888  -6.285  1.00  0.00    -0.357 OA
HETATM   21  H9          0      17.817  55.977  -6.013  1.00  0.00     0.218 HD
ENDBRANCH  17  20
BRANCH  18  22
HETATM   22  O11         0      17.076  59.580  -6.625  1.00  0.00    -0.357 OA
HETATM   23  H11         0      17.521  59.684  -7.458  1.00  0.00     0.218 HD
ENDBRANCH  18  22
ENDBRANCH   4  14
BRANCH   8  24
HETATM   24  O17         0      20.125  58.875   3.315  1.00  0.00    -0.359 OA
HETATM   25  H17         0      20.149  57.931   3.416  1.00  0.00     0.218 HD
ENDBRANCH   8  24
TORSDOF 5
ENDMDL
MODEL 9
REMARK VINA RESULT:      -3.2      5.388      6.999
REMARK  5 active torsions:
REMARK  status: ('A' for Active; 'I' for Inactive)
REMARK    1  A    between atoms: C4_4  and  C5_5 
REMARK    2  A    between atoms: C8_8  and  O9_9 
REMARK    3  A    between atoms: C10_11  and  O11_12 
REMARK    4  A    between atoms: C16_18  and  O17_19 
REMARK    5  A    between atoms: C19_22  and  O20_23 
ROOT
HETATM    1  O1          0      11.943  57.007 -10.098  1.00  0.00    -0.286 OA
HETATM    2  C2          0      12.815  56.553  -9.307  1.00  0.00     0.201 C 
HETATM    3  C3          0      14.126  56.996  -9.301  1.00  0.00     0.067 C 
HETATM    4  C4          0      15.090  56.407  -8.491  1.00  0.00     0.103 C 
HETATM    5  O13         0      14.731  55.415  -7.696  1.00  0.00    -0.307 OA
HETATM    6  C14         0      13.508  54.931  -7.690  1.00  0.00     0.107 C 
HETATM    7  C15         0      13.223  53.672  -7.182  1.00  0.00     0.049 C 
HETATM    8  C16         0      11.992  53.066  -7.406  1.00  0.00     0.093 C 
HETATM    9  C18         0      10.945  53.941  -7.666  1.00  0.00     0.048 C 
HETATM   10  C19         0      11.197  55.225  -8.131  1.00  0.00     0.096 C 
HETATM   11  C21         0      12.488  55.637  -8.319  1.00  0.00     0.084 C 
ENDROOT
BRANCH  10  12
HETATM   12  O20         0      10.188  55.920  -8.789  1.00  0.00    -0.359 OA
HETATM   13  H20         0       9.767  55.500  -9.529  1.00  0.00     0.218 HD
ENDBRANCH  10  12
BRANCH   4  14
HETATM   14  C5          0      16.481  56.480  -8.943  1.00  0.00     0.025 C 
HETATM   15  C6          0      17.046  57.640  -9.453  1.00  0.00     0.004 C 
HETATM   16  C7          0      18.366  57.917  -9.114  1.00  0.00     0.026 C 
HETATM   17  C8          0      19.143  57.008  -8.404  1.00  0.00     0.112 C 
HETATM   18  C10         0      18.724  55.688  -8.500  1.00  0.00     0.112 C 
HETATM   19  C12         0      17.380  55.439  -8.755  1.00  0.00     0.028 C 
BRANCH  17  20
HETATM   20  O9          0      20.113  57.443  -7.519  1.00  0.00    -0.357 OA
HETATM   21  H9          0      20.641  56.860  -6.986  1.00  0.00     0.218 HD
ENDBRANCH  17  20
BRANCH  18  22
HETATM   22  O11         0      19.566  54.720  -7.970  1.00  0.00    -0.357 OA
HETATM   23  H11         0      20.223  54.357  -8.553  1.00  0.00     0.218 HD
ENDBRANCH  18  22
ENDBRANCH   4  14
BRANCH   8  24
HETATM   24  O17         0      11.894  51.697  -7.682  1.00  0.00    -0.359 OA
HETATM   25  H17         0      12.662  51.142  -7.735  1.00  0.00     0.218 HD
ENDBRANCH   8  24
TORSDOF 5
ENDMDL
