MODEL 1
REMARK VINA RESULT:      -4.2      0.000      0.000
REMARK  5 active torsions:
REMARK  status: ('A' for Active; 'I' for Inactive)
REMARK    1  A    between atoms: C4_4  and  C5_5 
REMARK    2  A    between atoms: C8_8  and  O9_9 
REMARK    3  A    between atoms: C10_11  and  O11_12 
REMARK    4  A    between atoms: C16_18  and  O17_19 
REMARK    5  A    between atoms: C19_22  and  O20_23 
ROOT
HETATM    1  O1          0      65.407  73.313 -35.426  1.00  0.00    -0.286 OA
HETATM    2  C2          0      64.343  73.722 -35.967  1.00  0.00     0.201 C 
HETATM    3  C3          0      64.335  74.531 -37.090  1.00  0.00     0.067 C 
HETATM    4  C4          0      63.153  75.052 -37.605  1.00  0.00     0.103 C 
HETATM    5  O13         0      62.013  74.744 -37.012  1.00  0.00    -0.307 OA
HETATM    6  C14         0      61.967  74.010 -35.922  1.00  0.00     0.107 C 
HETATM    7  C15         0      60.862  74.014 -35.084  1.00  0.00     0.049 C 
HETATM    8  C16         0      60.914  73.446 -33.817  1.00  0.00     0.093 C 
HETATM    9  C18         0      61.878  72.458 -33.656  1.00  0.00     0.048 C 
HETATM   10  C19         0      62.974  72.396 -34.506  1.00  0.00     0.096 C 
HETATM   11  C21         0      63.098  73.306 -35.521  1.00  0.00     0.084 C 
ENDROOT
BRANCH  10  12
HETATM   12  O20         0      64.117  71.719 -34.095  1.00  0.00    -0.359 OA
HETATM   13  H20         0      64.955  72.155 -34.197  1.00  0.00     0.218 HD
ENDBRANCH  10  12
BRANCH   4  14
HETATM   14  C5          0      63.243  76.309 -38.350  1.00  0.00     0.025 C 
HETATM   15  C6          0      62.285  76.707 -39.271  1.00  0.00     0.004 C 
HETATM   16  C7          0      61.958  78.059 -39.316  1.00  0.00     0.026 C 
HETATM   17  C8          0      62.653  79.003 -38.569  1.00  0.00     0.112 C 
HETATM   18  C10         0      63.937  78.622 -38.203  1.00  0.00     0.112 C 
HETATM   19  C12         0      64.214  77.265 -38.082  1.00  0.00     0.028 C 
BRANCH  17  20
HETATM   20  O9          0      62.013  80.124 -38.070  1.00  0.00    -0.357 OA
HETATM   21  H9          0      61.846  80.908 -38.581  1.00  0.00     0.218 HD
ENDBRANCH  17  20
BRANCH  18  22
HETATM   22  O11         0      64.740  79.593 -37.622  1.00  0.00    -0.357 OA
HETATM   23  H11         0      64.383  80.473 -37.573  1.00  0.00     0.218 HD
ENDBRANCH  18  22
ENDBRANCH   4  14
BRANCH   8  24
HETATM   24  O17         0      60.291  74.051 -32.720  1.00  0.00    -0.359 OA
HETATM   25  H17         0      60.724  74.726 -32.210  1.00  0.00     0.218 HD
ENDBRANCH   8  24
TORSDOF 5
ENDMDL
MODEL 2
REMARK VINA RESULT:      -4.2      2.285      2.724
REMARK  5 active torsions:
REMARK  status: ('A' for Active; 'I' for Inactive)
REMARK    1  A    between atoms: C4_4  and  C5_5 
REMARK    2  A    between atoms: C8_8  and  O9_9 
REMARK    3  A    between atoms: C10_11  and  O11_12 
REMARK    4  A    between atoms: C16_18  and  O17_19 
REMARK    5  A    between atoms: C19_22  and  O20_23 
ROOT
HETATM    1  O1          0      60.837  71.083 -36.773  1.00  0.00    -0.286 OA
HETATM    2  C2          0      60.618  72.271 -36.408  1.00  0.00     0.201 C 
HETATM    3  C3          0      60.460  73.314 -37.304  1.00  0.00     0.067 C 
HETATM    4  C4          0      60.322  74.629 -36.874  1.00  0.00     0.103 C 
HETATM    5  O13         0      60.322  74.876 -35.576  1.00  0.00    -0.307 OA
HETATM    6  C14         0      60.505  73.927 -34.684  1.00  0.00     0.107 C 
HETATM    7  C15         0      60.901  74.211 -33.385  1.00  0.00     0.049 C 
HETATM    8  C16         0      61.337  73.209 -32.528  1.00  0.00     0.093 C 
HETATM    9  C18         0      60.865  71.936 -32.825  1.00  0.00     0.048 C 
HETATM   10  C19         0      60.417  71.630 -34.103  1.00  0.00     0.096 C 
HETATM   11  C21         0      60.424  72.595 -35.074  1.00  0.00     0.084 C 
ENDROOT
BRANCH  10  12
HETATM   12  O20         0      60.366  70.299 -34.506  1.00  0.00    -0.359 OA
HETATM   13  H20         0      60.059  70.112 -35.385  1.00  0.00     0.218 HD
ENDBRANCH  10  12
BRANCH   4  14
HETATM   14  C5          0      60.759  75.683 -37.792  1.00  0.00     0.025 C 
HETATM   15  C6          0      59.875  76.559 -38.406  1.00  0.00     0.004 C 
HETATM   16  C7          0      60.276  77.883 -38.551  1.00  0.00     0.026 C 
HETATM   17  C8          0      61.561  78.296 -38.220  1.00  0.00     0.112 C 
HETATM   18  C10         0      62.516  77.288 -38.231  1.00  0.00     0.112 C 
HETATM   19  C12         0      62.099  75.982 -37.998  1.00  0.00     0.028 C 
BRANCH  17  20
HETATM   20  O9          0      61.791  79.566 -37.720  1.00  0.00    -0.357 OA
HETATM   21  H9          0      62.622  80.021 -37.795  1.00  0.00     0.218 HD
ENDBRANCH  17  20
BRANCH  18  22
HETATM   22  O11         0      63.841  77.675 -38.094  1.00  0.00    -0.357 OA
HETATM   23  H11         0      64.268  78.028 -38.866  1.00  0.00     0.218 HD
ENDBRANCH  18  22
ENDBRANCH   4  14
BRANCH   8  24
HETATM   24  O17         0      62.417  73.409 -31.661  1.00  0.00    -0.359 OA
HETATM   25  H17         0      62.819  74.263 -31.554  1.00  0.00     0.218 HD
ENDBRANCH   8  24
TORSDOF 5
ENDMDL
MODEL 3
REMARK VINA RESULT:      -4.1      6.536      9.292
REMARK  5 active torsions:
REMARK  status: ('A' for Active; 'I' for Inactive)
REMARK    1  A    between atoms: C4_4  and  C5_5 
REMARK    2  A    between atoms: C8_8  and  O9_9 
REMARK    3  A    between atoms: C10_11  and  O11_12 
REMARK    4  A    between atoms: C16_18  and  O17_19 
REMARK    5  A    between atoms: C19_22  and  O20_23 
ROOT
HETATM    1  O1          0      65.699  73.837 -32.643  1.00  0.00    -0.286 OA
HETATM    2  C2          0      65.683  73.999 -31.392  1.00  0.00     0.201 C 
HETATM    3  C3          0      64.932  73.205 -30.541  1.00  0.00     0.067 C 
HETATM    4  C4          0      64.853  73.470 -29.179  1.00  0.00     0.103 C 
HETATM    5  O13         0      65.529  74.494 -28.690  1.00  0.00    -0.307 OA
HETATM    6  C14         0      66.227  75.302 -29.459  1.00  0.00     0.107 C 
HETATM    7  C15         0      66.597  76.571 -29.040  1.00  0.00     0.049 C 
HETATM    8  C16         0      67.105  77.507 -29.933  1.00  0.00     0.093 C 
HETATM    9  C18         0      67.701  76.971 -31.068  1.00  0.00     0.048 C 
HETATM   10  C19         0      67.389  75.686 -31.490  1.00  0.00     0.096 C 
HETATM   11  C21         0      66.498  74.934 -30.772  1.00  0.00     0.084 C 
ENDROOT
BRANCH  10  12
HETATM   12  O20         0      67.630  75.326 -32.812  1.00  0.00    -0.359 OA
HETATM   13  H20         0      67.468  75.974 -33.486  1.00  0.00     0.218 HD
ENDBRANCH  10  12
BRANCH   4  14
HETATM   14  C5          0      63.646  73.025 -28.479  1.00  0.00     0.025 C 
HETATM   15  C6          0      63.506  73.095 -27.101  1.00  0.00     0.004 C 
HETATM   16  C7          0      62.257  73.445 -26.597  1.00  0.00     0.026 C 
HETATM   17  C8          0      61.150  73.589 -27.426  1.00  0.00     0.112 C 
HETATM   18  C10         0      61.234  72.901 -28.630  1.00  0.00     0.112 C 
HETATM   19  C12         0      62.494  72.639 -29.154  1.00  0.00     0.028 C 
BRANCH  17  20
HETATM   20  O9          0      60.164  74.515 -27.138  1.00  0.00    -0.357 OA
HETATM   21  H9          0      59.278  74.467 -27.478  1.00  0.00     0.218 HD
ENDBRANCH  17  20
BRANCH  18  22
HETATM   22  O11         0      60.086  72.855 -29.408  1.00  0.00    -0.357 OA
HETATM   23  H11         0      60.172  73.123 -30.316  1.00  0.00     0.218 HD
ENDBRANCH  18  22
ENDBRANCH   4  14
BRANCH   8  24
HETATM   24  O17         0      66.743  78.856 -29.859  1.00  0.00    -0.359 OA
HETATM   25  H17         0      67.220  79.527 -30.333  1.00  0.00     0.218 HD
ENDBRANCH   8  24
TORSDOF 5
ENDMDL
MODEL 4
REMARK VINA RESULT:      -4.0      3.601      5.861
REMARK  5 active torsions:
REMARK  status: ('A' for Active; 'I' for Inactive)
REMARK    1  A    between atoms: C4_4  and  C5_5 
REMARK    2  A    between atoms: C8_8  and  O9_9 
REMARK    3  A    between atoms: C10_11  and  O11_12 
REMARK    4  A    between atoms: C16_18  and  O17_19 
REMARK    5  A    between atoms: C19_22  and  O20_23 
ROOT
HETATM    1  O1          0      64.795  74.387 -30.581  1.00  0.00    -0.286 OA
HETATM    2  C2          0      63.802  73.654 -30.843  1.00  0.00     0.201 C 
HETATM    3  C3          0      63.502  73.228 -32.125  1.00  0.00     0.067 C 
HETATM    4  C4          0      62.345  72.508 -32.402  1.00  0.00     0.103 C 
HETATM    5  O13         0      61.530  72.210 -31.406  1.00  0.00    -0.307 OA
HETATM    6  C14         0      61.748  72.622 -30.176  1.00  0.00     0.107 C 
HETATM    7  C15         0      60.735  72.667 -29.229  1.00  0.00     0.049 C 
HETATM    8  C16         0      60.905  73.334 -28.022  1.00  0.00     0.093 C 
HETATM    9  C18         0      62.224  73.466 -27.605  1.00  0.00     0.048 C 
HETATM   10  C19         0      63.265  73.380 -28.519  1.00  0.00     0.096 C 
HETATM   11  C21         0      62.992  73.146 -29.839  1.00  0.00     0.084 C 
ENDROOT
BRANCH  10  12
HETATM   12  O20         0      64.501  73.932 -28.197  1.00  0.00    -0.359 OA
HETATM   13  H20         0      65.103  74.121 -28.906  1.00  0.00     0.218 HD
ENDBRANCH  10  12
BRANCH   4  14
HETATM   14  C5          0      61.795  72.616 -33.754  1.00  0.00     0.025 C 
HETATM   15  C6          0      60.449  72.438 -34.035  1.00  0.00     0.004 C 
HETATM   16  C7          0      59.875  73.265 -34.995  1.00  0.00     0.026 C 
HETATM   17  C8          0      60.642  74.149 -35.748  1.00  0.00     0.112 C 
HETATM   18  C10         0      61.984  73.810 -35.850  1.00  0.00     0.112 C 
HETATM   19  C12         0      62.553  73.053 -34.833  1.00  0.00     0.028 C 
BRANCH  17  20
HETATM   20  O9          0      60.122  75.362 -36.164  1.00  0.00    -0.357 OA
HETATM   21  H9          0      59.201  75.506 -36.348  1.00  0.00     0.218 HD
ENDBRANCH  17  20
BRANCH  18  22
HETATM   22  O11         0      62.753  74.547 -36.740  1.00  0.00    -0.357 OA
HETATM   23  H11         0      63.549  74.937 -36.399  1.00  0.00     0.218 HD
ENDBRANCH  18  22
ENDBRANCH   4  14
BRANCH   8  24
HETATM   24  O17         0      59.875  74.096 -27.459  1.00  0.00    -0.359 OA
HETATM   25  H17         0      59.901  74.377 -26.552  1.00  0.00     0.218 HD
ENDBRANCH   8  24
TORSDOF 5
ENDMDL
MODEL 5
REMARK VINA RESULT:      -3.9      5.408      6.997
REMARK  5 active torsions:
REMARK  status: ('A' for Active; 'I' for Inactive)
REMARK    1  A    between atoms: C4_4  and  C5_5 
REMARK    2  A    between atoms: C8_8  and  O9_9 
REMARK    3  A    between atoms: C10_11  and  O11_12 
REMARK    4  A    between atoms: C16_18  and  O17_19 
REMARK    5  A    between atoms: C19_22  and  O20_23 
ROOT
HETATM    1  O1          0      63.288  73.550 -27.790  1.00  0.00    -0.286 OA
HETATM    2  C2          0      63.848  73.531 -28.920  1.00  0.00     0.201 C 
HETATM    3  C3          0      65.165  73.914 -29.112  1.00  0.00     0.067 C 
HETATM    4  C4          0      65.725  73.982 -30.383  1.00  0.00     0.103 C 
HETATM    5  O13         0      64.981  73.653 -31.424  1.00  0.00    -0.307 OA
HETATM    6  C14         0      63.715  73.319 -31.300  1.00  0.00     0.107 C 
HETATM    7  C15         0      62.840  73.364 -32.376  1.00  0.00     0.049 C 
HETATM    8  C16         0      61.466  73.260 -32.192  1.00  0.00     0.093 C 
HETATM    9  C18         0      61.077  72.600 -31.033  1.00  0.00     0.048 C 
HETATM   10  C19         0      61.945  72.496 -29.955  1.00  0.00     0.096 C 
HETATM   11  C21         0      63.201  73.033 -30.041  1.00  0.00     0.084 C 
ENDROOT
BRANCH  10  12
HETATM   12  O20         0      61.430  72.240 -28.688  1.00  0.00    -0.359 OA
HETATM   13  H20         0      62.042  72.153 -27.968  1.00  0.00     0.218 HD
ENDBRANCH  10  12
BRANCH   4  14
HETATM   14  C5          0      66.833  74.921 -30.576  1.00  0.00     0.025 C 
HETATM   15  C6          0      67.878  74.679 -31.455  1.00  0.00     0.004 C 
HETATM   16  C7          0      68.376  75.759 -32.178  1.00  0.00     0.026 C 
HETATM   17  C8          0      67.942  77.058 -31.939  1.00  0.00     0.112 C 
HETATM   18  C10         0      67.410  77.268 -30.673  1.00  0.00     0.112 C 
HETATM   19  C12         0      66.842  76.188 -30.008  1.00  0.00     0.028 C 
BRANCH  17  20
HETATM   20  O9          0      67.865  77.980 -32.967  1.00  0.00    -0.357 OA
HETATM   21  H9          0      67.286  77.890 -33.715  1.00  0.00     0.218 HD
ENDBRANCH  17  20
BRANCH  18  22
HETATM   22  O11         0      67.137  78.581 -30.316  1.00  0.00    -0.357 OA
HETATM   23  H11         0      67.872  79.184 -30.302  1.00  0.00     0.218 HD
ENDBRANCH  18  22
ENDBRANCH   4  14
BRANCH   8  24
HETATM   24  O17         0      60.571  74.044 -32.928  1.00  0.00    -0.359 OA
HETATM   25  H17         0      60.572  74.045 -33.878  1.00  0.00     0.218 HD
ENDBRANCH   8  24
TORSDOF 5
ENDMDL
MODEL 6
REMARK VINA RESULT:      -3.8      4.675      7.580
REMARK  5 active torsions:
REMARK  status: ('A' for Active; 'I' for Inactive)
REMARK    1  A    between atoms: C4_4  and  C5_5 
REMARK    2  A    between atoms: C8_8  and  O9_9 
REMARK    3  A    between atoms: C10_11  and  O11_12 
REMARK    4  A    between atoms: C16_18  and  O17_19 
REMARK    5  A    between atoms: C19_22  and  O20_23 
ROOT
HETATM    1  O1          0      64.630  73.664 -29.116  1.00  0.00    -0.286 OA
HETATM    2  C2          0      63.456  73.261 -29.340  1.00  0.00     0.201 C 
HETATM    3  C3          0      63.035  72.833 -30.587  1.00  0.00     0.067 C 
HETATM    4  C4          0      61.709  72.491 -30.831  1.00  0.00     0.103 C 
HETATM    5  O13         0      60.843  72.560 -29.836  1.00  0.00    -0.307 OA
HETATM    6  C14         0      61.182  72.995 -28.642  1.00  0.00     0.107 C 
HETATM    7  C15         0      60.237  73.445 -27.732  1.00  0.00     0.049 C 
HETATM    8  C16         0      60.610  74.135 -26.585  1.00  0.00     0.093 C 
HETATM    9  C18         0      61.904  73.884 -26.144  1.00  0.00     0.048 C 
HETATM   10  C19         0      62.863  73.389 -27.017  1.00  0.00     0.096 C 
HETATM   11  C21         0      62.528  73.130 -28.318  1.00  0.00     0.084 C 
ENDROOT
BRANCH  10  12
HETATM   12  O20         0      64.211  73.551 -26.710  1.00  0.00    -0.359 OA
HETATM   13  H20         0      64.849  73.138 -27.279  1.00  0.00     0.218 HD
ENDBRANCH  10  12
BRANCH   4  14
HETATM   14  C5          0      61.220  72.640 -32.203  1.00  0.00     0.025 C 
HETATM   15  C6          0      61.362  73.814 -32.928  1.00  0.00     0.004 C 
HETATM   16  C7          0      61.650  73.703 -34.285  1.00  0.00     0.026 C 
HETATM   17  C8          0      61.664  72.470 -34.929  1.00  0.00     0.112 C 
HETATM   18  C10         0      60.915  71.481 -34.305  1.00  0.00     0.112 C 
HETATM   19  C12         0      60.714  71.572 -32.933  1.00  0.00     0.028 C 
BRANCH  17  20
HETATM   20  O9          0      62.533  72.229 -35.978  1.00  0.00    -0.357 OA
HETATM   21  H9          0      63.220  72.829 -36.243  1.00  0.00     0.218 HD
ENDBRANCH  17  20
BRANCH  18  22
HETATM   22  O11         0      60.741  70.293 -34.999  1.00  0.00    -0.357 OA
HETATM   23  H11         0      60.723  69.493 -34.486  1.00  0.00     0.218 HD
ENDBRANCH  18  22
ENDBRANCH   4  14
BRANCH   8  24
HETATM   24  O17         0      59.875  75.232 -26.122  1.00  0.00    -0.359 OA
HETATM   25  H17         0      58.926  75.217 -26.085  1.00  0.00     0.218 HD
ENDBRANCH   8  24
TORSDOF 5
ENDMDL
MODEL 7
REMARK VINA RESULT:      -3.8      6.088      7.429
REMARK  5 active torsions:
REMARK  status: ('A' for Active; 'I' for Inactive)
REMARK    1  A    between atoms: C4_4  and  C5_5 
REMARK    2  A    between atoms: C8_8  and  O9_9 
REMARK    3  A    between atoms: C10_11  and  O11_12 
REMARK    4  A    between atoms: C16_18  and  O17_19 
REMARK    5  A    between atoms: C19_22  and  O20_23 
ROOT
HETATM    1  O1          0      62.048  72.162 -32.105  1.00  0.00    -0.286 OA
HETATM    2  C2          0      62.495  72.831 -31.133  1.00  0.00     0.201 C 
HETATM    3  C3          0      63.511  73.762 -31.266  1.00  0.00     0.067 C 
HETATM    4  C4          0      64.055  74.410 -30.163  1.00  0.00     0.103 C 
HETATM    5  O13         0      63.568  74.140 -28.964  1.00  0.00    -0.307 OA
HETATM    6  C14         0      62.630  73.238 -28.778  1.00  0.00     0.107 C 
HETATM    7  C15         0      62.401  72.667 -27.535  1.00  0.00     0.049 C 
HETATM    8  C16         0      61.594  71.544 -27.393  1.00  0.00     0.093 C 
HETATM    9  C18         0      60.652  71.368 -28.399  1.00  0.00     0.048 C 
HETATM   10  C19         0      60.826  71.964 -29.641  1.00  0.00     0.096 C 
HETATM   11  C21         0      61.926  72.744 -29.871  1.00  0.00     0.084 C 
ENDROOT
BRANCH  10  12
HETATM   12  O20         0      60.147  71.451 -30.742  1.00  0.00    -0.359 OA
HETATM   13  H20         0      60.388  70.586 -31.051  1.00  0.00     0.218 HD
ENDBRANCH  10  12
BRANCH   4  14
HETATM   14  C5          0      65.439  74.875 -30.273  1.00  0.00     0.025 C 
HETATM   15  C6          0      66.395  74.213 -31.030  1.00  0.00     0.004 C 
HETATM   16  C7          0      67.309  74.990 -31.734  1.00  0.00     0.026 C 
HETATM   17  C8          0      67.358  76.372 -31.588  1.00  0.00     0.112 C 
HETATM   18  C10         0      66.834  76.848 -30.393  1.00  0.00     0.112 C 
HETATM   19  C12         0      65.859  76.092 -29.753  1.00  0.00     0.028 C 
BRANCH  17  20
HETATM   20  O9          0      67.708  77.186 -32.651  1.00  0.00    -0.357 OA
HETATM   21  H9          0      68.305  77.922 -32.579  1.00  0.00     0.218 HD
ENDBRANCH  17  20
BRANCH  18  22
HETATM   22  O11         0      67.027  78.193 -30.113  1.00  0.00    -0.357 OA
HETATM   23  H11         0      67.916  78.522 -30.178  1.00  0.00     0.218 HD
ENDBRANCH  18  22
ENDBRANCH   4  14
BRANCH   8  24
HETATM   24  O17         0      61.929  70.512 -26.510  1.00  0.00    -0.359 OA
HETATM   25  H17         0      62.085  70.675 -25.588  1.00  0.00     0.218 HD
ENDBRANCH   8  24
TORSDOF 5
ENDMDL
MODEL 8
REMARK VINA RESULT:      -3.6      4.073      6.252
REMARK  5 active torsions:
REMARK  status: ('A' for Active; 'I' for Inactive)
REMARK    1  A    between atoms: C4_4  and  C5_5 
REMARK    2  A    between atoms: C8_8  and  O9_9 
REMARK    3  A    between atoms: C10_11  and  O11_12 
REMARK    4  A    between atoms: C16_18  and  O17_19 
REMARK    5  A    between atoms: C19_22  and  O20_23 
ROOT
HETATM    1  O1          0      61.355  70.874 -31.240  1.00  0.00    -0.286 OA
HETATM    2  C2          0      62.157  71.588 -31.902  1.00  0.00     0.201 C 
HETATM    3  C3          0      63.386  71.991 -31.408  1.00  0.00     0.067 C 
HETATM    4  C4          0      64.206  72.862 -32.117  1.00  0.00     0.103 C 
HETATM    5  O13         0      63.803  73.292 -33.300  1.00  0.00    -0.307 OA
HETATM    6  C14         0      62.630  72.969 -33.798  1.00  0.00     0.107 C 
HETATM    7  C15         0      62.039  73.708 -34.813  1.00  0.00     0.049 C 
HETATM    8  C16         0      60.705  73.523 -35.158  1.00  0.00     0.093 C 
HETATM    9  C18         0      60.186  72.272 -34.844  1.00  0.00     0.048 C 
HETATM   10  C19         0      60.781  71.487 -33.867  1.00  0.00     0.096 C 
HETATM   11  C21         0      61.897  71.940 -33.218  1.00  0.00     0.084 C 
ENDROOT
BRANCH  10  12
HETATM   12  O20         0      60.040  70.476 -33.262  1.00  0.00    -0.359 OA
HETATM   13  H20         0      59.928  70.509 -32.319  1.00  0.00     0.218 HD
ENDBRANCH  10  12
BRANCH   4  14
HETATM   14  C5          0      65.131  73.692 -31.343  1.00  0.00     0.025 C 
HETATM   15  C6          0      66.509  73.552 -31.417  1.00  0.00     0.004 C 
HETATM   16  C7          0      67.277  74.712 -31.377  1.00  0.00     0.026 C 
HETATM   17  C8          0      66.706  75.957 -31.135  1.00  0.00     0.112 C 
HETATM   18  C10         0      65.491  75.917 -30.464  1.00  0.00     0.112 C 
HETATM   19  C12         0      64.704  74.779 -30.591  1.00  0.00     0.028 C 
BRANCH  17  20
HETATM   20  O9          0      67.226  77.100 -31.716  1.00  0.00    -0.357 OA
HETATM   21  H9          0      67.418  77.180 -32.643  1.00  0.00     0.218 HD
ENDBRANCH  17  20
BRANCH  18  22
HETATM   22  O11         0      64.972  77.129 -30.032  1.00  0.00    -0.357 OA
HETATM   23  H11         0      64.302  77.528 -30.575  1.00  0.00     0.218 HD
ENDBRANCH  18  22
ENDBRANCH   4  14
BRANCH   8  24
HETATM   24  O17         0      59.876  74.605 -35.474  1.00  0.00    -0.359 OA
HETATM   25  H17         0      58.973  74.481 -35.739  1.00  0.00     0.218 HD
ENDBRANCH   8  24
TORSDOF 5
ENDMDL
MODEL 9
REMARK VINA RESULT:      -3.6      5.763      6.601
REMARK  5 active torsions:
REMARK  status: ('A' for Active; 'I' for Inactive)
REMARK    1  A    between atoms: C4_4  and  C5_5 
REMARK    2  A    between atoms: C8_8  and  O9_9 
REMARK    3  A    between atoms: C10_11  and  O11_12 
REMARK    4  A    between atoms: C16_18  and  O17_19 
REMARK    5  A    between atoms: C19_22  and  O20_23 
ROOT
HETATM    1  O1          0      63.114  70.547 -33.517  1.00  0.00    -0.286 OA
HETATM    2  C2          0      62.919  71.485 -32.696  1.00  0.00     0.201 C 
HETATM    3  C3          0      63.814  72.526 -32.518  1.00  0.00     0.067 C 
HETATM    4  C4          0      63.624  73.491 -31.536  1.00  0.00     0.103 C 
HETATM    5  O13         0      62.549  73.415 -30.771  1.00  0.00    -0.307 OA
HETATM    6  C14         0      61.687  72.427 -30.873  1.00  0.00     0.107 C 
HETATM    7  C15         0      60.805  72.119 -29.848  1.00  0.00     0.049 C 
HETATM    8  C16         0      60.081  70.933 -29.851  1.00  0.00     0.093 C 
HETATM    9  C18         0      59.878  70.373 -31.107  1.00  0.00     0.048 C 
HETATM   10  C19         0      60.714  70.695 -32.167  1.00  0.00     0.096 C 
HETATM   11  C21         0      61.737  71.585 -31.978  1.00  0.00     0.084 C 
ENDROOT
BRANCH  10  12
HETATM   12  O20         0      60.789  69.837 -33.260  1.00  0.00    -0.359 OA
HETATM   13  H20         0      60.113  69.177 -33.354  1.00  0.00     0.218 HD
ENDBRANCH  10  12
BRANCH   4  14
HETATM   14  C5          0      64.818  74.155 -31.009  1.00  0.00     0.025 C 
HETATM   15  C6          0      66.103  73.830 -31.421  1.00  0.00     0.004 C 
HETATM   16  C7          0      67.015  74.869 -31.566  1.00  0.00     0.026 C 
HETATM   17  C8          0      66.705  76.171 -31.187  1.00  0.00     0.112 C 
HETATM   18  C10         0      65.696  76.273 -30.238  1.00  0.00     0.112 C 
HETATM   19  C12         0      64.747  75.260 -30.172  1.00  0.00     0.028 C 
BRANCH  17  20
HETATM   20  O9          0      67.227  77.253 -31.874  1.00  0.00    -0.357 OA
HETATM   21  H9          0      67.060  78.158 -31.638  1.00  0.00     0.218 HD
ENDBRANCH  17  20
BRANCH  18  22
HETATM   22  O11         0      65.477  77.528 -29.687  1.00  0.00    -0.357 OA
HETATM   23  H11         0      64.698  77.991 -29.970  1.00  0.00     0.218 HD
ENDBRANCH  18  22
ENDBRANCH   4  14
BRANCH   8  24
HETATM   24  O17         0      59.876  70.200 -28.677  1.00  0.00    -0.359 OA
HETATM   25  H17         0      60.180  70.514 -27.833  1.00  0.00     0.218 HD
ENDBRANCH   8  24
TORSDOF 5
ENDMDL
