MODEL 1
REMARK VINA RESULT:      -5.3      0.000      0.000
REMARK  5 active torsions:
REMARK  status: ('A' for Active; 'I' for Inactive)
REMARK    1  A    between atoms: C4_4  and  C5_5 
REMARK    2  A    between atoms: C8_8  and  O9_9 
REMARK    3  A    between atoms: C10_11  and  O11_12 
REMARK    4  A    between atoms: C16_18  and  O17_19 
REMARK    5  A    between atoms: C19_22  and  O20_23 
ROOT
HETATM    1  O1          0      26.169 111.291  13.039  1.00  0.00    -0.286 OA
HETATM    2  C2          0      25.542 112.383  12.964  1.00  0.00     0.201 C 
HETATM    3  C3          0      24.249 112.474  12.478  1.00  0.00     0.067 C 
HETATM    4  C4          0      23.618 113.702  12.311  1.00  0.00     0.103 C 
HETATM    5  O13         0      24.270 114.801  12.646  1.00  0.00    -0.307 OA
HETATM    6  C14         0      25.512 114.774  13.076  1.00  0.00     0.107 C 
HETATM    7  C15         0      26.321 115.900  13.046  1.00  0.00     0.049 C 
HETATM    8  C16         0      27.692 115.810  13.259  1.00  0.00     0.093 C 
HETATM    9  C18         0      28.100 114.707  13.998  1.00  0.00     0.048 C 
HETATM   10  C19         0      27.294 113.580  14.088  1.00  0.00     0.096 C 
HETATM   11  C21         0      26.079 113.562  13.457  1.00  0.00     0.084 C 
ENDROOT
BRANCH  10  12
HETATM   12  O20         0      27.865 112.361  14.438  1.00  0.00    -0.359 OA
HETATM   13  H20         0      28.067 111.748  13.742  1.00  0.00     0.218 HD
ENDBRANCH  10  12
BRANCH   4  14
HETATM   14  C5          0      22.576 113.785  11.286  1.00  0.00     0.025 C 
HETATM   15  C6          0      22.453 112.858  10.262  1.00  0.00     0.004 C 
HETATM   16  C7          0      21.168 112.489   9.876  1.00  0.00     0.026 C 
HETATM   17  C8          0      20.042 113.118  10.397  1.00  0.00     0.112 C 
HETATM   18  C10         0      20.268 114.396  10.892  1.00  0.00     0.112 C 
HETATM   19  C12         0      21.542 114.711  11.349  1.00  0.00     0.028 C 
BRANCH  17  20
HETATM   20  O9          0      18.862 112.420  10.584  1.00  0.00    -0.357 OA
HETATM   21  H9          0      18.325 112.491  11.364  1.00  0.00     0.218 HD
ENDBRANCH  17  20
BRANCH  18  22
HETATM   22  O11         0      19.151 115.139  11.247  1.00  0.00    -0.357 OA
HETATM   23  H11         0      18.705 114.888  12.048  1.00  0.00     0.218 HD
ENDBRANCH  18  22
ENDBRANCH   4  14
BRANCH   8  24
HETATM   24  O17         0      28.597 116.569  12.509  1.00  0.00    -0.359 OA
HETATM   25  H17         0      29.305 117.051  12.920  1.00  0.00     0.218 HD
ENDBRANCH   8  24
TORSDOF 5
ENDMDL
MODEL 2
REMARK VINA RESULT:      -5.2      3.426      6.657
REMARK  5 active torsions:
REMARK  status: ('A' for Active; 'I' for Inactive)
REMARK    1  A    between atoms: C4_4  and  C5_5 
REMARK    2  A    between atoms: C8_8  and  O9_9 
REMARK    3  A    between atoms: C10_11  and  O11_12 
REMARK    4  A    between atoms: C16_18  and  O17_19 
REMARK    5  A    between atoms: C19_22  and  O20_23 
ROOT
HETATM    1  O1          0      27.875 111.046  16.056  1.00  0.00    -0.286 OA
HETATM    2  C2          0      27.290 111.601  15.086  1.00  0.00     0.201 C 
HETATM    3  C3          0      27.624 112.866  14.632  1.00  0.00     0.067 C 
HETATM    4  C4          0      26.896 113.495  13.629  1.00  0.00     0.103 C 
HETATM    5  O13         0      25.874 112.855  13.088  1.00  0.00    -0.307 OA
HETATM    6  C14         0      25.491 111.669  13.508  1.00  0.00     0.107 C 
HETATM    7  C15         0      24.222 111.175  13.244  1.00  0.00     0.049 C 
HETATM    8  C16         0      23.736 110.048  13.896  1.00  0.00     0.093 C 
HETATM    9  C18         0      24.711 109.181  14.375  1.00  0.00     0.048 C 
HETATM   10  C19         0      26.004 109.631  14.606  1.00  0.00     0.096 C 
HETATM   11  C21         0      26.326 110.935  14.345  1.00  0.00     0.084 C 
ENDROOT
BRANCH  10  12
HETATM   12  O20         0      26.830 108.916  15.468  1.00  0.00    -0.359 OA
HETATM   13  H20         0      27.545 108.419  15.089  1.00  0.00     0.218 HD
ENDBRANCH  10  12
BRANCH   4  14
HETATM   14  C5          0      26.894 114.959  13.621  1.00  0.00     0.025 C 
HETATM   15  C6          0      26.153 115.715  14.518  1.00  0.00     0.004 C 
HETATM   16  C7          0      26.730 116.882  15.009  1.00  0.00     0.026 C 
HETATM   17  C8          0      27.945 117.354  14.525  1.00  0.00     0.112 C 
HETATM   18  C10         0      28.272 116.913  13.250  1.00  0.00     0.112 C 
HETATM   19  C12         0      27.749 115.701  12.816  1.00  0.00     0.028 C 
BRANCH  17  20
HETATM   20  O9          0      28.824 118.029  15.354  1.00  0.00    -0.357 OA
HETATM   21  H9          0      28.658 118.896  15.705  1.00  0.00     0.218 HD
ENDBRANCH  17  20
BRANCH  18  22
HETATM   22  O11         0      29.375 117.500  12.646  1.00  0.00    -0.357 OA
HETATM   23  H11         0      29.589 118.387  12.910  1.00  0.00     0.218 HD
ENDBRANCH  18  22
ENDBRANCH   4  14
BRANCH   8  24
HETATM   24  O17         0      22.408 109.972  14.328  1.00  0.00    -0.359 OA
HETATM   25  H17         0      21.879 110.750  14.456  1.00  0.00     0.218 HD
ENDBRANCH   8  24
TORSDOF 5
ENDMDL
MODEL 3
REMARK VINA RESULT:      -5.2      2.075      6.352
REMARK  5 active torsions:
REMARK  status: ('A' for Active; 'I' for Inactive)
REMARK    1  A    between atoms: C4_4  and  C5_5 
REMARK    2  A    between atoms: C8_8  and  O9_9 
REMARK    3  A    between atoms: C10_11  and  O11_12 
REMARK    4  A    between atoms: C16_18  and  O17_19 
REMARK    5  A    between atoms: C19_22  and  O20_23 
ROOT
HETATM    1  O1          0      24.441 110.908  15.696  1.00  0.00    -0.286 OA
HETATM    2  C2          0      24.758 111.590  14.684  1.00  0.00     0.201 C 
HETATM    3  C3          0      25.710 112.595  14.723  1.00  0.00     0.067 C 
HETATM    4  C4          0      25.966 113.400  13.619  1.00  0.00     0.103 C 
HETATM    5  O13         0      25.294 113.179  12.503  1.00  0.00    -0.307 OA
HETATM    6  C14         0      24.354 112.263  12.423  1.00  0.00     0.107 C 
HETATM    7  C15         0      23.392 112.289  11.423  1.00  0.00     0.049 C 
HETATM    8  C16         0      22.263 111.481  11.487  1.00  0.00     0.093 C 
HETATM    9  C18         0      22.407 110.331  12.255  1.00  0.00     0.048 C 
HETATM   10  C19         0      23.390 110.254  13.232  1.00  0.00     0.096 C 
HETATM   11  C21         0      24.235 111.312  13.430  1.00  0.00     0.084 C 
ENDROOT
BRANCH  10  12
HETATM   12  O20         0      23.257 109.324  14.259  1.00  0.00    -0.359 OA
HETATM   13  H20         0      23.434 109.613  15.146  1.00  0.00     0.218 HD
ENDBRANCH  10  12
BRANCH   4  14
HETATM   14  C5          0      26.483 114.746  13.876  1.00  0.00     0.025 C 
HETATM   15  C6          0      27.525 114.995  14.757  1.00  0.00     0.004 C 
HETATM   16  C7          0      28.447 115.975  14.404  1.00  0.00     0.026 C 
HETATM   17  C8          0      28.267 116.774  13.279  1.00  0.00     0.112 C 
HETATM   18  C10         0      26.951 116.888  12.853  1.00  0.00     0.112 C 
HETATM   19  C12         0      26.070 115.853  13.147  1.00  0.00     0.028 C 
BRANCH  17  20
HETATM   20  O9          0      29.353 117.225  12.550  1.00  0.00    -0.357 OA
HETATM   21  H9          0      29.784 118.058  12.704  1.00  0.00     0.218 HD
ENDBRANCH  17  20
BRANCH  18  22
HETATM   22  O11         0      26.691 117.818  11.857  1.00  0.00    -0.357 OA
HETATM   23  H11         0      25.802 118.151  11.801  1.00  0.00     0.218 HD
ENDBRANCH  18  22
ENDBRANCH   4  14
BRANCH   8  24
HETATM   24  O17         0      21.005 111.954  11.099  1.00  0.00    -0.359 OA
HETATM   25  H17         0      20.797 112.132  10.190  1.00  0.00     0.218 HD
ENDBRANCH   8  24
TORSDOF 5
ENDMDL
MODEL 4
REMARK VINA RESULT:      -5.1      3.646      6.833
REMARK  5 active torsions:
REMARK  status: ('A' for Active; 'I' for Inactive)
REMARK    1  A    between atoms: C4_4  and  C5_5 
REMARK    2  A    between atoms: C8_8  and  O9_9 
REMARK    3  A    between atoms: C10_11  and  O11_12 
REMARK    4  A    between atoms: C16_18  and  O17_19 
REMARK    5  A    between atoms: C19_22  and  O20_23 
ROOT
HETATM    1  O1          0      24.176 114.505  13.672  1.00  0.00    -0.286 OA
HETATM    2  C2          0      25.367 114.107  13.794  1.00  0.00     0.201 C 
HETATM    3  C3          0      25.693 112.796  14.095  1.00  0.00     0.067 C 
HETATM    4  C4          0      27.008 112.406  14.325  1.00  0.00     0.103 C 
HETATM    5  O13         0      27.964 113.313  14.231  1.00  0.00    -0.307 OA
HETATM    6  C14         0      27.706 114.579  13.984  1.00  0.00     0.107 C 
HETATM    7  C15         0      28.620 115.581  14.273  1.00  0.00     0.049 C 
HETATM    8  C16         0      28.252 116.921  14.252  1.00  0.00     0.093 C 
HETATM    9  C18         0      27.161 117.217  13.444  1.00  0.00     0.048 C 
HETATM   10  C19         0      26.252 116.227  13.096  1.00  0.00     0.096 C 
HETATM   11  C21         0      26.441 114.946  13.538  1.00  0.00     0.084 C 
ENDROOT
BRANCH  10  12
HETATM   12  O20         0      24.975 116.592  12.680  1.00  0.00    -0.359 OA
HETATM   13  H20         0      24.900 117.217  11.969  1.00  0.00     0.218 HD
ENDBRANCH  10  12
BRANCH   4  14
HETATM   14  C5          0      27.221 111.245  15.190  1.00  0.00     0.025 C 
HETATM   15  C6          0      27.035 109.940  14.757  1.00  0.00     0.004 C 
HETATM   16  C7          0      27.929 108.976  15.212  1.00  0.00     0.026 C 
HETATM   17  C8          0      28.894 109.270  16.170  1.00  0.00     0.112 C 
HETATM   18  C10         0      28.599 110.363  16.973  1.00  0.00     0.112 C 
HETATM   19  C12         0      27.770 111.354  16.462  1.00  0.00     0.028 C 
BRANCH  17  20
HETATM   20  O9          0      30.125 108.639  16.152  1.00  0.00    -0.357 OA
HETATM   21  H9          0      30.806 108.828  15.517  1.00  0.00     0.218 HD
ENDBRANCH  17  20
BRANCH  18  22
HETATM   22  O11         0      29.430 110.585  18.062  1.00  0.00    -0.357 OA
HETATM   23  H11         0      30.180 111.151  17.922  1.00  0.00     0.218 HD
ENDBRANCH  18  22
ENDBRANCH   4  14
BRANCH   8  24
HETATM   24  O17         0      28.721 117.822  15.215  1.00  0.00    -0.359 OA
HETATM   25  H17         0      28.331 118.681  15.327  1.00  0.00     0.218 HD
ENDBRANCH   8  24
TORSDOF 5
ENDMDL
MODEL 5
REMARK VINA RESULT:      -4.9      3.700      6.574
REMARK  5 active torsions:
REMARK  status: ('A' for Active; 'I' for Inactive)
REMARK    1  A    between atoms: C4_4  and  C5_5 
REMARK    2  A    between atoms: C8_8  and  O9_9 
REMARK    3  A    between atoms: C10_11  and  O11_12 
REMARK    4  A    between atoms: C16_18  and  O17_19 
REMARK    5  A    between atoms: C19_22  and  O20_23 
ROOT
HETATM    1  O1          0      24.131 110.617  13.053  1.00  0.00    -0.286 OA
HETATM    2  C2          0      25.030 111.209  13.711  1.00  0.00     0.201 C 
HETATM    3  C3          0      25.248 112.573  13.625  1.00  0.00     0.067 C 
HETATM    4  C4          0      26.311 113.184  14.281  1.00  0.00     0.103 C 
HETATM    5  O13         0      27.115 112.439  15.019  1.00  0.00    -0.307 OA
HETATM    6  C14         0      26.975 111.134  15.104  1.00  0.00     0.107 C 
HETATM    7  C15         0      28.011 110.314  15.527  1.00  0.00     0.049 C 
HETATM    8  C16         0      27.947 108.934  15.375  1.00  0.00     0.093 C 
HETATM    9  C18         0      26.662 108.411  15.297  1.00  0.00     0.048 C 
HETATM   10  C19         0      25.594 109.215  14.923  1.00  0.00     0.096 C 
HETATM   11  C21         0      25.806 110.537  14.644  1.00  0.00     0.084 C 
ENDROOT
BRANCH  10  12
HETATM   12  O20         0      24.435 108.622  14.432  1.00  0.00    -0.359 OA
HETATM   13  H20         0      23.890 108.138  15.041  1.00  0.00     0.218 HD
ENDBRANCH  10  12
BRANCH   4  14
HETATM   14  C5          0      26.834 114.423  13.701  1.00  0.00     0.025 C 
HETATM   15  C6          0      26.017 115.395  13.142  1.00  0.00     0.004 C 
HETATM   16  C7          0      26.360 116.726  13.356  1.00  0.00     0.026 C 
HETATM   17  C8          0      27.546 117.081  13.988  1.00  0.00     0.112 C 
HETATM   18  C10         0      28.545 116.118  13.930  1.00  0.00     0.112 C 
HETATM   19  C12         0      28.171 114.785  13.801  1.00  0.00     0.028 C 
BRANCH  17  20
HETATM   20  O9          0      27.617 118.213  14.780  1.00  0.00    -0.357 OA
HETATM   21  H9          0      26.855 118.700  15.073  1.00  0.00     0.218 HD
ENDBRANCH  17  20
BRANCH  18  22
HETATM   22  O11         0      29.805 116.491  14.376  1.00  0.00    -0.357 OA
HETATM   23  H11         0      29.840 117.090  15.113  1.00  0.00     0.218 HD
ENDBRANCH  18  22
ENDBRANCH   4  14
BRANCH   8  24
HETATM   24  O17         0      29.069 108.190  14.992  1.00  0.00    -0.359 OA
HETATM   25  H17         0      29.536 108.371  14.185  1.00  0.00     0.218 HD
ENDBRANCH   8  24
TORSDOF 5
ENDMDL
MODEL 6
REMARK VINA RESULT:      -4.8      1.839      2.599
REMARK  5 active torsions:
REMARK  status: ('A' for Active; 'I' for Inactive)
REMARK    1  A    between atoms: C4_4  and  C5_5 
REMARK    2  A    between atoms: C8_8  and  O9_9 
REMARK    3  A    between atoms: C10_11  and  O11_12 
REMARK    4  A    between atoms: C16_18  and  O17_19 
REMARK    5  A    between atoms: C19_22  and  O20_23 
ROOT
HETATM    1  O1          0      28.248 113.521  14.103  1.00  0.00    -0.286 OA
HETATM    2  C2          0      27.062 113.846  13.821  1.00  0.00     0.201 C 
HETATM    3  C3          0      26.068 112.916  13.570  1.00  0.00     0.067 C 
HETATM    4  C4          0      24.796 113.301  13.161  1.00  0.00     0.103 C 
HETATM    5  O13         0      24.534 114.590  13.031  1.00  0.00    -0.307 OA
HETATM    6  C14         0      25.452 115.512  13.220  1.00  0.00     0.107 C 
HETATM    7  C15         0      25.315 116.796  12.712  1.00  0.00     0.049 C 
HETATM    8  C16         0      26.384 117.683  12.691  1.00  0.00     0.093 C 
HETATM    9  C18         0      27.369 117.436  13.640  1.00  0.00     0.048 C 
HETATM   10  C19         0      27.505 116.175  14.204  1.00  0.00     0.096 C 
HETATM   11  C21         0      26.652 115.171  13.836  1.00  0.00     0.084 C 
ENDROOT
BRANCH  10  12
HETATM   12  O20         0      28.715 115.819  14.792  1.00  0.00    -0.359 OA
HETATM   13  H20         0      29.463 116.387  14.650  1.00  0.00     0.218 HD
ENDBRANCH  10  12
BRANCH   4  14
HETATM   14  C5          0      24.030 112.342  12.363  1.00  0.00     0.025 C 
HETATM   15  C6          0      23.767 111.049  12.790  1.00  0.00     0.004 C 
HETATM   16  C7          0      22.516 110.515  12.497  1.00  0.00     0.026 C 
HETATM   17  C8          0      21.606 111.191  11.691  1.00  0.00     0.112 C 
HETATM   18  C10         0      22.172 112.120  10.829  1.00  0.00     0.112 C 
HETATM   19  C12         0      23.383 112.701  11.188  1.00  0.00     0.028 C 
BRANCH  17  20
HETATM   20  O9          0      20.244 111.075  11.909  1.00  0.00    -0.357 OA
HETATM   21  H9          0      19.820 111.301  12.729  1.00  0.00     0.218 HD
ENDBRANCH  17  20
BRANCH  18  22
HETATM   22  O11         0      21.337 112.683   9.875  1.00  0.00    -0.357 OA
HETATM   23  H11         0      21.649 113.468   9.439  1.00  0.00     0.218 HD
ENDBRANCH  18  22
ENDBRANCH   4  14
BRANCH   8  24
HETATM   24  O17         0      26.609 118.529  11.600  1.00  0.00    -0.359 OA
HETATM   25  H17         0      27.280 118.343  10.954  1.00  0.00     0.218 HD
ENDBRANCH   8  24
TORSDOF 5
ENDMDL
MODEL 7
REMARK VINA RESULT:      -4.7      2.569      6.406
REMARK  5 active torsions:
REMARK  status: ('A' for Active; 'I' for Inactive)
REMARK    1  A    between atoms: C4_4  and  C5_5 
REMARK    2  A    between atoms: C8_8  and  O9_9 
REMARK    3  A    between atoms: C10_11  and  O11_12 
REMARK    4  A    between atoms: C16_18  and  O17_19 
REMARK    5  A    between atoms: C19_22  and  O20_23 
ROOT
HETATM    1  O1          0      23.456 112.209  10.604  1.00  0.00    -0.286 OA
HETATM    2  C2          0      23.642 112.448  11.828  1.00  0.00     0.201 C 
HETATM    3  C3          0      24.241 113.610  12.283  1.00  0.00     0.067 C 
HETATM    4  C4          0      24.527 113.803  13.630  1.00  0.00     0.103 C 
HETATM    5  O13         0      24.196 112.857  14.491  1.00  0.00    -0.307 OA
HETATM    6  C14         0      23.660 111.719  14.108  1.00  0.00     0.107 C 
HETATM    7  C15         0      23.681 110.592  14.917  1.00  0.00     0.049 C 
HETATM    8  C16         0      23.348 109.339  14.417  1.00  0.00     0.093 C 
HETATM    9  C18         0      22.518 109.353  13.302  1.00  0.00     0.048 C 
HETATM   10  C19         0      22.438 110.481  12.497  1.00  0.00     0.096 C 
HETATM   11  C21         0      23.168 111.594  12.813  1.00  0.00     0.084 C 
ENDROOT
BRANCH  10  12
HETATM   12  O20         0      21.976 110.354  11.191  1.00  0.00    -0.359 OA
HETATM   13  H20         0      21.750 111.146  10.719  1.00  0.00     0.218 HD
ENDBRANCH  10  12
BRANCH   4  14
HETATM   14  C5          0      25.640 114.697  13.957  1.00  0.00     0.025 C 
HETATM   15  C6          0      26.891 114.232  14.334  1.00  0.00     0.004 C 
HETATM   16  C7          0      28.003 114.924  13.866  1.00  0.00     0.026 C 
HETATM   17  C8          0      27.877 116.116  13.160  1.00  0.00     0.112 C 
HETATM   18  C10         0      26.690 116.800  13.385  1.00  0.00     0.112 C 
HETATM   19  C12         0      25.571 116.071  13.770  1.00  0.00     0.028 C 
BRANCH  17  20
HETATM   20  O9          0      28.780 116.450  12.167  1.00  0.00    -0.357 OA
HETATM   21  H9          0      28.820 117.306  11.755  1.00  0.00     0.218 HD
ENDBRANCH  17  20
BRANCH  18  22
HETATM   22  O11         0      26.592 118.079  12.856  1.00  0.00    -0.357 OA
HETATM   23  H11         0      27.391 118.467  12.518  1.00  0.00     0.218 HD
ENDBRANCH  18  22
ENDBRANCH   4  14
BRANCH   8  24
HETATM   24  O17         0      24.057 108.192  14.792  1.00  0.00    -0.359 OA
HETATM   25  H17         0      23.672 107.529  15.352  1.00  0.00     0.218 HD
ENDBRANCH   8  24
TORSDOF 5
ENDMDL
MODEL 8
REMARK VINA RESULT:      -4.7      4.084      7.019
REMARK  5 active torsions:
REMARK  status: ('A' for Active; 'I' for Inactive)
REMARK    1  A    between atoms: C4_4  and  C5_5 
REMARK    2  A    between atoms: C8_8  and  O9_9 
REMARK    3  A    between atoms: C10_11  and  O11_12 
REMARK    4  A    between atoms: C16_18  and  O17_19 
REMARK    5  A    between atoms: C19_22  and  O20_23 
ROOT
HETATM    1  O1          0      24.359 108.131  14.562  1.00  0.00    -0.286 OA
HETATM    2  C2          0      25.359 108.859  14.811  1.00  0.00     0.201 C 
HETATM    3  C3          0      25.362 110.227  14.597  1.00  0.00     0.067 C 
HETATM    4  C4          0      26.509 110.991  14.782  1.00  0.00     0.103 C 
HETATM    5  O13         0      27.612 110.390  15.192  1.00  0.00    -0.307 OA
HETATM    6  C14         0      27.673 109.089  15.374  1.00  0.00     0.107 C 
HETATM    7  C15         0      28.884 108.411  15.409  1.00  0.00     0.049 C 
HETATM    8  C16         0      28.936 107.024  15.345  1.00  0.00     0.093 C 
HETATM    9  C18         0      27.787 106.373  15.775  1.00  0.00     0.048 C 
HETATM   10  C19         0      26.567 107.035  15.798  1.00  0.00     0.096 C 
HETATM   11  C21         0      26.499 108.345  15.409  1.00  0.00     0.084 C 
ENDROOT
BRANCH  10  12
HETATM   12  O20         0      25.390 106.293  15.801  1.00  0.00    -0.359 OA
HETATM   13  H20         0      24.629 106.663  15.369  1.00  0.00     0.218 HD
ENDBRANCH  10  12
BRANCH   4  14
HETATM   14  C5          0      26.627 112.223  14.001  1.00  0.00     0.025 C 
HETATM   15  C6          0      25.552 112.801  13.341  1.00  0.00     0.004 C 
HETATM   16  C7          0      25.468 114.189  13.338  1.00  0.00     0.026 C 
HETATM   17  C8          0      26.485 114.983  13.857  1.00  0.00     0.112 C 
HETATM   18  C10         0      27.732 114.373  13.898  1.00  0.00     0.112 C 
HETATM   19  C12         0      27.787 112.987  13.986  1.00  0.00     0.028 C 
BRANCH  17  20
HETATM   20  O9          0      26.200 116.191  14.467  1.00  0.00    -0.357 OA
HETATM   21  H9          0      26.816 116.664  15.016  1.00  0.00     0.218 HD
ENDBRANCH  17  20
BRANCH  18  22
HETATM   22  O11         0      28.814 115.177  14.228  1.00  0.00    -0.357 OA
HETATM   23  H11         0      29.605 115.066  13.713  1.00  0.00     0.218 HD
ENDBRANCH  18  22
ENDBRANCH   4  14
BRANCH   8  24
HETATM   24  O17         0      29.920 106.365  14.598  1.00  0.00    -0.359 OA
HETATM   25  H17         0      29.867 105.435  14.415  1.00  0.00     0.218 HD
ENDBRANCH   8  24
TORSDOF 5
ENDMDL
MODEL 9
REMARK VINA RESULT:      -4.6      4.356      6.491
REMARK  5 active torsions:
REMARK  status: ('A' for Active; 'I' for Inactive)
REMARK    1  A    between atoms: C4_4  and  C5_5 
REMARK    2  A    between atoms: C8_8  and  O9_9 
REMARK    3  A    between atoms: C10_11  and  O11_12 
REMARK    4  A    between atoms: C16_18  and  O17_19 
REMARK    5  A    between atoms: C19_22  and  O20_23 
ROOT
HETATM    1  O1          0      25.902 112.875  18.039  1.00  0.00    -0.286 OA
HETATM    2  C2          0      26.516 112.731  16.947  1.00  0.00     0.201 C 
HETATM    3  C3          0      26.791 113.787  16.095  1.00  0.00     0.067 C 
HETATM    4  C4          0      27.378 113.586  14.851  1.00  0.00     0.103 C 
HETATM    5  O13         0      27.695 112.355  14.490  1.00  0.00    -0.307 OA
HETATM    6  C14         0      27.422 111.313  15.245  1.00  0.00     0.107 C 
HETATM    7  C15         0      27.378 110.027  14.726  1.00  0.00     0.049 C 
HETATM    8  C16         0      26.845 108.972  15.458  1.00  0.00     0.093 C 
HETATM    9  C18         0      26.869 109.142  16.837  1.00  0.00     0.048 C 
HETATM   10  C19         0      26.960 110.413  17.389  1.00  0.00     0.096 C 
HETATM   11  C21         0      27.043 111.505  16.569  1.00  0.00     0.084 C 
ENDROOT
BRANCH  10  12
HETATM   12  O20         0      26.552 110.614  18.704  1.00  0.00    -0.359 OA
HETATM   13  H20         0      27.215 110.598  19.383  1.00  0.00     0.218 HD
ENDBRANCH  10  12
BRANCH   4  14
HETATM   14  C5          0      27.094 114.574  13.809  1.00  0.00     0.025 C 
HETATM   15  C6          0      25.805 114.928  13.439  1.00  0.00     0.004 C 
HETATM   16  C7          0      25.564 116.265  13.138  1.00  0.00     0.026 C 
HETATM   17  C8          0      26.596 117.195  13.075  1.00  0.00     0.112 C 
HETATM   18  C10         0      27.851 116.654  12.830  1.00  0.00     0.112 C 
HETATM   19  C12         0      28.091 115.341  13.219  1.00  0.00     0.028 C 
BRANCH  17  20
HETATM   20  O9          0      26.386 118.513  13.442  1.00  0.00    -0.357 OA
HETATM   21  H9          0      25.652 118.803  13.970  1.00  0.00     0.218 HD
ENDBRANCH  17  20
BRANCH  18  22
HETATM   22  O11         0      28.881 117.546  12.570  1.00  0.00    -0.357 OA
HETATM   23  H11         0      29.732 117.174  12.368  1.00  0.00     0.218 HD
ENDBRANCH  18  22
ENDBRANCH   4  14
BRANCH   8  24
HETATM   24  O17         0      26.052 107.991  14.851  1.00  0.00    -0.359 OA
HETATM   25  H17         0      25.221 107.721  15.224  1.00  0.00     0.218 HD
ENDBRANCH   8  24
TORSDOF 5
ENDMDL
