MODEL 1
REMARK VINA RESULT:      -3.9      0.000      0.000
REMARK  5 active torsions:
REMARK  status: ('A' for Active; 'I' for Inactive)
REMARK    1  A    between atoms: C4_4  and  C5_5 
REMARK    2  A    between atoms: C8_8  and  O9_9 
REMARK    3  A    between atoms: C10_11  and  O11_12 
REMARK    4  A    between atoms: C16_18  and  O17_19 
REMARK    5  A    between atoms: C19_22  and  O20_23 
ROOT
HETATM    1  O1          0      59.684  34.295 -11.041  1.00  0.00    -0.286 OA
HETATM    2  C2          0      58.861  35.154 -10.622  1.00  0.00     0.201 C 
HETATM    3  C3          0      57.495  34.930 -10.585  1.00  0.00     0.067 C 
HETATM    4  C4          0      56.602  35.929 -10.216  1.00  0.00     0.103 C 
HETATM    5  O13         0      57.080  37.113  -9.875  1.00  0.00    -0.307 OA
HETATM    6  C14         0      58.364  37.390  -9.929  1.00  0.00     0.107 C 
HETATM    7  C15         0      58.829  38.697  -9.966  1.00  0.00     0.049 C 
HETATM    8  C16         0      60.153  38.984 -10.278  1.00  0.00     0.093 C 
HETATM    9  C18         0      61.052  37.956 -10.021  1.00  0.00     0.048 C 
HETATM   10  C19         0      60.614  36.641  -9.931  1.00  0.00     0.096 C 
HETATM   11  C21         0      59.284  36.358 -10.079  1.00  0.00     0.084 C 
ENDROOT
BRANCH  10  12
HETATM   12  O20         0      61.526  35.606 -10.112  1.00  0.00    -0.359 OA
HETATM   13  H20         0      61.327  34.764  -9.721  1.00  0.00     0.218 HD
ENDBRANCH  10  12
BRANCH   4  14
HETATM   14  C5          0      55.244  35.847 -10.756  1.00  0.00     0.025 C 
HETATM   15  C6          0      54.906  36.315 -12.017  1.00  0.00     0.004 C 
HETATM   16  C7          0      53.991  35.573 -12.757  1.00  0.00     0.026 C 
HETATM   17  C8          0      53.331  34.476 -12.212  1.00  0.00     0.112 C 
HETATM   18  C10         0      53.249  34.479 -10.826  1.00  0.00     0.112 C 
HETATM   19  C12         0      54.226  35.159 -10.108  1.00  0.00     0.028 C 
BRANCH  17  20
HETATM   20  O9          0      52.989  33.391 -13.000  1.00  0.00    -0.357 OA
HETATM   21  H9          0      53.623  32.792 -13.377  1.00  0.00     0.218 HD
ENDBRANCH  17  20
BRANCH  18  22
HETATM   22  O11         0      52.442  33.513 -10.242  1.00  0.00    -0.357 OA
HETATM   23  H11         0      51.769  33.819  -9.645  1.00  0.00     0.218 HD
ENDBRANCH  18  22
ENDBRANCH   4  14
BRANCH   8  24
HETATM   24  O17         0      60.492  40.072 -11.089  1.00  0.00    -0.359 OA
HETATM   25  H17         0      61.076  39.979 -11.831  1.00  0.00     0.218 HD
ENDBRANCH   8  24
TORSDOF 5
ENDMDL
MODEL 2
REMARK VINA RESULT:      -3.8      1.778      2.200
REMARK  5 active torsions:
REMARK  status: ('A' for Active; 'I' for Inactive)
REMARK    1  A    between atoms: C4_4  and  C5_5 
REMARK    2  A    between atoms: C8_8  and  O9_9 
REMARK    3  A    between atoms: C10_11  and  O11_12 
REMARK    4  A    between atoms: C16_18  and  O17_19 
REMARK    5  A    between atoms: C19_22  and  O20_23 
ROOT
HETATM    1  O1          0      59.722  32.402 -12.151  1.00  0.00    -0.286 OA
HETATM    2  C2          0      59.301  33.315 -11.389  1.00  0.00     0.201 C 
HETATM    3  C3          0      58.074  33.253 -10.750  1.00  0.00     0.067 C 
HETATM    4  C4          0      57.589  34.318  -9.999  1.00  0.00     0.103 C 
HETATM    5  O13         0      58.334  35.403  -9.882  1.00  0.00    -0.307 OA
HETATM    6  C14         0      59.489  35.528 -10.498  1.00  0.00     0.107 C 
HETATM    7  C15         0      60.073  36.769 -10.711  1.00  0.00     0.049 C 
HETATM    8  C16         0      61.150  36.920 -11.576  1.00  0.00     0.093 C 
HETATM    9  C18         0      61.912  35.774 -11.771  1.00  0.00     0.048 C 
HETATM   10  C19         0      61.373  34.519 -11.523  1.00  0.00     0.096 C 
HETATM   11  C21         0      60.088  34.409 -11.066  1.00  0.00     0.084 C 
ENDROOT
BRANCH  10  12
HETATM   12  O20         0      61.953  33.401 -12.116  1.00  0.00    -0.359 OA
HETATM   13  H20         0      61.659  33.156 -12.985  1.00  0.00     0.218 HD
ENDBRANCH  10  12
BRANCH   4  14
HETATM   14  C5          0      56.136  34.443  -9.876  1.00  0.00     0.025 C 
HETATM   15  C6          0      55.482  35.667  -9.901  1.00  0.00     0.004 C 
HETATM   16  C7          0      54.259  35.730 -10.562  1.00  0.00     0.026 C 
HETATM   17  C8          0      53.641  34.590 -11.064  1.00  0.00     0.112 C 
HETATM   18  C10         0      54.029  33.404 -10.454  1.00  0.00     0.112 C 
HETATM   19  C12         0      55.291  33.341  -9.875  1.00  0.00     0.028 C 
BRANCH  17  20
HETATM   20  O9          0      52.875  34.648 -12.214  1.00  0.00    -0.357 OA
HETATM   21  H9          0      52.880  33.975 -12.886  1.00  0.00     0.218 HD
ENDBRANCH  17  20
BRANCH  18  22
HETATM   22  O11         0      53.310  32.264 -10.783  1.00  0.00    -0.357 OA
HETATM   23  H11         0      53.242  31.591 -10.116  1.00  0.00     0.218 HD
ENDBRANCH  18  22
ENDBRANCH   4  14
BRANCH   8  24
HETATM   24  O17         0      61.251  38.025 -12.429  1.00  0.00    -0.359 OA
HETATM   25  H17         0      62.029  38.184 -12.949  1.00  0.00     0.218 HD
ENDBRANCH   8  24
TORSDOF 5
ENDMDL
MODEL 3
REMARK VINA RESULT:      -3.7      2.041      2.783
REMARK  5 active torsions:
REMARK  status: ('A' for Active; 'I' for Inactive)
REMARK    1  A    between atoms: C4_4  and  C5_5 
REMARK    2  A    between atoms: C8_8  and  O9_9 
REMARK    3  A    between atoms: C10_11  and  O11_12 
REMARK    4  A    between atoms: C16_18  and  O17_19 
REMARK    5  A    between atoms: C19_22  and  O20_23 
ROOT
HETATM    1  O1          0      59.182  32.675 -13.097  1.00  0.00    -0.286 OA
HETATM    2  C2          0      58.331  33.091 -12.265  1.00  0.00     0.201 C 
HETATM    3  C3          0      57.001  32.709 -12.297  1.00  0.00     0.067 C 
HETATM    4  C4          0      56.063  33.261 -11.432  1.00  0.00     0.103 C 
HETATM    5  O13         0      56.464  34.158 -10.548  1.00  0.00    -0.307 OA
HETATM    6  C14         0      57.708  34.584 -10.500  1.00  0.00     0.107 C 
HETATM    7  C15         0      58.049  35.775  -9.877  1.00  0.00     0.049 C 
HETATM    8  C16         0      59.305  36.345 -10.047  1.00  0.00     0.093 C 
HETATM    9  C18         0      60.313  35.452 -10.390  1.00  0.00     0.048 C 
HETATM   10  C19         0      60.004  34.230 -10.973  1.00  0.00     0.096 C 
HETATM   11  C21         0      58.696  33.895 -11.196  1.00  0.00     0.084 C 
ENDROOT
BRANCH  10  12
HETATM   12  O20         0      60.982  33.555 -11.696  1.00  0.00    -0.359 OA
HETATM   13  H20         0      60.709  32.831 -12.247  1.00  0.00     0.218 HD
ENDBRANCH  10  12
BRANCH   4  14
HETATM   14  C5          0      54.671  33.293 -11.885  1.00  0.00     0.025 C 
HETATM   15  C6          0      54.233  32.621 -13.017  1.00  0.00     0.004 C 
HETATM   16  C7          0      52.979  32.022 -12.967  1.00  0.00     0.026 C 
HETATM   17  C8          0      52.131  32.196 -11.878  1.00  0.00     0.112 C 
HETATM   18  C10         0      52.372  33.342 -11.133  1.00  0.00     0.112 C 
HETATM   19  C12         0      53.656  33.873 -11.134  1.00  0.00     0.028 C 
BRANCH  17  20
HETATM   20  O9          0      51.274  31.186 -11.479  1.00  0.00    -0.357 OA
HETATM   21  H9          0      50.360  31.325 -11.259  1.00  0.00     0.218 HD
ENDBRANCH  17  20
BRANCH  18  22
HETATM   22  O11         0      51.442  33.663 -10.155  1.00  0.00    -0.357 OA
HETATM   23  H11         0      51.466  33.151  -9.354  1.00  0.00     0.218 HD
ENDBRANCH  18  22
ENDBRANCH   4  14
BRANCH   8  24
HETATM   24  O17         0      59.465  37.727 -10.193  1.00  0.00    -0.359 OA
HETATM   25  H17         0      59.815  38.266  -9.494  1.00  0.00     0.218 HD
ENDBRANCH   8  24
TORSDOF 5
ENDMDL
MODEL 4
REMARK VINA RESULT:      -3.6      3.172      4.630
REMARK  5 active torsions:
REMARK  status: ('A' for Active; 'I' for Inactive)
REMARK    1  A    between atoms: C4_4  and  C5_5 
REMARK    2  A    between atoms: C8_8  and  O9_9 
REMARK    3  A    between atoms: C10_11  and  O11_12 
REMARK    4  A    between atoms: C16_18  and  O17_19 
REMARK    5  A    between atoms: C19_22  and  O20_23 
ROOT
HETATM    1  O1          0      58.850  34.052 -10.568  1.00  0.00    -0.286 OA
HETATM    2  C2          0      57.623  33.821 -10.388  1.00  0.00     0.201 C 
HETATM    3  C3          0      57.097  32.540 -10.361  1.00  0.00     0.067 C 
HETATM    4  C4          0      55.728  32.317 -10.264  1.00  0.00     0.103 C 
HETATM    5  O13         0      54.920  33.358 -10.176  1.00  0.00    -0.307 OA
HETATM    6  C14         0      55.363  34.595 -10.234  1.00  0.00     0.107 C 
HETATM    7  C15         0      54.527  35.658 -10.542  1.00  0.00     0.049 C 
HETATM    8  C16         0      55.038  36.912 -10.852  1.00  0.00     0.093 C 
HETATM    9  C18         0      56.300  37.176 -10.333  1.00  0.00     0.048 C 
HETATM   10  C19         0      57.145  36.136  -9.970  1.00  0.00     0.096 C 
HETATM   11  C21         0      56.726  34.841 -10.109  1.00  0.00     0.084 C 
ENDROOT
BRANCH  10  12
HETATM   12  O20         0      58.513  36.373  -9.876  1.00  0.00    -0.359 OA
HETATM   13  H20         0      58.937  36.829 -10.592  1.00  0.00     0.218 HD
ENDBRANCH  10  12
BRANCH   4  14
HETATM   14  C5          0      55.211  31.070 -10.831  1.00  0.00     0.025 C 
HETATM   15  C6          0      55.363  29.840 -10.206  1.00  0.00     0.004 C 
HETATM   16  C7          0      54.299  28.947 -10.275  1.00  0.00     0.026 C 
HETATM   17  C8          0      53.175  29.209 -11.051  1.00  0.00     0.112 C 
HETATM   18  C10         0      53.385  30.105 -12.091  1.00  0.00     0.112 C 
HETATM   19  C12         0      54.401  31.044 -11.959  1.00  0.00     0.028 C 
BRANCH  17  20
HETATM   20  O9          0      51.925  28.765 -10.661  1.00  0.00    -0.357 OA
HETATM   21  H9          0      51.110  29.091 -11.026  1.00  0.00     0.218 HD
ENDBRANCH  17  20
BRANCH  18  22
HETATM   22  O11         0      52.354  30.258 -13.007  1.00  0.00    -0.357 OA
HETATM   23  H11         0      52.205  31.133 -13.345  1.00  0.00     0.218 HD
ENDBRANCH  18  22
ENDBRANCH   4  14
BRANCH   8  24
HETATM   24  O17         0      54.483  37.695 -11.870  1.00  0.00    -0.359 OA
HETATM   25  H17         0      54.429  37.384 -12.766  1.00  0.00     0.218 HD
ENDBRANCH   8  24
TORSDOF 5
ENDMDL
MODEL 5
REMARK VINA RESULT:      -3.6      1.543      2.040
REMARK  5 active torsions:
REMARK  status: ('A' for Active; 'I' for Inactive)
REMARK    1  A    between atoms: C4_4  and  C5_5 
REMARK    2  A    between atoms: C8_8  and  O9_9 
REMARK    3  A    between atoms: C10_11  and  O11_12 
REMARK    4  A    between atoms: C16_18  and  O17_19 
REMARK    5  A    between atoms: C19_22  and  O20_23 
ROOT
HETATM    1  O1          0      60.090  34.600 -10.611  1.00  0.00    -0.286 OA
HETATM    2  C2          0      58.923  34.988 -10.329  1.00  0.00     0.201 C 
HETATM    3  C3          0      57.843  34.126 -10.254  1.00  0.00     0.067 C 
HETATM    4  C4          0      56.551  34.593 -10.043  1.00  0.00     0.103 C 
HETATM    5  O13         0      56.362  35.892  -9.892  1.00  0.00    -0.307 OA
HETATM    6  C14         0      57.347  36.758  -9.992  1.00  0.00     0.107 C 
HETATM    7  C15         0      57.116  38.104 -10.235  1.00  0.00     0.049 C 
HETATM    8  C16         0      58.150  38.962 -10.590  1.00  0.00     0.093 C 
HETATM    9  C18         0      59.414  38.559 -10.179  1.00  0.00     0.048 C 
HETATM   10  C19         0      59.669  37.226  -9.883  1.00  0.00     0.096 C 
HETATM   11  C21         0      58.662  36.305  -9.981  1.00  0.00     0.084 C 
ENDROOT
BRANCH  10  12
HETATM   12  O20         0      60.981  36.764  -9.902  1.00  0.00    -0.359 OA
HETATM   13  H20         0      61.523  36.931  -9.141  1.00  0.00     0.218 HD
ENDBRANCH  10  12
BRANCH   4  14
HETATM   14  C5          0      55.451  33.776 -10.560  1.00  0.00     0.025 C 
HETATM   15  C6          0      54.241  33.637  -9.895  1.00  0.00     0.004 C 
HETATM   16  C7          0      53.083  33.597 -10.665  1.00  0.00     0.026 C 
HETATM   17  C8          0      53.132  33.563 -12.054  1.00  0.00     0.112 C 
HETATM   18  C10         0      54.320  33.074 -12.581  1.00  0.00     0.112 C 
HETATM   19  C12         0      55.480  33.203 -11.825  1.00  0.00     0.028 C 
BRANCH  17  20
HETATM   20  O9          0      52.147  34.170 -12.813  1.00  0.00    -0.357 OA
HETATM   21  H9          0      52.255  34.405 -13.728  1.00  0.00     0.218 HD
ENDBRANCH  17  20
BRANCH  18  22
HETATM   22  O11         0      54.353  32.841 -13.948  1.00  0.00    -0.357 OA
HETATM   23  H11         0      54.078  33.554 -14.513  1.00  0.00     0.218 HD
ENDBRANCH  18  22
ENDBRANCH   4  14
BRANCH   8  24
HETATM   24  O17         0      57.973  39.952 -11.563  1.00  0.00    -0.359 OA
HETATM   25  H17         0      57.420  40.709 -11.409  1.00  0.00     0.218 HD
ENDBRANCH   8  24
TORSDOF 5
ENDMDL
MODEL 6
REMARK VINA RESULT:      -3.6      3.093      7.012
REMARK  5 active torsions:
REMARK  status: ('A' for Active; 'I' for Inactive)
REMARK    1  A    between atoms: C4_4  and  C5_5 
REMARK    2  A    between atoms: C8_8  and  O9_9 
REMARK    3  A    between atoms: C10_11  and  O11_12 
REMARK    4  A    between atoms: C16_18  and  O17_19 
REMARK    5  A    between atoms: C19_22  and  O20_23 
ROOT
HETATM    1  O1          0      52.775  33.277 -13.678  1.00  0.00    -0.286 OA
HETATM    2  C2          0      53.320  33.353 -12.543  1.00  0.00     0.201 C 
HETATM    3  C3          0      53.686  34.556 -11.965  1.00  0.00     0.067 C 
HETATM    4  C4          0      54.378  34.605 -10.760  1.00  0.00     0.103 C 
HETATM    5  O13         0      54.670  33.470 -10.149  1.00  0.00    -0.307 OA
HETATM    6  C14         0      54.378  32.299 -10.673  1.00  0.00     0.107 C 
HETATM    7  C15         0      55.014  31.136 -10.262  1.00  0.00     0.049 C 
HETATM    8  C16         0      54.893  29.955 -10.983  1.00  0.00     0.093 C 
HETATM    9  C18         0      53.745  29.857 -11.761  1.00  0.00     0.048 C 
HETATM   10  C19         0      53.058  30.998 -12.151  1.00  0.00     0.096 C 
HETATM   11  C21         0      53.504  32.229 -11.752  1.00  0.00     0.084 C 
ENDROOT
BRANCH  10  12
HETATM   12  O20         0      52.207  30.938 -13.250  1.00  0.00    -0.359 OA
HETATM   13  H20         0      52.146  31.703 -13.809  1.00  0.00     0.218 HD
ENDBRANCH  10  12
BRANCH   4  14
HETATM   14  C5          0      55.229  35.772 -10.523  1.00  0.00     0.025 C 
HETATM   15  C6          0      56.505  35.892 -11.053  1.00  0.00     0.004 C 
HETATM   16  C7          0      56.905  37.150 -11.494  1.00  0.00     0.026 C 
HETATM   17  C8          0      56.116  38.278 -11.292  1.00  0.00     0.112 C 
HETATM   18  C10         0      55.216  38.175 -10.240  1.00  0.00     0.112 C 
HETATM   19  C12         0      54.768  36.911  -9.875  1.00  0.00     0.028 C 
BRANCH  17  20
HETATM   20  O9          0      56.107  39.310 -12.213  1.00  0.00    -0.357 OA
HETATM   21  H9          0      55.874  39.200 -13.128  1.00  0.00     0.218 HD
ENDBRANCH  17  20
BRANCH  18  22
HETATM   22  O11         0      54.541  39.331  -9.876  1.00  0.00    -0.357 OA
HETATM   23  H11         0      53.724  39.512 -10.326  1.00  0.00     0.218 HD
ENDBRANCH  18  22
ENDBRANCH   4  14
BRANCH   8  24
HETATM   24  O17         0      55.984  29.100 -11.171  1.00  0.00    -0.359 OA
HETATM   25  H17         0      56.459  28.727 -10.437  1.00  0.00     0.218 HD
ENDBRANCH   8  24
TORSDOF 5
ENDMDL
MODEL 7
REMARK VINA RESULT:      -3.5      2.567      6.704
REMARK  5 active torsions:
REMARK  status: ('A' for Active; 'I' for Inactive)
REMARK    1  A    between atoms: C4_4  and  C5_5 
REMARK    2  A    between atoms: C8_8  and  O9_9 
REMARK    3  A    between atoms: C10_11  and  O11_12 
REMARK    4  A    between atoms: C16_18  and  O17_19 
REMARK    5  A    between atoms: C19_22  and  O20_23 
ROOT
HETATM    1  O1          0      54.575  32.050 -10.105  1.00  0.00    -0.286 OA
HETATM    2  C2          0      54.812  33.091 -10.777  1.00  0.00     0.201 C 
HETATM    3  C3          0      55.680  34.081 -10.347  1.00  0.00     0.067 C 
HETATM    4  C4          0      55.846  35.264 -11.057  1.00  0.00     0.103 C 
HETATM    5  O13         0      55.168  35.431 -12.180  1.00  0.00    -0.307 OA
HETATM    6  C14         0      54.304  34.540 -12.613  1.00  0.00     0.107 C 
HETATM    7  C15         0      53.320  34.865 -13.536  1.00  0.00     0.049 C 
HETATM    8  C16         0      52.262  34.002 -13.796  1.00  0.00     0.093 C 
HETATM    9  C18         0      52.515  32.663 -13.525  1.00  0.00     0.048 C 
HETATM   10  C19         0      53.524  32.301 -12.642  1.00  0.00     0.096 C 
HETATM   11  C21         0      54.285  33.270 -12.047  1.00  0.00     0.084 C 
ENDROOT
BRANCH  10  12
HETATM   12  O20         0      53.490  31.042 -12.050  1.00  0.00    -0.359 OA
HETATM   13  H20         0      53.941  30.927 -11.222  1.00  0.00     0.218 HD
ENDBRANCH  10  12
BRANCH   4  14
HETATM   14  C5          0      56.257  36.448 -10.300  1.00  0.00     0.025 C 
HETATM   15  C6          0      57.564  36.656  -9.883  1.00  0.00     0.004 C 
HETATM   16  C7          0      58.057  37.956  -9.933  1.00  0.00     0.026 C 
HETATM   17  C8          0      57.240  39.034 -10.258  1.00  0.00     0.112 C 
HETATM   18  C10         0      55.886  38.824 -10.034  1.00  0.00     0.112 C 
HETATM   19  C12         0      55.405  37.521 -10.074  1.00  0.00     0.028 C 
BRANCH  17  20
HETATM   20  O9          0      57.746  40.124 -10.944  1.00  0.00    -0.357 OA
HETATM   21  H9          0      58.524  40.600 -10.679  1.00  0.00     0.218 HD
ENDBRANCH  17  20
BRANCH  18  22
HETATM   22  O11         0      55.050  39.924 -10.162  1.00  0.00    -0.357 OA
HETATM   23  H11         0      54.182  39.765 -10.514  1.00  0.00     0.218 HD
ENDBRANCH  18  22
ENDBRANCH   4  14
BRANCH   8  24
HETATM   24  O17         0      50.961  34.481 -13.986  1.00  0.00    -0.359 OA
HETATM   25  H17         0      50.275  33.933 -14.350  1.00  0.00     0.218 HD
ENDBRANCH   8  24
TORSDOF 5
ENDMDL
MODEL 8
REMARK VINA RESULT:      -3.5      2.529      3.688
REMARK  5 active torsions:
REMARK  status: ('A' for Active; 'I' for Inactive)
REMARK    1  A    between atoms: C4_4  and  C5_5 
REMARK    2  A    between atoms: C8_8  and  O9_9 
REMARK    3  A    between atoms: C10_11  and  O11_12 
REMARK    4  A    between atoms: C16_18  and  O17_19 
REMARK    5  A    between atoms: C19_22  and  O20_23 
ROOT
HETATM    1  O1          0      59.667  36.304 -10.968  1.00  0.00    -0.286 OA
HETATM    2  C2          0      58.553  35.865 -10.572  1.00  0.00     0.201 C 
HETATM    3  C3          0      58.257  34.514 -10.510  1.00  0.00     0.067 C 
HETATM    4  C4          0      56.988  34.060 -10.168  1.00  0.00     0.103 C 
HETATM    5  O13         0      56.054  34.948  -9.878  1.00  0.00    -0.307 OA
HETATM    6  C14         0      56.270  36.243  -9.958  1.00  0.00     0.107 C 
HETATM    7  C15         0      55.228  37.154 -10.051  1.00  0.00     0.049 C 
HETATM    8  C16         0      55.459  38.482 -10.390  1.00  0.00     0.093 C 
HETATM    9  C18         0      56.737  38.947 -10.106  1.00  0.00     0.048 C 
HETATM   10  C19         0      57.795  38.059  -9.960  1.00  0.00     0.096 C 
HETATM   11  C21         0      57.573  36.714 -10.080  1.00  0.00     0.084 C 
ENDROOT
BRANCH  10  12
HETATM   12  O20         0      59.098  38.522 -10.113  1.00  0.00    -0.359 OA
HETATM   13  H20         0      59.420  38.662 -10.995  1.00  0.00     0.218 HD
ENDBRANCH  10  12
BRANCH   4  14
HETATM   14  C5          0      56.582  32.753 -10.687  1.00  0.00     0.025 C 
HETATM   15  C6          0      56.560  31.607  -9.905  1.00  0.00     0.004 C 
HETATM   16  C7          0      55.518  30.709 -10.108  1.00  0.00     0.026 C 
HETATM   17  C8          0      54.603  30.874 -11.142  1.00  0.00     0.112 C 
HETATM   18  C10         0      55.061  31.641 -12.205  1.00  0.00     0.112 C 
HETATM   19  C12         0      56.044  32.591 -11.958  1.00  0.00     0.028 C 
BRANCH  17  20
HETATM   20  O9          0      53.286  30.475 -10.994  1.00  0.00    -0.357 OA
HETATM   21  H9          0      53.005  29.567 -11.001  1.00  0.00     0.218 HD
ENDBRANCH  17  20
BRANCH  18  22
HETATM   22  O11         0      54.265  31.681 -13.341  1.00  0.00    -0.357 OA
HETATM   23  H11         0      54.439  32.377 -13.964  1.00  0.00     0.218 HD
ENDBRANCH  18  22
ENDBRANCH   4  14
BRANCH   8  24
HETATM   24  O17         0      54.597  39.177 -11.246  1.00  0.00    -0.359 OA
HETATM   25  H17         0      54.783  39.270 -12.173  1.00  0.00     0.218 HD
ENDBRANCH   8  24
TORSDOF 5
ENDMDL
MODEL 9
REMARK VINA RESULT:      -3.4      1.742      6.700
REMARK  5 active torsions:
REMARK  status: ('A' for Active; 'I' for Inactive)
REMARK    1  A    between atoms: C4_4  and  C5_5 
REMARK    2  A    between atoms: C8_8  and  O9_9 
REMARK    3  A    between atoms: C10_11  and  O11_12 
REMARK    4  A    between atoms: C16_18  and  O17_19 
REMARK    5  A    between atoms: C19_22  and  O20_23 
ROOT
HETATM    1  O1          0      57.288  32.286 -12.187  1.00  0.00    -0.286 OA
HETATM    2  C2          0      56.808  33.445 -12.058  1.00  0.00     0.201 C 
HETATM    3  C3          0      57.597  34.572 -11.900  1.00  0.00     0.067 C 
HETATM    4  C4          0      57.041  35.823 -11.658  1.00  0.00     0.103 C 
HETATM    5  O13         0      55.726  35.932 -11.599  1.00  0.00    -0.307 OA
HETATM    6  C14         0      54.932  34.889 -11.705  1.00  0.00     0.107 C 
HETATM    7  C15         0      53.620  34.920 -11.255  1.00  0.00     0.049 C 
HETATM    8  C16         0      52.870  33.756 -11.135  1.00  0.00     0.093 C 
HETATM    9  C18         0      53.278  32.708 -11.951  1.00  0.00     0.048 C 
HETATM   10  C19         0      54.571  32.670 -12.456  1.00  0.00     0.096 C 
HETATM   11  C21         0      55.445  33.680 -12.162  1.00  0.00     0.084 C 
ENDROOT
BRANCH  10  12
HETATM   12  O20         0      55.098  31.455 -12.885  1.00  0.00    -0.359 OA
HETATM   13  H20         0      54.949  31.199 -13.787  1.00  0.00     0.218 HD
ENDBRANCH  10  12
BRANCH   4  14
HETATM   14  C5          0      57.862  36.791 -10.928  1.00  0.00     0.025 C 
HETATM   15  C6          0      58.764  36.419  -9.941  1.00  0.00     0.004 C 
HETATM   16  C7          0      59.971  37.108  -9.878  1.00  0.00     0.026 C 
HETATM   17  C8          0      60.220  38.217 -10.680  1.00  0.00     0.112 C 
HETATM   18  C10         0      59.083  38.869 -11.138  1.00  0.00     0.112 C 
HETATM   19  C12         0      57.910  38.135 -11.272  1.00  0.00     0.028 C 
BRANCH  17  20
HETATM   20  O9          0      61.498  38.489 -11.136  1.00  0.00    -0.357 OA
HETATM   21  H9          0      61.682  38.951 -11.946  1.00  0.00     0.218 HD
ENDBRANCH  17  20
BRANCH  18  22
HETATM   22  O11         0      59.272  40.084 -11.781  1.00  0.00    -0.357 OA
HETATM   23  H11         0      59.357  40.853 -11.230  1.00  0.00     0.218 HD
ENDBRANCH  18  22
ENDBRANCH   4  14
BRANCH   8  24
HETATM   24  O17         0      52.010  33.552 -10.050  1.00  0.00    -0.359 OA
HETATM   25  H17         0      52.181  33.935  -9.198  1.00  0.00     0.218 HD
ENDBRANCH   8  24
TORSDOF 5
ENDMDL
