MODEL 1
REMARK VINA RESULT:      -5.2      0.000      0.000
REMARK  5 active torsions:
REMARK  status: ('A' for Active; 'I' for Inactive)
REMARK    1  A    between atoms: C4_4  and  C5_5 
REMARK    2  A    between atoms: C8_8  and  O9_9 
REMARK    3  A    between atoms: C10_11  and  O11_12 
REMARK    4  A    between atoms: C16_18  and  O17_19 
REMARK    5  A    between atoms: C19_22  and  O20_23 
ROOT
HETATM    1  O1          0      53.873  75.725 -20.129  1.00  0.00    -0.286 OA
HETATM    2  C2          0      54.147  74.935 -21.074  1.00  0.00     0.201 C 
HETATM    3  C3          0      55.445  74.587 -21.409  1.00  0.00     0.067 C 
HETATM    4  C4          0      55.723  73.795 -22.517  1.00  0.00     0.103 C 
HETATM    5  O13         0      54.717  73.354 -23.251  1.00  0.00    -0.307 OA
HETATM    6  C14         0      53.470  73.685 -22.999  1.00  0.00     0.107 C 
HETATM    7  C15         0      52.475  73.571 -23.959  1.00  0.00     0.049 C 
HETATM    8  C16         0      51.226  74.153 -23.777  1.00  0.00     0.093 C 
HETATM    9  C18         0      50.864  74.363 -22.453  1.00  0.00     0.048 C 
HETATM   10  C19         0      51.831  74.436 -21.459  1.00  0.00     0.096 C 
HETATM   11  C21         0      53.151  74.283 -21.785  1.00  0.00     0.084 C 
ENDROOT
BRANCH  10  12
HETATM   12  O20         0      51.524  75.062 -20.255  1.00  0.00    -0.359 OA
HETATM   13  H20         0      51.403  74.517 -19.488  1.00  0.00     0.218 HD
ENDBRANCH  10  12
BRANCH   4  14
HETATM   14  C5          0      57.035  73.963 -23.147  1.00  0.00     0.025 C 
HETATM   15  C6          0      57.478  73.158 -24.186  1.00  0.00     0.004 C 
HETATM   16  C7          0      58.213  73.763 -25.201  1.00  0.00     0.026 C 
HETATM   17  C8          0      58.610  75.093 -25.121  1.00  0.00     0.112 C 
HETATM   18  C10         0      58.679  75.601 -23.830  1.00  0.00     0.112 C 
HETATM   19  C12         0      57.870  75.033 -22.853  1.00  0.00     0.028 C 
BRANCH  17  20
HETATM   20  O9          0      58.710  75.873 -26.259  1.00  0.00    -0.357 OA
HETATM   21  H9          0      59.449  75.842 -26.857  1.00  0.00     0.218 HD
ENDBRANCH  17  20
BRANCH  18  22
HETATM   22  O11         0      59.248  76.857 -23.679  1.00  0.00    -0.357 OA
HETATM   23  H11         0      59.169  77.265 -22.824  1.00  0.00     0.218 HD
ENDBRANCH  18  22
ENDBRANCH   4  14
BRANCH   8  24
HETATM   24  O17         0      50.554  74.780 -24.832  1.00  0.00    -0.359 OA
HETATM   25  H17         0      49.617  74.937 -24.804  1.00  0.00     0.218 HD
ENDBRANCH   8  24
TORSDOF 5
ENDMDL
MODEL 2
REMARK VINA RESULT:      -5.1      1.770      6.638
REMARK  5 active torsions:
REMARK  status: ('A' for Active; 'I' for Inactive)
REMARK    1  A    between atoms: C4_4  and  C5_5 
REMARK    2  A    between atoms: C8_8  and  O9_9 
REMARK    3  A    between atoms: C10_11  and  O11_12 
REMARK    4  A    between atoms: C16_18  and  O17_19 
REMARK    5  A    between atoms: C19_22  and  O20_23 
ROOT
HETATM    1  O1          0      58.284  74.547 -25.827  1.00  0.00    -0.286 OA
HETATM    2  C2          0      57.793  74.450 -24.669  1.00  0.00     0.201 C 
HETATM    3  C3          0      56.655  73.710 -24.396  1.00  0.00     0.067 C 
HETATM    4  C4          0      56.077  73.703 -23.132  1.00  0.00     0.103 C 
HETATM    5  O13         0      56.646  74.407 -22.169  1.00  0.00    -0.307 OA
HETATM    6  C14         0      57.705  75.156 -22.384  1.00  0.00     0.107 C 
HETATM    7  C15         0      58.062  76.182 -21.521  1.00  0.00     0.049 C 
HETATM    8  C16         0      59.019  77.125 -21.877  1.00  0.00     0.093 C 
HETATM    9  C18         0      59.933  76.701 -22.834  1.00  0.00     0.048 C 
HETATM   10  C19         0      59.627  75.647 -23.684  1.00  0.00     0.096 C 
HETATM   11  C21         0      58.422  75.008 -23.566  1.00  0.00     0.084 C 
ENDROOT
BRANCH  10  12
HETATM   12  O20         0      60.321  75.515 -24.882  1.00  0.00    -0.359 OA
HETATM   13  H20         0      60.204  74.714 -25.379  1.00  0.00     0.218 HD
ENDBRANCH  10  12
BRANCH   4  14
HETATM   14  C5          0      54.639  73.437 -23.054  1.00  0.00     0.025 C 
HETATM   15  C6          0      53.783  74.162 -22.239  1.00  0.00     0.004 C 
HETATM   16  C7          0      52.517  74.457 -22.734  1.00  0.00     0.026 C 
HETATM   17  C8          0      52.067  73.936 -23.942  1.00  0.00     0.112 C 
HETATM   18  C10         0      52.704  72.769 -24.344  1.00  0.00     0.112 C 
HETATM   19  C12         0      54.002  72.540 -23.902  1.00  0.00     0.028 C 
BRANCH  17  20
HETATM   20  O9          0      51.208  74.660 -24.750  1.00  0.00    -0.357 OA
HETATM   21  H9          0      51.124  74.523 -25.687  1.00  0.00     0.218 HD
ENDBRANCH  17  20
BRANCH  18  22
HETATM   22  O11         0      52.169  72.106 -25.439  1.00  0.00    -0.357 OA
HETATM   23  H11         0      52.205  72.557 -26.274  1.00  0.00     0.218 HD
ENDBRANCH  18  22
ENDBRANCH   4  14
BRANCH   8  24
HETATM   24  O17         0      58.864  78.478 -21.556  1.00  0.00    -0.359 OA
HETATM   25  H17         0      58.547  79.109 -22.191  1.00  0.00     0.218 HD
ENDBRANCH   8  24
TORSDOF 5
ENDMDL
MODEL 3
REMARK VINA RESULT:      -4.9      2.513      6.214
REMARK  5 active torsions:
REMARK  status: ('A' for Active; 'I' for Inactive)
REMARK    1  A    between atoms: C4_4  and  C5_5 
REMARK    2  A    between atoms: C8_8  and  O9_9 
REMARK    3  A    between atoms: C10_11  and  O11_12 
REMARK    4  A    between atoms: C16_18  and  O17_19 
REMARK    5  A    between atoms: C19_22  and  O20_23 
ROOT
HETATM    1  O1          0      56.609  77.173 -22.769  1.00  0.00    -0.286 OA
HETATM    2  C2          0      55.846  76.581 -21.958  1.00  0.00     0.201 C 
HETATM    3  C3          0      55.117  75.454 -22.298  1.00  0.00     0.067 C 
HETATM    4  C4          0      54.206  74.881 -21.418  1.00  0.00     0.103 C 
HETATM    5  O13         0      54.054  75.421 -20.222  1.00  0.00    -0.307 OA
HETATM    6  C14         0      54.693  76.513 -19.861  1.00  0.00     0.107 C 
HETATM    7  C15         0      54.259  77.298 -18.803  1.00  0.00     0.049 C 
HETATM    8  C16         0      54.777  78.569 -18.588  1.00  0.00     0.093 C 
HETATM    9  C18         0      56.049  78.780 -19.106  1.00  0.00     0.048 C 
HETATM   10  C19         0      56.533  77.983 -20.134  1.00  0.00     0.096 C 
HETATM   11  C21         0      55.758  76.969 -20.630  1.00  0.00     0.084 C 
ENDROOT
BRANCH  10  12
HETATM   12  O20         0      57.578  78.451 -20.924  1.00  0.00    -0.359 OA
HETATM   13  H20         0      58.422  78.022 -20.848  1.00  0.00     0.218 HD
ENDBRANCH  10  12
BRANCH   4  14
HETATM   14  C5          0      53.090  74.134 -22.001  1.00  0.00     0.025 C 
HETATM   15  C6          0      51.847  74.042 -21.392  1.00  0.00     0.004 C 
HETATM   16  C7          0      50.723  74.080 -22.212  1.00  0.00     0.026 C 
HETATM   17  C8          0      50.831  74.073 -23.598  1.00  0.00     0.112 C 
HETATM   18  C10         0      52.016  73.535 -24.085  1.00  0.00     0.112 C 
HETATM   19  C12         0      53.146  73.588 -23.277  1.00  0.00     0.028 C 
BRANCH  17  20
HETATM   20  O9          0      49.913  74.746 -24.384  1.00  0.00    -0.357 OA
HETATM   21  H9          0      49.923  75.687 -24.519  1.00  0.00     0.218 HD
ENDBRANCH  17  20
BRANCH  18  22
HETATM   22  O11         0      52.097  73.331 -25.455  1.00  0.00    -0.357 OA
HETATM   23  H11         0      52.201  72.433 -25.750  1.00  0.00     0.218 HD
ENDBRANCH  18  22
ENDBRANCH   4  14
BRANCH   8  24
HETATM   24  O17         0      53.959  79.633 -18.191  1.00  0.00    -0.359 OA
HETATM   25  H17         0      53.026  79.520 -18.052  1.00  0.00     0.218 HD
ENDBRANCH   8  24
TORSDOF 5
ENDMDL
MODEL 4
REMARK VINA RESULT:      -4.8      3.743      6.190
REMARK  5 active torsions:
REMARK  status: ('A' for Active; 'I' for Inactive)
REMARK    1  A    between atoms: C4_4  and  C5_5 
REMARK    2  A    between atoms: C8_8  and  O9_9 
REMARK    3  A    between atoms: C10_11  and  O11_12 
REMARK    4  A    between atoms: C16_18  and  O17_19 
REMARK    5  A    between atoms: C19_22  and  O20_23 
ROOT
HETATM    1  O1          0      56.372  73.917 -23.252  1.00  0.00    -0.286 OA
HETATM    2  C2          0      57.363  74.396 -23.868  1.00  0.00     0.201 C 
HETATM    3  C3          0      57.887  73.817 -25.012  1.00  0.00     0.067 C 
HETATM    4  C4          0      59.041  74.306 -25.613  1.00  0.00     0.103 C 
HETATM    5  O13         0      59.634  75.362 -25.084  1.00  0.00    -0.307 OA
HETATM    6  C14         0      59.200  75.927 -23.978  1.00  0.00     0.107 C 
HETATM    7  C15         0      60.011  76.750 -23.211  1.00  0.00     0.049 C 
HETATM    8  C16         0      59.641  77.135 -21.928  1.00  0.00     0.093 C 
HETATM    9  C18         0      58.273  77.116 -21.681  1.00  0.00     0.048 C 
HETATM   10  C19         0      57.427  76.339 -22.460  1.00  0.00     0.096 C 
HETATM   11  C21         0      57.940  75.599 -23.490  1.00  0.00     0.084 C 
ENDROOT
BRANCH  10  12
HETATM   12  O20         0      56.178  75.984 -21.960  1.00  0.00    -0.359 OA
HETATM   13  H20         0      55.416  76.440 -22.298  1.00  0.00     0.218 HD
ENDBRANCH  10  12
BRANCH   4  14
HETATM   14  C5          0      59.847  73.359 -26.385  1.00  0.00     0.025 C 
HETATM   15  C6          0      60.153  72.085 -25.929  1.00  0.00     0.004 C 
HETATM   16  C7          0      60.160  71.051 -26.859  1.00  0.00     0.026 C 
HETATM   17  C8          0      60.000  71.293 -28.219  1.00  0.00     0.112 C 
HETATM   18  C10         0      60.335  72.578 -28.623  1.00  0.00     0.112 C 
HETATM   19  C12         0      60.238  73.608 -27.694  1.00  0.00     0.028 C 
BRANCH  17  20
HETATM   20  O9          0      59.358  70.375 -29.032  1.00  0.00    -0.357 OA
HETATM   21  H9          0      59.809  69.696 -29.520  1.00  0.00     0.218 HD
ENDBRANCH  17  20
BRANCH  18  22
HETATM   22  O11         0      60.375  72.818 -29.989  1.00  0.00    -0.357 OA
HETATM   23  H11         0      60.852  73.587 -30.277  1.00  0.00     0.218 HD
ENDBRANCH  18  22
ENDBRANCH   4  14
BRANCH   8  24
HETATM   24  O17         0      60.575  77.201 -20.888  1.00  0.00    -0.359 OA
HETATM   25  H17         0      60.475  76.691 -20.094  1.00  0.00     0.218 HD
ENDBRANCH   8  24
TORSDOF 5
ENDMDL
MODEL 5
REMARK VINA RESULT:      -4.8      1.805      6.299
REMARK  5 active torsions:
REMARK  status: ('A' for Active; 'I' for Inactive)
REMARK    1  A    between atoms: C4_4  and  C5_5 
REMARK    2  A    between atoms: C8_8  and  O9_9 
REMARK    3  A    between atoms: C10_11  and  O11_12 
REMARK    4  A    between atoms: C16_18  and  O17_19 
REMARK    5  A    between atoms: C19_22  and  O20_23 
ROOT
HETATM    1  O1          0      58.319  72.011 -21.344  1.00  0.00    -0.286 OA
HETATM    2  C2          0      57.544  72.938 -21.706  1.00  0.00     0.201 C 
HETATM    3  C3          0      56.165  72.839 -21.624  1.00  0.00     0.067 C 
HETATM    4  C4          0      55.332  73.833 -22.124  1.00  0.00     0.103 C 
HETATM    5  O13         0      55.879  74.904 -22.670  1.00  0.00    -0.307 OA
HETATM    6  C14         0      57.181  75.032 -22.806  1.00  0.00     0.107 C 
HETATM    7  C15         0      57.737  75.927 -23.709  1.00  0.00     0.049 C 
HETATM    8  C16         0      59.088  75.880 -24.033  1.00  0.00     0.093 C 
HETATM    9  C18         0      59.903  75.303 -23.067  1.00  0.00     0.048 C 
HETATM   10  C19         0      59.371  74.439 -22.119  1.00  0.00     0.096 C 
HETATM   11  C21         0      58.030  74.167 -22.125  1.00  0.00     0.084 C 
ENDROOT
BRANCH  10  12
HETATM   12  O20         0      60.214  73.551 -21.459  1.00  0.00    -0.359 OA
HETATM   13  H20         0      61.134  73.551 -21.695  1.00  0.00     0.218 HD
ENDBRANCH  10  12
BRANCH   4  14
HETATM   14  C5          0      53.991  73.430 -22.552  1.00  0.00     0.025 C 
HETATM   15  C6          0      52.841  73.802 -21.872  1.00  0.00     0.004 C 
HETATM   16  C7          0      51.717  74.118 -22.629  1.00  0.00     0.026 C 
HETATM   17  C8          0      51.694  73.942 -24.008  1.00  0.00     0.112 C 
HETATM   18  C10         0      52.603  73.008 -24.489  1.00  0.00     0.112 C 
HETATM   19  C12         0      53.759  72.774 -23.754  1.00  0.00     0.028 C 
BRANCH  17  20
HETATM   20  O9          0      50.967  74.795 -24.820  1.00  0.00    -0.357 OA
HETATM   21  H9          0      51.186  75.709 -24.954  1.00  0.00     0.218 HD
ENDBRANCH  17  20
BRANCH  18  22
HETATM   22  O11         0      52.494  72.656 -25.826  1.00  0.00    -0.357 OA
HETATM   23  H11         0      52.139  73.311 -26.416  1.00  0.00     0.218 HD
ENDBRANCH  18  22
ENDBRANCH   4  14
BRANCH   8  24
HETATM   24  O17         0      59.531  76.080 -25.345  1.00  0.00    -0.359 OA
HETATM   25  H17         0      58.935  76.043 -26.084  1.00  0.00     0.218 HD
ENDBRANCH   8  24
TORSDOF 5
ENDMDL
MODEL 6
REMARK VINA RESULT:      -4.7      1.787      2.362
REMARK  5 active torsions:
REMARK  status: ('A' for Active; 'I' for Inactive)
REMARK    1  A    between atoms: C4_4  and  C5_5 
REMARK    2  A    between atoms: C8_8  and  O9_9 
REMARK    3  A    between atoms: C10_11  and  O11_12 
REMARK    4  A    between atoms: C16_18  and  O17_19 
REMARK    5  A    between atoms: C19_22  and  O20_23 
ROOT
HETATM    1  O1          0      55.818  76.212 -21.478  1.00  0.00    -0.286 OA
HETATM    2  C2          0      55.830  75.192 -22.220  1.00  0.00     0.201 C 
HETATM    3  C3          0      56.980  74.718 -22.827  1.00  0.00     0.067 C 
HETATM    4  C4          0      56.947  73.654 -23.721  1.00  0.00     0.103 C 
HETATM    5  O13         0      55.787  73.075 -23.975  1.00  0.00    -0.307 OA
HETATM    6  C14         0      54.660  73.508 -23.455  1.00  0.00     0.107 C 
HETATM    7  C15         0      53.429  73.184 -24.006  1.00  0.00     0.049 C 
HETATM    8  C16         0      52.268  73.841 -23.615  1.00  0.00     0.093 C 
HETATM    9  C18         0      52.312  74.405 -22.345  1.00  0.00     0.048 C 
HETATM   10  C19         0      53.529  74.698 -21.745  1.00  0.00     0.096 C 
HETATM   11  C21         0      54.695  74.416 -22.402  1.00  0.00     0.084 C 
ENDROOT
BRANCH  10  12
HETATM   12  O20         0      53.570  75.630 -20.712  1.00  0.00    -0.359 OA
HETATM   13  H20         0      54.420  75.962 -20.446  1.00  0.00     0.218 HD
ENDBRANCH  10  12
BRANCH   4  14
HETATM   14  C5          0      58.000  73.601 -24.738  1.00  0.00     0.025 C 
HETATM   15  C6          0      58.204  74.614 -25.663  1.00  0.00     0.004 C 
HETATM   16  C7          0      59.518  74.928 -25.995  1.00  0.00     0.026 C 
HETATM   17  C8          0      60.589  74.174 -25.528  1.00  0.00     0.112 C 
HETATM   18  C10         0      60.267  72.873 -25.166  1.00  0.00     0.112 C 
HETATM   19  C12         0      58.967  72.604 -24.756  1.00  0.00     0.028 C 
BRANCH  17  20
HETATM   20  O9          0      61.809  74.767 -25.259  1.00  0.00    -0.357 OA
HETATM   21  H9          0      62.326  75.229 -25.909  1.00  0.00     0.218 HD
ENDBRANCH  17  20
BRANCH  18  22
HETATM   22  O11         0      61.324  72.023 -24.874  1.00  0.00    -0.357 OA
HETATM   23  H11         0      62.137  72.427 -24.594  1.00  0.00     0.218 HD
ENDBRANCH  18  22
ENDBRANCH   4  14
BRANCH   8  24
HETATM   24  O17         0      51.283  74.195 -24.543  1.00  0.00    -0.359 OA
HETATM   25  H17         0      50.497  74.662 -24.284  1.00  0.00     0.218 HD
ENDBRANCH   8  24
TORSDOF 5
ENDMDL
MODEL 7
REMARK VINA RESULT:      -4.6      2.313      6.176
REMARK  5 active torsions:
REMARK  status: ('A' for Active; 'I' for Inactive)
REMARK    1  A    between atoms: C4_4  and  C5_5 
REMARK    2  A    between atoms: C8_8  and  O9_9 
REMARK    3  A    between atoms: C10_11  and  O11_12 
REMARK    4  A    between atoms: C16_18  and  O17_19 
REMARK    5  A    between atoms: C19_22  and  O20_23 
ROOT
HETATM    1  O1          0      56.102  74.690 -18.422  1.00  0.00    -0.286 OA
HETATM    2  C2          0      55.612  75.147 -19.491  1.00  0.00     0.201 C 
HETATM    3  C3          0      54.338  74.826 -19.929  1.00  0.00     0.067 C 
HETATM    4  C4          0      53.860  75.260 -21.160  1.00  0.00     0.103 C 
HETATM    5  O13         0      54.641  76.013 -21.914  1.00  0.00    -0.307 OA
HETATM    6  C14         0      55.871  76.316 -21.563  1.00  0.00     0.107 C 
HETATM    7  C15         0      56.811  76.747 -22.488  1.00  0.00     0.049 C 
HETATM    8  C16         0      58.161  76.819 -22.166  1.00  0.00     0.093 C 
HETATM    9  C18         0      58.434  76.964 -20.811  1.00  0.00     0.048 C 
HETATM   10  C19         0      57.497  76.586 -19.859  1.00  0.00     0.096 C 
HETATM   11  C21         0      56.289  76.083 -20.257  1.00  0.00     0.084 C 
ENDROOT
BRANCH  10  12
HETATM   12  O20         0      57.918  76.322 -18.559  1.00  0.00    -0.359 OA
HETATM   13  H20         0      57.350  75.800 -18.005  1.00  0.00     0.218 HD
ENDBRANCH  10  12
BRANCH   4  14
HETATM   14  C5          0      52.833  74.441 -21.807  1.00  0.00     0.025 C 
HETATM   15  C6          0      51.542  74.326 -21.314  1.00  0.00     0.004 C 
HETATM   16  C7          0      50.502  74.279 -22.236  1.00  0.00     0.026 C 
HETATM   17  C8          0      50.742  74.211 -23.604  1.00  0.00     0.112 C 
HETATM   18  C10         0      51.987  73.701 -23.949  1.00  0.00     0.112 C 
HETATM   19  C12         0      53.031  73.838 -23.043  1.00  0.00     0.028 C 
BRANCH  17  20
HETATM   20  O9          0      49.880  74.808 -24.506  1.00  0.00    -0.357 OA
HETATM   21  H9          0      49.814  75.748 -24.631  1.00  0.00     0.218 HD
ENDBRANCH  17  20
BRANCH  18  22
HETATM   22  O11         0      52.206  73.436 -25.294  1.00  0.00    -0.357 OA
HETATM   23  H11         0      51.677  72.753 -25.689  1.00  0.00     0.218 HD
ENDBRANCH  18  22
ENDBRANCH   4  14
BRANCH   8  24
HETATM   24  O17         0      59.150  76.438 -23.080  1.00  0.00    -0.359 OA
HETATM   25  H17         0      60.052  76.721 -22.986  1.00  0.00     0.218 HD
ENDBRANCH   8  24
TORSDOF 5
ENDMDL
MODEL 8
REMARK VINA RESULT:      -4.5      3.840      6.202
REMARK  5 active torsions:
REMARK  status: ('A' for Active; 'I' for Inactive)
REMARK    1  A    between atoms: C4_4  and  C5_5 
REMARK    2  A    between atoms: C8_8  and  O9_9 
REMARK    3  A    between atoms: C10_11  and  O11_12 
REMARK    4  A    between atoms: C16_18  and  O17_19 
REMARK    5  A    between atoms: C19_22  and  O20_23 
ROOT
HETATM    1  O1          0      56.537  73.868 -23.634  1.00  0.00    -0.286 OA
HETATM    2  C2          0      57.565  74.418 -24.117  1.00  0.00     0.201 C 
HETATM    3  C3          0      58.230  73.921 -25.225  1.00  0.00     0.067 C 
HETATM    4  C4          0      59.417  74.486 -25.676  1.00  0.00     0.103 C 
HETATM    5  O13         0      59.904  75.535 -25.036  1.00  0.00    -0.307 OA
HETATM    6  C14         0      59.333  76.022 -23.957  1.00  0.00     0.107 C 
HETATM    7  C15         0      60.022  76.835 -23.068  1.00  0.00     0.049 C 
HETATM    8  C16         0      59.504  77.136 -21.814  1.00  0.00     0.093 C 
HETATM    9  C18         0      58.120  77.051 -21.715  1.00  0.00     0.048 C 
HETATM   10  C19         0      57.394  76.284 -22.617  1.00  0.00     0.096 C 
HETATM   11  C21         0      58.045  75.620 -23.621  1.00  0.00     0.084 C 
ENDROOT
BRANCH  10  12
HETATM   12  O20         0      56.117  75.854 -22.270  1.00  0.00    -0.359 OA
HETATM   13  H20         0      55.717  75.176 -22.801  1.00  0.00     0.218 HD
ENDBRANCH  10  12
BRANCH   4  14
HETATM   14  C5          0      60.341  73.613 -26.403  1.00  0.00     0.025 C 
HETATM   15  C6          0      60.068  73.121 -27.672  1.00  0.00     0.004 C 
HETATM   16  C7          0      61.126  73.038 -28.572  1.00  0.00     0.026 C 
HETATM   17  C8          0      62.435  73.307 -28.186  1.00  0.00     0.112 C 
HETATM   18  C10         0      62.680  73.163 -26.827  1.00  0.00     0.112 C 
HETATM   19  C12         0      61.621  73.335 -25.943  1.00  0.00     0.028 C 
BRANCH  17  20
HETATM   20  O9          0      63.333  73.874 -29.072  1.00  0.00    -0.357 OA
HETATM   21  H9          0      64.202  73.527 -29.238  1.00  0.00     0.218 HD
ENDBRANCH  17  20
BRANCH  18  22
HETATM   22  O11         0      64.003  73.234 -26.416  1.00  0.00    -0.357 OA
HETATM   23  H11         0      64.291  72.590 -25.778  1.00  0.00     0.218 HD
ENDBRANCH  18  22
ENDBRANCH   4  14
BRANCH   8  24
HETATM   24  O17         0      60.321  77.184 -20.679  1.00  0.00    -0.359 OA
HETATM   25  H17         0      60.402  77.971 -20.155  1.00  0.00     0.218 HD
ENDBRANCH   8  24
TORSDOF 5
ENDMDL
MODEL 9
REMARK VINA RESULT:      -4.4      2.038      6.854
REMARK  5 active torsions:
REMARK  status: ('A' for Active; 'I' for Inactive)
REMARK    1  A    between atoms: C4_4  and  C5_5 
REMARK    2  A    between atoms: C8_8  and  O9_9 
REMARK    3  A    between atoms: C10_11  and  O11_12 
REMARK    4  A    between atoms: C16_18  and  O17_19 
REMARK    5  A    between atoms: C19_22  and  O20_23 
ROOT
HETATM    1  O1          0      60.507  73.561 -22.192  1.00  0.00    -0.286 OA
HETATM    2  C2          0      59.551  74.058 -22.849  1.00  0.00     0.201 C 
HETATM    3  C3          0      58.297  74.271 -22.303  1.00  0.00     0.067 C 
HETATM    4  C4          0      57.233  74.723 -23.075  1.00  0.00     0.103 C 
HETATM    5  O13         0      57.440  74.973 -24.356  1.00  0.00    -0.307 OA
HETATM    6  C14         0      58.601  74.753 -24.932  1.00  0.00     0.107 C 
HETATM    7  C15         0      58.721  74.625 -26.309  1.00  0.00     0.049 C 
HETATM    8  C16         0      59.888  74.145 -26.890  1.00  0.00     0.093 C 
HETATM    9  C18         0      61.037  74.312 -26.126  1.00  0.00     0.048 C 
HETATM   10  C19         0      60.950  74.489 -24.751  1.00  0.00     0.096 C 
HETATM   11  C21         0      59.723  74.515 -24.146  1.00  0.00     0.084 C 
ENDROOT
BRANCH  10  12
HETATM   12  O20         0      62.062  74.221 -23.959  1.00  0.00    -0.359 OA
HETATM   13  H20         0      62.863  73.951 -24.393  1.00  0.00     0.218 HD
ENDBRANCH  10  12
BRANCH   4  14
HETATM   14  C5          0      55.884  74.359 -22.637  1.00  0.00     0.025 C 
HETATM   15  C6          0      55.044  75.243 -21.976  1.00  0.00     0.004 C 
HETATM   16  C7          0      53.690  75.202 -22.290  1.00  0.00     0.026 C 
HETATM   17  C8          0      53.165  74.228 -23.132  1.00  0.00     0.112 C 
HETATM   18  C10         0      53.923  73.067 -23.218  1.00  0.00     0.112 C 
HETATM   19  C12         0      55.290  73.152 -22.982  1.00  0.00     0.028 C 
BRANCH  17  20
HETATM   20  O9          0      52.094  74.509 -23.961  1.00  0.00    -0.357 OA
HETATM   21  H9          0      51.299  74.940 -23.669  1.00  0.00     0.218 HD
ENDBRANCH  17  20
BRANCH  18  22
HETATM   22  O11         0      53.355  71.995 -23.891  1.00  0.00    -0.357 OA
HETATM   23  H11         0      53.943  71.300 -24.167  1.00  0.00     0.218 HD
ENDBRANCH  18  22
ENDBRANCH   4  14
BRANCH   8  24
HETATM   24  O17         0      59.853  73.271 -27.982  1.00  0.00    -0.359 OA
HETATM   25  H17         0      60.439  73.374 -28.723  1.00  0.00     0.218 HD
ENDBRANCH   8  24
TORSDOF 5
ENDMDL
