MODEL 1
REMARK VINA RESULT:      -4.7      0.000      0.000
REMARK  5 active torsions:
REMARK  status: ('A' for Active; 'I' for Inactive)
REMARK    1  A    between atoms: C4_4  and  C5_5 
REMARK    2  A    between atoms: C8_8  and  O9_9 
REMARK    3  A    between atoms: C10_11  and  O11_12 
REMARK    4  A    between atoms: C16_18  and  O17_19 
REMARK    5  A    between atoms: C19_22  and  O20_23 
ROOT
HETATM    1  O1          0      53.447  75.776  -5.413  1.00  0.00    -0.286 OA
HETATM    2  C2          0      52.448  76.179  -4.756  1.00  0.00     0.201 C 
HETATM    3  C3          0      52.265  77.506  -4.406  1.00  0.00     0.067 C 
HETATM    4  C4          0      51.210  77.907  -3.594  1.00  0.00     0.103 C 
HETATM    5  O13         0      50.356  76.994  -3.167  1.00  0.00    -0.307 OA
HETATM    6  C14         0      50.505  75.715  -3.438  1.00  0.00     0.107 C 
HETATM    7  C15         0      49.875  74.731  -2.690  1.00  0.00     0.049 C 
HETATM    8  C16         0      50.230  73.393  -2.812  1.00  0.00     0.093 C 
HETATM    9  C18         0      50.809  73.049  -4.028  1.00  0.00     0.048 C 
HETATM   10  C19         0      51.407  74.017  -4.824  1.00  0.00     0.096 C 
HETATM   11  C21         0      51.411  75.323  -4.417  1.00  0.00     0.084 C 
ENDROOT
BRANCH  10  12
HETATM   12  O20         0      52.338  73.629  -5.783  1.00  0.00    -0.359 OA
HETATM   13  H20         0      52.564  74.253  -6.462  1.00  0.00     0.218 HD
ENDBRANCH  10  12
BRANCH   4  14
HETATM   14  C5          0      51.401  79.120  -2.798  1.00  0.00     0.025 C 
HETATM   15  C6          0      50.685  80.287  -3.022  1.00  0.00     0.004 C 
HETATM   16  C7          0      50.289  81.024  -1.911  1.00  0.00     0.026 C 
HETATM   17  C8          0      50.704  80.687  -0.627  1.00  0.00     0.112 C 
HETATM   18  C10         0      51.875  79.943  -0.572  1.00  0.00     0.112 C 
HETATM   19  C12         0      52.203  79.148  -1.664  1.00  0.00     0.028 C 
BRANCH  17  20
HETATM   20  O9          0      49.883  80.908   0.465  1.00  0.00    -0.357 OA
HETATM   21  H9          0      49.696  80.252   1.126  1.00  0.00     0.218 HD
ENDBRANCH  17  20
BRANCH  18  22
HETATM   22  O11         0      52.434  79.741   0.682  1.00  0.00    -0.357 OA
HETATM   23  H11         0      52.437  78.851   1.013  1.00  0.00     0.218 HD
ENDBRANCH  18  22
ENDBRANCH   4  14
BRANCH   8  24
HETATM   24  O17         0      50.311  72.555  -1.695  1.00  0.00    -0.359 OA
HETATM   25  H17         0      51.046  72.592  -1.095  1.00  0.00     0.218 HD
ENDBRANCH   8  24
TORSDOF 5
ENDMDL
MODEL 2
REMARK VINA RESULT:      -4.5      1.663      2.654
REMARK  5 active torsions:
REMARK  status: ('A' for Active; 'I' for Inactive)
REMARK    1  A    between atoms: C4_4  and  C5_5 
REMARK    2  A    between atoms: C8_8  and  O9_9 
REMARK    3  A    between atoms: C10_11  and  O11_12 
REMARK    4  A    between atoms: C16_18  and  O17_19 
REMARK    5  A    between atoms: C19_22  and  O20_23 
ROOT
HETATM    1  O1          0      51.743  74.326  -0.164  1.00  0.00    -0.286 OA
HETATM    2  C2          0      52.060  75.159  -1.056  1.00  0.00     0.201 C 
HETATM    3  C3          0      52.427  76.463  -0.768  1.00  0.00     0.067 C 
HETATM    4  C4          0      52.672  77.390  -1.775  1.00  0.00     0.103 C 
HETATM    5  O13         0      52.569  77.002  -3.034  1.00  0.00    -0.307 OA
HETATM    6  C14         0      52.187  75.787  -3.362  1.00  0.00     0.107 C 
HETATM    7  C15         0      51.697  75.491  -4.625  1.00  0.00     0.049 C 
HETATM    8  C16         0      51.063  74.283  -4.889  1.00  0.00     0.093 C 
HETATM    9  C18         0      51.412  73.239  -4.040  1.00  0.00     0.048 C 
HETATM   10  C19         0      51.949  73.499  -2.786  1.00  0.00     0.096 C 
HETATM   11  C21         0      52.152  74.793  -2.390  1.00  0.00     0.084 C 
ENDROOT
BRANCH  10  12
HETATM   12  O20         0      51.887  72.517  -1.803  1.00  0.00    -0.359 OA
HETATM   13  H20         0      52.699  72.105  -1.533  1.00  0.00     0.218 HD
ENDBRANCH  10  12
BRANCH   4  14
HETATM   14  C5          0      52.456  78.801  -1.452  1.00  0.00     0.025 C 
HETATM   15  C6          0      51.509  79.584  -2.097  1.00  0.00     0.004 C 
HETATM   16  C7          0      50.807  80.508  -1.330  1.00  0.00     0.026 C 
HETATM   17  C8          0      51.127  80.743   0.003  1.00  0.00     0.112 C 
HETATM   18  C10         0      52.429  80.411   0.354  1.00  0.00     0.112 C 
HETATM   19  C12         0      53.078  79.423  -0.377  1.00  0.00     0.028 C 
BRANCH  17  20
HETATM   20  O9          0      50.146  81.078   0.919  1.00  0.00    -0.357 OA
HETATM   21  H9          0      49.817  80.482   1.582  1.00  0.00     0.218 HD
ENDBRANCH  17  20
BRANCH  18  22
HETATM   22  O11         0      52.858  80.799   1.615  1.00  0.00    -0.357 OA
HETATM   23  H11         0      53.754  81.105   1.689  1.00  0.00     0.218 HD
ENDBRANCH  18  22
ENDBRANCH   4  14
BRANCH   8  24
HETATM   24  O17         0      49.930  74.217  -5.708  1.00  0.00    -0.359 OA
HETATM   25  H17         0      49.177  74.777  -5.564  1.00  0.00     0.218 HD
ENDBRANCH   8  24
TORSDOF 5
ENDMDL
MODEL 3
REMARK VINA RESULT:      -4.5      1.960      6.928
REMARK  5 active torsions:
REMARK  status: ('A' for Active; 'I' for Inactive)
REMARK    1  A    between atoms: C4_4  and  C5_5 
REMARK    2  A    between atoms: C8_8  and  O9_9 
REMARK    3  A    between atoms: C10_11  and  O11_12 
REMARK    4  A    between atoms: C16_18  and  O17_19 
REMARK    5  A    between atoms: C19_22  and  O20_23 
ROOT
HETATM    1  O1          0      52.336  79.632  -0.414  1.00  0.00    -0.286 OA
HETATM    2  C2          0      51.696  79.293  -1.446  1.00  0.00     0.201 C 
HETATM    3  C3          0      51.813  78.040  -2.024  1.00  0.00     0.067 C 
HETATM    4  C4          0      51.176  77.726  -3.219  1.00  0.00     0.103 C 
HETATM    5  O13         0      50.426  78.646  -3.799  1.00  0.00    -0.307 OA
HETATM    6  C14         0      50.311  79.863  -3.313  1.00  0.00     0.107 C 
HETATM    7  C15         0      49.876  80.924  -4.094  1.00  0.00     0.049 C 
HETATM    8  C16         0      49.998  82.238  -3.659  1.00  0.00     0.093 C 
HETATM    9  C18         0      50.057  82.396  -2.279  1.00  0.00     0.048 C 
HETATM   10  C19         0      50.443  81.341  -1.464  1.00  0.00     0.096 C 
HETATM   11  C21         0      50.752  80.130  -2.022  1.00  0.00     0.084 C 
ENDROOT
BRANCH  10  12
HETATM   12  O20         0      50.915  81.609  -0.183  1.00  0.00    -0.359 OA
HETATM   13  H20         0      50.406  82.193   0.366  1.00  0.00     0.218 HD
ENDBRANCH  10  12
BRANCH   4  14
HETATM   14  C5          0      51.786  76.687  -4.050  1.00  0.00     0.025 C 
HETATM   15  C6          0      51.446  75.345  -3.947  1.00  0.00     0.004 C 
HETATM   16  C7          0      51.376  74.606  -5.124  1.00  0.00     0.026 C 
HETATM   17  C8          0      51.760  75.144  -6.347  1.00  0.00     0.112 C 
HETATM   18  C10         0      52.649  76.207  -6.259  1.00  0.00     0.112 C 
HETATM   19  C12         0      52.638  76.983  -5.106  1.00  0.00     0.028 C 
BRANCH  17  20
HETATM   20  O9          0      51.127  74.766  -7.518  1.00  0.00    -0.357 OA
HETATM   21  H9          0      50.760  75.382  -8.141  1.00  0.00     0.218 HD
ENDBRANCH  17  20
BRANCH  18  22
HETATM   22  O11         0      53.209  76.657  -7.446  1.00  0.00    -0.357 OA
HETATM   23  H11         0      53.527  75.996  -8.050  1.00  0.00     0.218 HD
ENDBRANCH  18  22
ENDBRANCH   4  14
BRANCH   8  24
HETATM   24  O17         0      50.370  83.265  -4.534  1.00  0.00    -0.359 OA
HETATM   25  H17         0      51.275  83.403  -4.785  1.00  0.00     0.218 HD
ENDBRANCH   8  24
TORSDOF 5
ENDMDL
MODEL 4
REMARK VINA RESULT:      -4.5      1.810      6.621
REMARK  5 active torsions:
REMARK  status: ('A' for Active; 'I' for Inactive)
REMARK    1  A    between atoms: C4_4  and  C5_5 
REMARK    2  A    between atoms: C8_8  and  O9_9 
REMARK    3  A    between atoms: C10_11  and  O11_12 
REMARK    4  A    between atoms: C16_18  and  O17_19 
REMARK    5  A    between atoms: C19_22  and  O20_23 
ROOT
HETATM    1  O1          0      49.876  80.765  -3.867  1.00  0.00    -0.286 OA
HETATM    2  C2          0      50.607  80.017  -3.160  1.00  0.00     0.201 C 
HETATM    3  C3          0      50.923  78.718  -3.522  1.00  0.00     0.067 C 
HETATM    4  C4          0      51.645  77.882  -2.677  1.00  0.00     0.103 C 
HETATM    5  O13         0      52.050  78.354  -1.512  1.00  0.00    -0.307 OA
HETATM    6  C14         0      51.745  79.566  -1.104  1.00  0.00     0.107 C 
HETATM    7  C15         0      51.810  79.925   0.235  1.00  0.00     0.049 C 
HETATM    8  C16         0      51.250  81.112   0.692  1.00  0.00     0.093 C 
HETATM    9  C18         0      51.123  82.109  -0.268  1.00  0.00     0.048 C 
HETATM   10  C19         0      51.101  81.789  -1.619  1.00  0.00     0.096 C 
HETATM   11  C21         0      51.223  80.484  -2.009  1.00  0.00     0.084 C 
ENDROOT
BRANCH  10  12
HETATM   12  O20         0      50.550  82.692  -2.522  1.00  0.00    -0.359 OA
HETATM   13  H20         0      51.140  83.154  -3.106  1.00  0.00     0.218 HD
ENDBRANCH  10  12
BRANCH   4  14
HETATM   14  C5          0      51.429  76.441  -2.818  1.00  0.00     0.025 C 
HETATM   15  C6          0      50.339  75.906  -3.488  1.00  0.00     0.004 C 
HETATM   16  C7          0      50.551  74.767  -4.258  1.00  0.00     0.026 C 
HETATM   17  C8          0      51.774  74.103  -4.257  1.00  0.00     0.112 C 
HETATM   18  C10         0      52.549  74.318  -3.125  1.00  0.00     0.112 C 
HETATM   19  C12         0      52.375  75.505  -2.422  1.00  0.00     0.028 C 
BRANCH  17  20
HETATM   20  O9          0      52.235  73.465  -5.395  1.00  0.00    -0.357 OA
HETATM   21  H9          0      52.961  73.782  -5.920  1.00  0.00     0.218 HD
ENDBRANCH  17  20
BRANCH  18  22
HETATM   22  O11         0      53.687  73.537  -2.985  1.00  0.00    -0.357 OA
HETATM   23  H11         0      53.594  72.725  -2.500  1.00  0.00     0.218 HD
ENDBRANCH  18  22
ENDBRANCH   4  14
BRANCH   8  24
HETATM   24  O17         0      50.567  81.174   1.912  1.00  0.00    -0.359 OA
HETATM   25  H17         0      50.606  81.943   2.467  1.00  0.00     0.218 HD
ENDBRANCH   8  24
TORSDOF 5
ENDMDL
MODEL 5
REMARK VINA RESULT:      -4.3      2.050      2.705
REMARK  5 active torsions:
REMARK  status: ('A' for Active; 'I' for Inactive)
REMARK    1  A    between atoms: C4_4  and  C5_5 
REMARK    2  A    between atoms: C8_8  and  O9_9 
REMARK    3  A    between atoms: C10_11  and  O11_12 
REMARK    4  A    between atoms: C16_18  and  O17_19 
REMARK    5  A    between atoms: C19_22  and  O20_23 
ROOT
HETATM    1  O1          0      50.177  73.614  -5.256  1.00  0.00    -0.286 OA
HETATM    2  C2          0      50.650  74.012  -4.156  1.00  0.00     0.201 C 
HETATM    3  C3          0      50.591  75.334  -3.749  1.00  0.00     0.067 C 
HETATM    4  C4          0      51.210  75.765  -2.581  1.00  0.00     0.103 C 
HETATM    5  O13         0      51.851  74.879  -1.838  1.00  0.00    -0.307 OA
HETATM    6  C14         0      51.968  73.620  -2.198  1.00  0.00     0.107 C 
HETATM    7  C15         0      52.945  72.794  -1.660  1.00  0.00     0.049 C 
HETATM    8  C16         0      53.230  71.554  -2.219  1.00  0.00     0.093 C 
HETATM    9  C18         0      52.190  70.984  -2.944  1.00  0.00     0.048 C 
HETATM   10  C19         0      51.172  71.776  -3.457  1.00  0.00     0.096 C 
HETATM   11  C21         0      51.182  73.125  -3.233  1.00  0.00     0.084 C 
ENDROOT
BRANCH  10  12
HETATM   12  O20         0      50.404  71.296  -4.514  1.00  0.00    -0.359 OA
HETATM   13  H20         0      50.204  71.892  -5.225  1.00  0.00     0.218 HD
ENDBRANCH  10  12
BRANCH   4  14
HETATM   14  C5          0      51.627  77.167  -2.521  1.00  0.00     0.025 C 
HETATM   15  C6          0      51.131  78.136  -3.382  1.00  0.00     0.004 C 
HETATM   16  C7          0      50.887  79.401  -2.856  1.00  0.00     0.026 C 
HETATM   17  C8          0      51.249  79.732  -1.555  1.00  0.00     0.112 C 
HETATM   18  C10         0      52.266  78.953  -1.020  1.00  0.00     0.112 C 
HETATM   19  C12         0      52.433  77.662  -1.504  1.00  0.00     0.028 C 
BRANCH  17  20
HETATM   20  O9          0      50.493  80.623  -0.814  1.00  0.00    -0.357 OA
HETATM   21  H9          0      50.280  81.503  -1.104  1.00  0.00     0.218 HD
ENDBRANCH  17  20
BRANCH  18  22
HETATM   22  O11         0      52.794  79.359   0.198  1.00  0.00    -0.357 OA
HETATM   23  H11         0      53.705  79.627   0.204  1.00  0.00     0.218 HD
ENDBRANCH  18  22
ENDBRANCH   4  14
BRANCH   8  24
HETATM   24  O17         0      54.545  71.088  -2.328  1.00  0.00    -0.359 OA
HETATM   25  H17         0      54.738  70.187  -2.558  1.00  0.00     0.218 HD
ENDBRANCH   8  24
TORSDOF 5
ENDMDL
MODEL 6
REMARK VINA RESULT:      -4.3      1.652      2.118
REMARK  5 active torsions:
REMARK  status: ('A' for Active; 'I' for Inactive)
REMARK    1  A    between atoms: C4_4  and  C5_5 
REMARK    2  A    between atoms: C8_8  and  O9_9 
REMARK    3  A    between atoms: C10_11  and  O11_12 
REMARK    4  A    between atoms: C16_18  and  O17_19 
REMARK    5  A    between atoms: C19_22  and  O20_23 
ROOT
HETATM    1  O1          0      53.697  75.241  -5.016  1.00  0.00    -0.286 OA
HETATM    2  C2          0      52.584  75.583  -4.531  1.00  0.00     0.201 C 
HETATM    3  C3          0      52.232  76.905  -4.317  1.00  0.00     0.067 C 
HETATM    4  C4          0      51.042  77.249  -3.687  1.00  0.00     0.103 C 
HETATM    5  O13         0      50.224  76.284  -3.305  1.00  0.00    -0.307 OA
HETATM    6  C14         0      50.526  75.013  -3.450  1.00  0.00     0.107 C 
HETATM    7  C15         0      49.891  74.022  -2.716  1.00  0.00     0.049 C 
HETATM    8  C16         0      50.381  72.722  -2.683  1.00  0.00     0.093 C 
HETATM    9  C18         0      51.154  72.358  -3.779  1.00  0.00     0.048 C 
HETATM   10  C19         0      51.766  73.326  -4.563  1.00  0.00     0.096 C 
HETATM   11  C21         0      51.593  74.650  -4.265  1.00  0.00     0.084 C 
ENDROOT
BRANCH  10  12
HETATM   12  O20         0      52.853  72.972  -5.356  1.00  0.00    -0.359 OA
HETATM   13  H20         0      53.180  72.083  -5.291  1.00  0.00     0.218 HD
ENDBRANCH  10  12
BRANCH   4  14
HETATM   14  C5          0      51.007  78.526  -2.972  1.00  0.00     0.025 C 
HETATM   15  C6          0      51.882  78.834  -1.940  1.00  0.00     0.004 C 
HETATM   16  C7          0      52.357  80.140  -1.867  1.00  0.00     0.026 C 
HETATM   17  C8          0      51.878  81.139  -2.707  1.00  0.00     0.112 C 
HETATM   18  C10         0      50.615  80.900  -3.231  1.00  0.00     0.112 C 
HETATM   19  C12         0      50.198  79.582  -3.373  1.00  0.00     0.028 C 
BRANCH  17  20
HETATM   20  O9          0      52.704  82.165  -3.130  1.00  0.00    -0.357 OA
HETATM   21  H9          0      53.322  82.084  -3.848  1.00  0.00     0.218 HD
ENDBRANCH  17  20
BRANCH  18  22
HETATM   22  O11         0      50.013  81.943  -3.920  1.00  0.00    -0.357 OA
HETATM   23  H11         0      50.563  82.685  -4.144  1.00  0.00     0.218 HD
ENDBRANCH  18  22
ENDBRANCH   4  14
BRANCH   8  24
HETATM   24  O17         0      50.382  71.973  -1.501  1.00  0.00    -0.359 OA
HETATM   25  H17         0      50.345  72.387  -0.647  1.00  0.00     0.218 HD
ENDBRANCH   8  24
TORSDOF 5
ENDMDL
MODEL 7
REMARK VINA RESULT:      -4.2      2.389      3.314
REMARK  5 active torsions:
REMARK  status: ('A' for Active; 'I' for Inactive)
REMARK    1  A    between atoms: C4_4  and  C5_5 
REMARK    2  A    between atoms: C8_8  and  O9_9 
REMARK    3  A    between atoms: C10_11  and  O11_12 
REMARK    4  A    between atoms: C16_18  and  O17_19 
REMARK    5  A    between atoms: C19_22  and  O20_23 
ROOT
HETATM    1  O1          0      52.672  74.488   0.330  1.00  0.00    -0.286 OA
HETATM    2  C2          0      52.539  75.047  -0.794  1.00  0.00     0.201 C 
HETATM    3  C3          0      52.511  76.422  -0.949  1.00  0.00     0.067 C 
HETATM    4  C4          0      52.261  77.011  -2.184  1.00  0.00     0.103 C 
HETATM    5  O13         0      52.065  76.230  -3.231  1.00  0.00    -0.307 OA
HETATM    6  C14         0      52.044  74.919  -3.132  1.00  0.00     0.107 C 
HETATM    7  C15         0      51.458  74.121  -4.104  1.00  0.00     0.049 C 
HETATM    8  C16         0      51.211  72.772  -3.879  1.00  0.00     0.093 C 
HETATM    9  C18         0      52.024  72.179  -2.920  1.00  0.00     0.048 C 
HETATM   10  C19         0      52.663  72.952  -1.961  1.00  0.00     0.096 C 
HETATM   11  C21         0      52.505  74.311  -1.969  1.00  0.00     0.084 C 
ENDROOT
BRANCH  10  12
HETATM   12  O20         0      53.097  72.353  -0.782  1.00  0.00    -0.359 OA
HETATM   13  H20         0      53.217  71.411  -0.780  1.00  0.00     0.218 HD
ENDBRANCH  10  12
BRANCH   4  14
HETATM   14  C5          0      51.662  78.347  -2.179  1.00  0.00     0.025 C 
HETATM   15  C6          0      51.964  79.303  -1.220  1.00  0.00     0.004 C 
HETATM   16  C7          0      52.067  80.626  -1.639  1.00  0.00     0.026 C 
HETATM   17  C8          0      51.750  81.006  -2.938  1.00  0.00     0.112 C 
HETATM   18  C10         0      50.886  80.145  -3.600  1.00  0.00     0.112 C 
HETATM   19  C12         0      50.864  78.809  -3.218  1.00  0.00     0.028 C 
BRANCH  17  20
HETATM   20  O9          0      52.425  82.044  -3.558  1.00  0.00    -0.357 OA
HETATM   21  H9          0      53.303  81.965  -3.913  1.00  0.00     0.218 HD
ENDBRANCH  17  20
BRANCH  18  22
HETATM   22  O11         0      50.389  80.571  -4.824  1.00  0.00    -0.357 OA
HETATM   23  H11         0      50.258  81.506  -4.933  1.00  0.00     0.218 HD
ENDBRANCH  18  22
ENDBRANCH   4  14
BRANCH   8  24
HETATM   24  O17         0      50.033  72.162  -4.324  1.00  0.00    -0.359 OA
HETATM   25  H17         0      49.951  71.822  -5.208  1.00  0.00     0.218 HD
ENDBRANCH   8  24
TORSDOF 5
ENDMDL
MODEL 8
REMARK VINA RESULT:      -4.2      2.866      8.402
REMARK  5 active torsions:
REMARK  status: ('A' for Active; 'I' for Inactive)
REMARK    1  A    between atoms: C4_4  and  C5_5 
REMARK    2  A    between atoms: C8_8  and  O9_9 
REMARK    3  A    between atoms: C10_11  and  O11_12 
REMARK    4  A    between atoms: C16_18  and  O17_19 
REMARK    5  A    between atoms: C19_22  and  O20_23 
ROOT
HETATM    1  O1          0      51.759  81.976   3.036  1.00  0.00    -0.286 OA
HETATM    2  C2          0      51.348  81.812   1.855  1.00  0.00     0.201 C 
HETATM    3  C3          0      51.511  80.625   1.161  1.00  0.00     0.067 C 
HETATM    4  C4          0      51.142  80.505  -0.174  1.00  0.00     0.103 C 
HETATM    5  O13         0      50.605  81.549  -0.781  1.00  0.00    -0.307 OA
HETATM    6  C14         0      50.463  82.709  -0.180  1.00  0.00     0.107 C 
HETATM    7  C15         0      50.285  83.885  -0.894  1.00  0.00     0.049 C 
HETATM    8  C16         0      50.391  85.127  -0.279  1.00  0.00     0.093 C 
HETATM    9  C18         0      50.146  85.126   1.089  1.00  0.00     0.048 C 
HETATM   10  C19         0      50.269  83.957   1.827  1.00  0.00     0.096 C 
HETATM   11  C21         0      50.616  82.791   1.200  1.00  0.00     0.084 C 
ENDROOT
BRANCH  10  12
HETATM   12  O20         0      50.455  84.037   3.204  1.00  0.00    -0.359 OA
HETATM   13  H20         0      51.344  84.016   3.535  1.00  0.00     0.218 HD
ENDBRANCH  10  12
BRANCH   4  14
HETATM   14  C5          0      51.856  79.512  -0.979  1.00  0.00     0.025 C 
HETATM   15  C6          0      52.786  78.634  -0.440  1.00  0.00     0.004 C 
HETATM   16  C7          0      52.806  77.334  -0.934  1.00  0.00     0.026 C 
HETATM   17  C8          0      52.023  76.952  -2.018  1.00  0.00     0.112 C 
HETATM   18  C10         0      51.640  77.995  -2.852  1.00  0.00     0.112 C 
HETATM   19  C12         0      51.546  79.272  -2.311  1.00  0.00     0.028 C 
BRANCH  17  20
HETATM   20  O9          0      51.511  75.670  -2.106  1.00  0.00    -0.357 OA
HETATM   21  H9          0      50.789  75.352  -1.577  1.00  0.00     0.218 HD
ENDBRANCH  17  20
BRANCH  18  22
HETATM   22  O11         0      51.021  77.650  -4.045  1.00  0.00    -0.357 OA
HETATM   23  H11         0      50.899  78.344  -4.682  1.00  0.00     0.218 HD
ENDBRANCH  18  22
ENDBRANCH   4  14
BRANCH   8  24
HETATM   24  O17         0      51.017  86.205  -0.913  1.00  0.00    -0.359 OA
HETATM   25  H17         0      51.708  86.075  -1.552  1.00  0.00     0.218 HD
ENDBRANCH   8  24
TORSDOF 5
ENDMDL
MODEL 9
REMARK VINA RESULT:      -3.9      3.081      7.798
REMARK  5 active torsions:
REMARK  status: ('A' for Active; 'I' for Inactive)
REMARK    1  A    between atoms: C4_4  and  C5_5 
REMARK    2  A    between atoms: C8_8  and  O9_9 
REMARK    3  A    between atoms: C10_11  and  O11_12 
REMARK    4  A    between atoms: C16_18  and  O17_19 
REMARK    5  A    between atoms: C19_22  and  O20_23 
ROOT
HETATM    1  O1          0      52.661  80.352   1.632  1.00  0.00    -0.286 OA
HETATM    2  C2          0      51.786  80.696   0.791  1.00  0.00     0.201 C 
HETATM    3  C3          0      51.530  79.975  -0.363  1.00  0.00     0.067 C 
HETATM    4  C4          0      50.633  80.431  -1.322  1.00  0.00     0.103 C 
HETATM    5  O13         0      50.000  81.571  -1.109  1.00  0.00    -0.307 OA
HETATM    6  C14         0      50.234  82.313  -0.049  1.00  0.00     0.107 C 
HETATM    7  C15         0      49.896  83.658  -0.008  1.00  0.00     0.049 C 
HETATM    8  C16         0      50.368  84.491   0.999  1.00  0.00     0.093 C 
HETATM    9  C18         0      50.711  83.846   2.181  1.00  0.00     0.048 C 
HETATM   10  C19         0      51.010  82.491   2.185  1.00  0.00     0.096 C 
HETATM   11  C21         0      50.951  81.779   1.017  1.00  0.00     0.084 C 
ENDROOT
BRANCH  10  12
HETATM   12  O20         0      51.754  81.961   3.234  1.00  0.00    -0.359 OA
HETATM   13  H20         0      52.489  82.467   3.560  1.00  0.00     0.218 HD
ENDBRANCH  10  12
BRANCH   4  14
HETATM   14  C5          0      50.848  79.992  -2.702  1.00  0.00     0.025 C 
HETATM   15  C6          0      50.792  80.858  -3.785  1.00  0.00     0.004 C 
HETATM   16  C7          0      51.706  80.663  -4.814  1.00  0.00     0.026 C 
HETATM   17  C8          0      52.560  79.566  -4.834  1.00  0.00     0.112 C 
HETATM   18  C10         0      52.120  78.476  -4.095  1.00  0.00     0.112 C 
HETATM   19  C12         0      51.273  78.708  -3.017  1.00  0.00     0.028 C 
BRANCH  17  20
HETATM   20  O9          0      53.829  79.664  -5.377  1.00  0.00    -0.357 OA
HETATM   21  H9          0      54.003  79.681  -6.311  1.00  0.00     0.218 HD
ENDBRANCH  17  20
BRANCH  18  22
HETATM   22  O11         0      52.834  77.294  -4.231  1.00  0.00    -0.357 OA
HETATM   23  H11         0      52.345  76.484  -4.145  1.00  0.00     0.218 HD
ENDBRANCH  18  22
ENDBRANCH   4  14
BRANCH   8  24
HETATM   24  O17         0      50.781  85.800   0.728  1.00  0.00    -0.359 OA
HETATM   25  H17         0      51.700  86.026   0.640  1.00  0.00     0.218 HD
ENDBRANCH   8  24
TORSDOF 5
ENDMDL
