MODEL 1
REMARK VINA RESULT:      -7.5      0.000      0.000
REMARK  5 active torsions:
REMARK  status: ('A' for Active; 'I' for Inactive)
REMARK    1  A    between atoms: C4_4  and  C5_5 
REMARK    2  A    between atoms: C8_8  and  O9_9 
REMARK    3  A    between atoms: C10_11  and  O11_12 
REMARK    4  A    between atoms: C16_18  and  O17_19 
REMARK    5  A    between atoms: C19_22  and  O20_23 
ROOT
HETATM    1  O1          0      62.249  25.704  -3.383  1.00  0.00    -0.286 OA
HETATM    2  C2          0      61.839  24.521  -3.227  1.00  0.00     0.201 C 
HETATM    3  C3          0      61.369  23.745  -4.274  1.00  0.00     0.067 C 
HETATM    4  C4          0      60.827  22.483  -4.059  1.00  0.00     0.103 C 
HETATM    5  O13         0      60.782  22.014  -2.825  1.00  0.00    -0.307 OA
HETATM    6  C14         0      61.179  22.723  -1.792  1.00  0.00     0.107 C 
HETATM    7  C15         0      60.777  22.420  -0.499  1.00  0.00     0.049 C 
HETATM    8  C16         0      60.985  23.310   0.548  1.00  0.00     0.093 C 
HETATM    9  C18         0      62.033  24.203   0.360  1.00  0.00     0.048 C 
HETATM   10  C19         0      62.492  24.493  -0.917  1.00  0.00     0.096 C 
HETATM   11  C21         0      61.919  23.882  -1.999  1.00  0.00     0.084 C 
ENDROOT
BRANCH  10  12
HETATM   12  O20         0      63.205  25.668  -1.133  1.00  0.00    -0.359 OA
HETATM   13  H20         0      62.827  26.482  -0.822  1.00  0.00     0.218 HD
ENDBRANCH  10  12
BRANCH   4  14
HETATM   14  C5          0      59.846  22.001  -5.034  1.00  0.00     0.025 C 
HETATM   15  C6          0      60.164  21.093  -6.034  1.00  0.00     0.004 C 
HETATM   16  C7          0      59.216  20.125  -6.349  1.00  0.00     0.026 C 
HETATM   17  C8          0      57.944  20.139  -5.787  1.00  0.00     0.112 C 
HETATM   18  C10         0      57.526  21.380  -5.327  1.00  0.00     0.112 C 
HETATM   19  C12         0      58.493  22.300  -4.938  1.00  0.00     0.028 C 
BRANCH  17  20
HETATM   20  O9          0      57.270  18.958  -5.530  1.00  0.00    -0.357 OA
HETATM   21  H9          0      56.717  18.516  -6.164  1.00  0.00     0.218 HD
ENDBRANCH  17  20
BRANCH  18  22
HETATM   22  O11         0      56.201  21.491  -4.932  1.00  0.00    -0.357 OA
HETATM   23  H11         0      55.539  21.310  -5.590  1.00  0.00     0.218 HD
ENDBRANCH  18  22
ENDBRANCH   4  14
BRANCH   8  24
HETATM   24  O17         0      60.018  23.508   1.540  1.00  0.00    -0.359 OA
HETATM   25  H17         0      59.485  24.294   1.567  1.00  0.00     0.218 HD
ENDBRANCH   8  24
TORSDOF 5
ENDMDL
MODEL 2
REMARK VINA RESULT:      -7.3      1.297      1.778
REMARK  5 active torsions:
REMARK  status: ('A' for Active; 'I' for Inactive)
REMARK    1  A    between atoms: C4_4  and  C5_5 
REMARK    2  A    between atoms: C8_8  and  O9_9 
REMARK    3  A    between atoms: C10_11  and  O11_12 
REMARK    4  A    between atoms: C16_18  and  O17_19 
REMARK    5  A    between atoms: C19_22  and  O20_23 
ROOT
HETATM    1  O1          0      61.966  25.558  -3.676  1.00  0.00    -0.286 OA
HETATM    2  C2          0      61.738  24.359  -3.357  1.00  0.00     0.201 C 
HETATM    3  C3          0      61.361  23.396  -4.277  1.00  0.00     0.067 C 
HETATM    4  C4          0      61.016  22.108  -3.884  1.00  0.00     0.103 C 
HETATM    5  O13         0      61.071  21.800  -2.600  1.00  0.00    -0.307 OA
HETATM    6  C14         0      61.386  22.686  -1.682  1.00  0.00     0.107 C 
HETATM    7  C15         0      61.065  22.499  -0.345  1.00  0.00     0.049 C 
HETATM    8  C16         0      61.167  23.537   0.574  1.00  0.00     0.093 C 
HETATM    9  C18         0      62.067  24.538   0.231  1.00  0.00     0.048 C 
HETATM   10  C19         0      62.446  24.724  -1.092  1.00  0.00     0.096 C 
HETATM   11  C21         0      61.942  23.902  -2.064  1.00  0.00     0.084 C 
ENDROOT
BRANCH  10  12
HETATM   12  O20         0      62.973  25.950  -1.483  1.00  0.00    -0.359 OA
HETATM   13  H20         0      62.940  26.667  -0.862  1.00  0.00     0.218 HD
ENDBRANCH  10  12
BRANCH   4  14
HETATM   14  C5          0      60.092  21.369  -4.747  1.00  0.00     0.025 C 
HETATM   15  C6          0      58.769  21.133  -4.405  1.00  0.00     0.004 C 
HETATM   16  C7          0      57.819  21.200  -5.419  1.00  0.00     0.026 C 
HETATM   17  C8          0      58.185  21.361  -6.751  1.00  0.00     0.112 C 
HETATM   18  C10         0      59.478  20.956  -7.051  1.00  0.00     0.112 C 
HETATM   19  C12         0      60.429  20.980  -6.037  1.00  0.00     0.028 C 
BRANCH  17  20
HETATM   20  O9          0      57.378  22.066  -7.627  1.00  0.00    -0.357 OA
HETATM   21  H9          0      56.759  22.733  -7.354  1.00  0.00     0.218 HD
ENDBRANCH  17  20
BRANCH  18  22
HETATM   22  O11         0      59.830  20.918  -8.393  1.00  0.00    -0.357 OA
HETATM   23  H11         0      59.137  20.727  -9.014  1.00  0.00     0.218 HD
ENDBRANCH  18  22
ENDBRANCH   4  14
BRANCH   8  24
HETATM   24  O17         0      60.206  23.722   1.574  1.00  0.00    -0.359 OA
HETATM   25  H17         0      59.331  23.358   1.500  1.00  0.00     0.218 HD
ENDBRANCH   8  24
TORSDOF 5
ENDMDL
MODEL 3
REMARK VINA RESULT:      -7.3      1.499      6.414
REMARK  5 active torsions:
REMARK  status: ('A' for Active; 'I' for Inactive)
REMARK    1  A    between atoms: C4_4  and  C5_5 
REMARK    2  A    between atoms: C8_8  and  O9_9 
REMARK    3  A    between atoms: C10_11  and  O11_12 
REMARK    4  A    between atoms: C16_18  and  O17_19 
REMARK    5  A    between atoms: C19_22  and  O20_23 
ROOT
HETATM    1  O1          0      62.011  20.432  -6.066  1.00  0.00    -0.286 OA
HETATM    2  C2          0      61.292  21.066  -5.246  1.00  0.00     0.201 C 
HETATM    3  C3          0      61.819  21.910  -4.283  1.00  0.00     0.067 C 
HETATM    4  C4          0      61.013  22.516  -3.326  1.00  0.00     0.103 C 
HETATM    5  O13         0      59.712  22.291  -3.357  1.00  0.00    -0.307 OA
HETATM    6  C14         0      59.165  21.470  -4.226  1.00  0.00     0.107 C 
HETATM    7  C15         0      57.905  20.924  -4.024  1.00  0.00     0.049 C 
HETATM    8  C16         0      57.441  19.872  -4.804  1.00  0.00     0.093 C 
HETATM    9  C18         0      58.026  19.770  -6.061  1.00  0.00     0.048 C 
HETATM   10  C19         0      59.265  20.344  -6.310  1.00  0.00     0.096 C 
HETATM   11  C21         0      59.908  21.031  -5.317  1.00  0.00     0.084 C 
ENDROOT
BRANCH  10  12
HETATM   12  O20         0      60.024  19.885  -7.382  1.00  0.00    -0.359 OA
HETATM   13  H20         0      60.963  19.803  -7.261  1.00  0.00     0.218 HD
ENDBRANCH  10  12
BRANCH   4  14
HETATM   14  C5          0      61.638  22.866  -2.048  1.00  0.00     0.025 C 
HETATM   15  C6          0      62.832  23.566  -1.962  1.00  0.00     0.004 C 
HETATM   16  C7          0      62.954  24.508  -0.946  1.00  0.00     0.026 C 
HETATM   17  C8          0      61.978  24.656   0.034  1.00  0.00     0.112 C 
HETATM   18  C10         0      61.181  23.536   0.231  1.00  0.00     0.112 C 
HETATM   19  C12         0      61.007  22.654  -0.829  1.00  0.00     0.028 C 
BRANCH  17  20
HETATM   20  O9          0      61.714  25.894   0.591  1.00  0.00    -0.357 OA
HETATM   21  H9          0      61.273  26.598   0.129  1.00  0.00     0.218 HD
ENDBRANCH  17  20
BRANCH  18  22
HETATM   22  O11         0      60.320  23.561   1.319  1.00  0.00    -0.357 OA
HETATM   23  H11         0      60.294  22.783   1.864  1.00  0.00     0.218 HD
ENDBRANCH  18  22
ENDBRANCH   4  14
BRANCH   8  24
HETATM   24  O17         0      56.708  18.819  -4.246  1.00  0.00    -0.359 OA
HETATM   25  H17         0      56.298  18.155  -4.787  1.00  0.00     0.218 HD
ENDBRANCH   8  24
TORSDOF 5
ENDMDL
MODEL 4
REMARK VINA RESULT:      -7.2      1.514      3.016
REMARK  5 active torsions:
REMARK  status: ('A' for Active; 'I' for Inactive)
REMARK    1  A    between atoms: C4_4  and  C5_5 
REMARK    2  A    between atoms: C8_8  and  O9_9 
REMARK    3  A    between atoms: C10_11  and  O11_12 
REMARK    4  A    between atoms: C16_18  and  O17_19 
REMARK    5  A    between atoms: C19_22  and  O20_23 
ROOT
HETATM    1  O1          0      59.487  20.783  -0.406  1.00  0.00    -0.286 OA
HETATM    2  C2          0      59.618  21.569  -1.384  1.00  0.00     0.201 C 
HETATM    3  C3          0      58.960  21.384  -2.588  1.00  0.00     0.067 C 
HETATM    4  C4          0      59.201  22.206  -3.684  1.00  0.00     0.103 C 
HETATM    5  O13         0      60.066  23.197  -3.555  1.00  0.00    -0.307 OA
HETATM    6  C14         0      60.745  23.393  -2.447  1.00  0.00     0.107 C 
HETATM    7  C15         0      61.910  24.146  -2.427  1.00  0.00     0.049 C 
HETATM    8  C16         0      62.754  24.140  -1.323  1.00  0.00     0.093 C 
HETATM    9  C18         0      62.143  23.812  -0.119  1.00  0.00     0.048 C 
HETATM   10  C19         0      60.952  23.099  -0.103  1.00  0.00     0.096 C 
HETATM   11  C21         0      60.365  22.732  -1.283  1.00  0.00     0.084 C 
ENDROOT
BRANCH  10  12
HETATM   12  O20         0      60.585  22.411   1.049  1.00  0.00    -0.359 OA
HETATM   13  H20         0      60.784  22.810   1.888  1.00  0.00     0.218 HD
ENDBRANCH  10  12
BRANCH   4  14
HETATM   14  C5          0      58.976  21.635  -5.012  1.00  0.00     0.025 C 
HETATM   15  C6          0      59.770  21.942  -6.108  1.00  0.00     0.004 C 
HETATM   16  C7          0      60.066  20.914  -6.998  1.00  0.00     0.026 C 
HETATM   17  C8          0      59.484  19.657  -6.879  1.00  0.00     0.112 C 
HETATM   18  C10         0      58.280  19.638  -6.188  1.00  0.00     0.112 C 
HETATM   19  C12         0      58.046  20.629  -5.242  1.00  0.00     0.028 C 
BRANCH  17  20
HETATM   20  O9          0      60.178  18.517  -7.244  1.00  0.00    -0.357 OA
HETATM   21  H9          0      60.190  17.718  -6.729  1.00  0.00     0.218 HD
ENDBRANCH  17  20
BRANCH  18  22
HETATM   22  O11         0      57.565  18.449  -6.204  1.00  0.00    -0.357 OA
HETATM   23  H11         0      56.941  18.331  -6.910  1.00  0.00     0.218 HD
ENDBRANCH  18  22
ENDBRANCH   4  14
BRANCH   8  24
HETATM   24  O17         0      64.146  24.129  -1.469  1.00  0.00    -0.359 OA
HETATM   25  H17         0      64.706  24.695  -0.951  1.00  0.00     0.218 HD
ENDBRANCH   8  24
TORSDOF 5
ENDMDL
MODEL 5
REMARK VINA RESULT:      -7.0      1.734      3.215
REMARK  5 active torsions:
REMARK  status: ('A' for Active; 'I' for Inactive)
REMARK    1  A    between atoms: C4_4  and  C5_5 
REMARK    2  A    between atoms: C8_8  and  O9_9 
REMARK    3  A    between atoms: C10_11  and  O11_12 
REMARK    4  A    between atoms: C16_18  and  O17_19 
REMARK    5  A    between atoms: C19_22  and  O20_23 
ROOT
HETATM    1  O1          0      61.766  22.954   0.424  1.00  0.00    -0.286 OA
HETATM    2  C2          0      61.421  23.112  -0.779  1.00  0.00     0.201 C 
HETATM    3  C3          0      60.346  22.450  -1.345  1.00  0.00     0.067 C 
HETATM    4  C4          0      60.050  22.563  -2.699  1.00  0.00     0.103 C 
HETATM    5  O13         0      60.809  23.341  -3.451  1.00  0.00    -0.307 OA
HETATM    6  C14         0      61.864  23.962  -2.972  1.00  0.00     0.107 C 
HETATM    7  C15         0      62.871  24.438  -3.800  1.00  0.00     0.049 C 
HETATM    8  C16         0      64.090  24.860  -3.285  1.00  0.00     0.093 C 
HETATM    9  C18         0      64.054  25.277  -1.960  1.00  0.00     0.048 C 
HETATM   10  C19         0      63.035  24.858  -1.115  1.00  0.00     0.096 C 
HETATM   11  C21         0      62.048  24.041  -1.596  1.00  0.00     0.084 C 
ENDROOT
BRANCH  10  12
HETATM   12  O20         0      63.229  24.906   0.262  1.00  0.00    -0.359 OA
HETATM   13  H20         0      62.467  25.026   0.815  1.00  0.00     0.218 HD
ENDBRANCH  10  12
BRANCH   4  14
HETATM   14  C5          0      59.348  21.443  -3.327  1.00  0.00     0.025 C 
HETATM   15  C6          0      58.512  20.589  -2.622  1.00  0.00     0.004 C 
HETATM   16  C7          0      57.355  20.150  -3.258  1.00  0.00     0.026 C 
HETATM   17  C8          0      57.101  20.440  -4.594  1.00  0.00     0.112 C 
HETATM   18  C10         0      58.231  20.724  -5.350  1.00  0.00     0.112 C 
HETATM   19  C12         0      59.346  21.242  -4.702  1.00  0.00     0.028 C 
BRANCH  17  20
HETATM   20  O9          0      55.807  20.630  -5.045  1.00  0.00    -0.357 OA
HETATM   21  H9          0      55.384  21.480  -5.093  1.00  0.00     0.218 HD
ENDBRANCH  17  20
BRANCH  18  22
HETATM   22  O11         0      58.058  20.834  -6.722  1.00  0.00    -0.357 OA
HETATM   23  H11         0      58.278  21.669  -7.118  1.00  0.00     0.218 HD
ENDBRANCH  18  22
ENDBRANCH   4  14
BRANCH   8  24
HETATM   24  O17         0      65.296  24.567  -3.932  1.00  0.00    -0.359 OA
HETATM   25  H17         0      65.522  23.681  -4.189  1.00  0.00     0.218 HD
ENDBRANCH   8  24
TORSDOF 5
ENDMDL
MODEL 6
REMARK VINA RESULT:      -6.8      2.069      3.538
REMARK  5 active torsions:
REMARK  status: ('A' for Active; 'I' for Inactive)
REMARK    1  A    between atoms: C4_4  and  C5_5 
REMARK    2  A    between atoms: C8_8  and  O9_9 
REMARK    3  A    between atoms: C10_11  and  O11_12 
REMARK    4  A    between atoms: C16_18  and  O17_19 
REMARK    5  A    between atoms: C19_22  and  O20_23 
ROOT
HETATM    1  O1          0      58.840  20.454  -0.732  1.00  0.00    -0.286 OA
HETATM    2  C2          0      59.031  21.256  -1.687  1.00  0.00     0.201 C 
HETATM    3  C3          0      58.353  21.163  -2.891  1.00  0.00     0.067 C 
HETATM    4  C4          0      58.655  21.995  -3.963  1.00  0.00     0.103 C 
HETATM    5  O13         0      59.601  22.906  -3.812  1.00  0.00    -0.307 OA
HETATM    6  C14         0      60.300  23.012  -2.704  1.00  0.00     0.107 C 
HETATM    7  C15         0      61.524  23.664  -2.671  1.00  0.00     0.049 C 
HETATM    8  C16         0      62.371  23.554  -1.575  1.00  0.00     0.093 C 
HETATM    9  C18         0      61.742  23.241  -0.376  1.00  0.00     0.048 C 
HETATM   10  C19         0      60.495  22.630  -0.372  1.00  0.00     0.096 C 
HETATM   11  C21         0      59.873  22.349  -1.558  1.00  0.00     0.084 C 
ENDROOT
BRANCH  10  12
HETATM   12  O20         0      60.079  21.940   0.762  1.00  0.00    -0.359 OA
HETATM   13  H20         0      60.528  22.117   1.581  1.00  0.00     0.218 HD
ENDBRANCH  10  12
BRANCH   4  14
HETATM   14  C5          0      58.376  21.485  -5.306  1.00  0.00     0.025 C 
HETATM   15  C6          0      57.814  22.266  -6.306  1.00  0.00     0.004 C 
HETATM   16  C7          0      58.282  22.088  -7.603  1.00  0.00     0.026 C 
HETATM   17  C8          0      59.181  21.075  -7.922  1.00  0.00     0.112 C 
HETATM   18  C10         0      59.182  20.003  -7.040  1.00  0.00     0.112 C 
HETATM   19  C12         0      58.790  20.227  -5.726  1.00  0.00     0.028 C 
BRANCH  17  20
HETATM   20  O9          0      60.127  21.254  -8.915  1.00  0.00    -0.357 OA
HETATM   21  H9          0      60.894  21.808  -8.821  1.00  0.00     0.218 HD
ENDBRANCH  17  20
BRANCH  18  22
HETATM   22  O11         0      59.918  18.886  -7.410  1.00  0.00    -0.357 OA
HETATM   23  H11         0      60.671  18.669  -6.872  1.00  0.00     0.218 HD
ENDBRANCH  18  22
ENDBRANCH   4  14
BRANCH   8  24
HETATM   24  O17         0      63.756  23.432  -1.732  1.00  0.00    -0.359 OA
HETATM   25  H17         0      64.138  22.756  -2.279  1.00  0.00     0.218 HD
ENDBRANCH   8  24
TORSDOF 5
ENDMDL
MODEL 7
REMARK VINA RESULT:      -6.6      1.732      6.689
REMARK  5 active torsions:
REMARK  status: ('A' for Active; 'I' for Inactive)
REMARK    1  A    between atoms: C4_4  and  C5_5 
REMARK    2  A    between atoms: C8_8  and  O9_9 
REMARK    3  A    between atoms: C10_11  and  O11_12 
REMARK    4  A    between atoms: C16_18  and  O17_19 
REMARK    5  A    between atoms: C19_22  and  O20_23 
ROOT
HETATM    1  O1          0      57.709  22.158  -2.675  1.00  0.00    -0.286 OA
HETATM    2  C2          0      58.918  21.993  -2.995  1.00  0.00     0.201 C 
HETATM    3  C3          0      59.970  22.368  -2.176  1.00  0.00     0.067 C 
HETATM    4  C4          0      61.291  22.270  -2.596  1.00  0.00     0.103 C 
HETATM    5  O13         0      61.540  21.787  -3.801  1.00  0.00    -0.307 OA
HETATM    6  C14         0      60.578  21.452  -4.632  1.00  0.00     0.107 C 
HETATM    7  C15         0      60.800  21.333  -5.996  1.00  0.00     0.049 C 
HETATM    8  C16         0      59.743  21.232  -6.893  1.00  0.00     0.093 C 
HETATM    9  C18         0      58.563  20.732  -6.356  1.00  0.00     0.048 C 
HETATM   10  C19         0      58.329  20.792  -4.989  1.00  0.00     0.096 C 
HETATM   11  C21         0      59.275  21.334  -4.161  1.00  0.00     0.084 C 
ENDROOT
BRANCH  10  12
HETATM   12  O20         0      57.023  20.706  -4.518  1.00  0.00    -0.359 OA
HETATM   13  H20         0      56.318  20.924  -5.116  1.00  0.00     0.218 HD
ENDBRANCH  10  12
BRANCH   4  14
HETATM   14  C5          0      62.256  23.191  -1.993  1.00  0.00     0.025 C 
HETATM   15  C6          0      63.385  23.642  -2.661  1.00  0.00     0.004 C 
HETATM   16  C7          0      63.764  24.966  -2.465  1.00  0.00     0.026 C 
HETATM   17  C8          0      63.124  25.778  -1.534  1.00  0.00     0.112 C 
HETATM   18  C10         0      62.480  25.093  -0.513  1.00  0.00     0.112 C 
HETATM   19  C12         0      62.036  23.800  -0.764  1.00  0.00     0.028 C 
BRANCH  17  20
HETATM   20  O9          0      62.982  27.136  -1.757  1.00  0.00    -0.357 OA
HETATM   21  H9          0      62.641  27.506  -2.563  1.00  0.00     0.218 HD
ENDBRANCH  17  20
BRANCH  18  22
HETATM   22  O11         0      61.990  25.851   0.540  1.00  0.00    -0.357 OA
HETATM   23  H11         0      61.045  25.908   0.626  1.00  0.00     0.218 HD
ENDBRANCH  18  22
ENDBRANCH   4  14
BRANCH   8  24
HETATM   24  O17         0      59.768  21.892  -8.127  1.00  0.00    -0.359 OA
HETATM   25  H17         0      60.542  21.894  -8.677  1.00  0.00     0.218 HD
ENDBRANCH   8  24
TORSDOF 5
ENDMDL
MODEL 8
REMARK VINA RESULT:      -6.4      4.185      6.139
REMARK  5 active torsions:
REMARK  status: ('A' for Active; 'I' for Inactive)
REMARK    1  A    between atoms: C4_4  and  C5_5 
REMARK    2  A    between atoms: C8_8  and  O9_9 
REMARK    3  A    between atoms: C10_11  and  O11_12 
REMARK    4  A    between atoms: C16_18  and  O17_19 
REMARK    5  A    between atoms: C19_22  and  O20_23 
ROOT
HETATM    1  O1          0      65.672  23.750  -5.577  1.00  0.00    -0.286 OA
HETATM    2  C2          0      65.299  23.086  -4.571  1.00  0.00     0.201 C 
HETATM    3  C3          0      63.987  23.066  -4.130  1.00  0.00     0.067 C 
HETATM    4  C4          0      63.621  22.410  -2.960  1.00  0.00     0.103 C 
HETATM    5  O13         0      64.553  21.775  -2.271  1.00  0.00    -0.307 OA
HETATM    6  C14         0      65.820  21.794  -2.625  1.00  0.00     0.107 C 
HETATM    7  C15         0      66.834  21.490  -1.729  1.00  0.00     0.049 C 
HETATM    8  C16         0      68.165  21.756  -2.028  1.00  0.00     0.093 C 
HETATM    9  C18         0      68.460  21.819  -3.384  1.00  0.00     0.048 C 
HETATM   10  C19         0      67.461  22.075  -4.313  1.00  0.00     0.096 C 
HETATM   11  C21         0      66.171  22.250  -3.891  1.00  0.00     0.084 C 
ENDROOT
BRANCH  10  12
HETATM   12  O20         0      67.808  22.561  -5.570  1.00  0.00    -0.359 OA
HETATM   13  H20         0      67.383  23.354  -5.873  1.00  0.00     0.218 HD
ENDBRANCH  10  12
BRANCH   4  14
HETATM   14  C5          0      62.438  22.906  -2.255  1.00  0.00     0.025 C 
HETATM   15  C6          0      61.178  22.349  -2.417  1.00  0.00     0.004 C 
HETATM   16  C7          0      60.368  22.250  -1.290  1.00  0.00     0.026 C 
HETATM   17  C8          0      60.742  22.806  -0.071  1.00  0.00     0.112 C 
HETATM   18  C10         0      61.660  23.844  -0.165  1.00  0.00     0.112 C 
HETATM   19  C12         0      62.516  23.872  -1.260  1.00  0.00     0.028 C 
BRANCH  17  20
HETATM   20  O9          0      60.375  22.210   1.122  1.00  0.00    -0.357 OA
HETATM   21  H9          0      60.992  21.805   1.721  1.00  0.00     0.218 HD
ENDBRANCH  17  20
BRANCH  18  22
HETATM   22  O11         0      61.923  24.557   0.996  1.00  0.00    -0.357 OA
HETATM   23  H11         0      62.836  24.674   1.231  1.00  0.00     0.218 HD
ENDBRANCH  18  22
ENDBRANCH   4  14
BRANCH   8  24
HETATM   24  O17         0      69.045  22.251  -1.059  1.00  0.00    -0.359 OA
HETATM   25  H17         0      69.534  23.054  -1.193  1.00  0.00     0.218 HD
ENDBRANCH   8  24
TORSDOF 5
ENDMDL
MODEL 9
REMARK VINA RESULT:      -6.3      1.907      6.551
REMARK  5 active torsions:
REMARK  status: ('A' for Active; 'I' for Inactive)
REMARK    1  A    between atoms: C4_4  and  C5_5 
REMARK    2  A    between atoms: C8_8  and  O9_9 
REMARK    3  A    between atoms: C10_11  and  O11_12 
REMARK    4  A    between atoms: C16_18  and  O17_19 
REMARK    5  A    between atoms: C19_22  and  O20_23 
ROOT
HETATM    1  O1          0      57.234  21.425  -4.085  1.00  0.00    -0.286 OA
HETATM    2  C2          0      58.394  21.911  -4.183  1.00  0.00     0.201 C 
HETATM    3  C3          0      59.362  21.746  -3.207  1.00  0.00     0.067 C 
HETATM    4  C4          0      60.598  22.377  -3.291  1.00  0.00     0.103 C 
HETATM    5  O13         0      60.853  23.135  -4.342  1.00  0.00    -0.307 OA
HETATM    6  C14         0      59.956  23.356  -5.279  1.00  0.00     0.107 C 
HETATM    7  C15         0      60.057  24.433  -6.147  1.00  0.00     0.049 C 
HETATM    8  C16         0      58.992  24.809  -6.958  1.00  0.00     0.093 C 
HETATM    9  C18         0      58.086  23.795  -7.244  1.00  0.00     0.048 C 
HETATM   10  C19         0      57.992  22.680  -6.421  1.00  0.00     0.096 C 
HETATM   11  C21         0      58.809  22.571  -5.329  1.00  0.00     0.084 C 
ENDROOT
BRANCH  10  12
HETATM   12  O20         0      56.832  21.912  -6.447  1.00  0.00    -0.359 OA
HETATM   13  H20         0      56.021  22.338  -6.695  1.00  0.00     0.218 HD
ENDBRANCH  10  12
BRANCH   4  14
HETATM   14  C5          0      61.293  22.658  -2.034  1.00  0.00     0.025 C 
HETATM   15  C6          0      62.522  23.300  -1.981  1.00  0.00     0.004 C 
HETATM   16  C7          0      62.733  24.205  -0.945  1.00  0.00     0.026 C 
HETATM   17  C8          0      61.809  24.367   0.081  1.00  0.00     0.112 C 
HETATM   18  C10         0      60.969  23.280   0.282  1.00  0.00     0.112 C 
HETATM   19  C12         0      60.707  22.439  -0.793  1.00  0.00     0.028 C 
BRANCH  17  20
HETATM   20  O9          0      61.628  25.599   0.684  1.00  0.00    -0.357 OA
HETATM   21  H9          0      60.967  26.227   0.415  1.00  0.00     0.218 HD
ENDBRANCH  17  20
BRANCH  18  22
HETATM   22  O11         0      60.159  23.311   1.408  1.00  0.00    -0.357 OA
HETATM   23  H11         0      59.806  22.481   1.708  1.00  0.00     0.218 HD
ENDBRANCH  18  22
ENDBRANCH   4  14
BRANCH   8  24
HETATM   24  O17         0      58.683  26.156  -7.178  1.00  0.00    -0.359 OA
HETATM   25  H17         0      57.953  26.417  -7.727  1.00  0.00     0.218 HD
ENDBRANCH   8  24
TORSDOF 5
ENDMDL
