MODEL 1
REMARK VINA RESULT:      -7.9      0.000      0.000
REMARK  5 active torsions:
REMARK  status: ('A' for Active; 'I' for Inactive)
REMARK    1  A    between atoms: C4_4  and  C5_5 
REMARK    2  A    between atoms: C8_8  and  O9_9 
REMARK    3  A    between atoms: C10_11  and  O11_12 
REMARK    4  A    between atoms: C16_18  and  O17_19 
REMARK    5  A    between atoms: C19_22  and  O20_23 
ROOT
HETATM    1  O1          0      33.506  90.686 -10.649  1.00  0.00    -0.286 OA
HETATM    2  C2          0      32.475  90.428 -11.329  1.00  0.00     0.201 C 
HETATM    3  C3          0      31.634  91.413 -11.820  1.00  0.00     0.067 C 
HETATM    4  C4          0      30.451  91.099 -12.478  1.00  0.00     0.103 C 
HETATM    5  O13         0      30.140  89.827 -12.653  1.00  0.00    -0.307 OA
HETATM    6  C14         0      30.884  88.853 -12.175  1.00  0.00     0.107 C 
HETATM    7  C15         0      30.385  87.571 -11.998  1.00  0.00     0.049 C 
HETATM    8  C16         0      31.083  86.619 -11.265  1.00  0.00     0.093 C 
HETATM    9  C18         0      32.455  86.824 -11.193  1.00  0.00     0.048 C 
HETATM   10  C19         0      32.993  88.085 -11.410  1.00  0.00     0.096 C 
HETATM   11  C21         0      32.166  89.133 -11.714  1.00  0.00     0.084 C 
ENDROOT
BRANCH  10  12
HETATM   12  O20         0      34.263  88.377 -10.922  1.00  0.00    -0.359 OA
HETATM   13  H20         0      34.383  88.400  -9.980  1.00  0.00     0.218 HD
ENDBRANCH  10  12
BRANCH   4  14
HETATM   14  C5          0      29.372  92.087 -12.424  1.00  0.00     0.025 C 
HETATM   15  C6          0      29.033  92.891 -13.503  1.00  0.00     0.004 C 
HETATM   16  C7          0      27.683  93.152 -13.713  1.00  0.00     0.026 C 
HETATM   17  C8          0      26.711  92.742 -12.807  1.00  0.00     0.112 C 
HETATM   18  C10         0      27.174  92.533 -11.515  1.00  0.00     0.112 C 
HETATM   19  C12         0      28.509  92.189 -11.340  1.00  0.00     0.028 C 
BRANCH  17  20
HETATM   20  O9          0      25.448  92.378 -13.239  1.00  0.00    -0.357 OA
HETATM   21  H9          0      24.770  92.041 -12.664  1.00  0.00     0.218 HD
ENDBRANCH  17  20
BRANCH  18  22
HETATM   22  O11         0      26.219  92.308 -10.534  1.00  0.00    -0.357 OA
HETATM   23  H11         0      26.469  91.741  -9.813  1.00  0.00     0.218 HD
ENDBRANCH  18  22
ENDBRANCH   4  14
BRANCH   8  24
HETATM   24  O17         0      30.424  85.739 -10.399  1.00  0.00    -0.359 OA
HETATM   25  H17         0      29.961  86.048  -9.630  1.00  0.00     0.218 HD
ENDBRANCH   8  24
TORSDOF 5
ENDMDL
MODEL 2
REMARK VINA RESULT:      -7.2      2.590      4.266
REMARK  5 active torsions:
REMARK  status: ('A' for Active; 'I' for Inactive)
REMARK    1  A    between atoms: C4_4  and  C5_5 
REMARK    2  A    between atoms: C8_8  and  O9_9 
REMARK    3  A    between atoms: C10_11  and  O11_12 
REMARK    4  A    between atoms: C16_18  and  O17_19 
REMARK    5  A    between atoms: C19_22  and  O20_23 
ROOT
HETATM    1  O1          0      29.609  87.752 -12.881  1.00  0.00    -0.286 OA
HETATM    2  C2          0      30.321  88.605 -12.284  1.00  0.00     0.201 C 
HETATM    3  C3          0      30.164  89.969 -12.461  1.00  0.00     0.067 C 
HETATM    4  C4          0      31.028  90.885 -11.871  1.00  0.00     0.103 C 
HETATM    5  O13         0      32.008  90.433 -11.109  1.00  0.00    -0.307 OA
HETATM    6  C14         0      32.224  89.147 -10.938  1.00  0.00     0.107 C 
HETATM    7  C15         0      33.446  88.665 -10.490  1.00  0.00     0.049 C 
HETATM    8  C16         0      33.754  87.311 -10.554  1.00  0.00     0.093 C 
HETATM    9  C18         0      32.656  86.459 -10.566  1.00  0.00     0.048 C 
HETATM   10  C19         0      31.409  86.921 -10.964  1.00  0.00     0.096 C 
HETATM   11  C21         0      31.255  88.230 -11.330  1.00  0.00     0.084 C 
ENDROOT
BRANCH  10  12
HETATM   12  O20         0      30.449  86.008 -11.387  1.00  0.00    -0.359 OA
HETATM   13  H20         0      30.586  85.090 -11.184  1.00  0.00     0.218 HD
ENDBRANCH  10  12
BRANCH   4  14
HETATM   14  C5          0      31.194  92.176 -12.541  1.00  0.00     0.025 C 
HETATM   15  C6          0      30.374  93.266 -12.288  1.00  0.00     0.004 C 
HETATM   16  C7          0      30.965  94.525 -12.258  1.00  0.00     0.026 C 
HETATM   17  C8          0      32.300  94.712 -12.599  1.00  0.00     0.112 C 
HETATM   18  C10         0      32.833  93.725 -13.418  1.00  0.00     0.112 C 
HETATM   19  C12         0      32.277  92.453 -13.366  1.00  0.00     0.028 C 
BRANCH  17  20
HETATM   20  O9          0      33.058  95.692 -11.984  1.00  0.00    -0.357 OA
HETATM   21  H9          0      32.806  96.126 -11.177  1.00  0.00     0.218 HD
ENDBRANCH  17  20
BRANCH  18  22
HETATM   22  O11         0      34.097  93.958 -13.941  1.00  0.00    -0.357 OA
HETATM   23  H11         0      34.194  93.878 -14.883  1.00  0.00     0.218 HD
ENDBRANCH  18  22
ENDBRANCH   4  14
BRANCH   8  24
HETATM   24  O17         0      35.032  86.871 -10.917  1.00  0.00    -0.359 OA
HETATM   25  H17         0      35.800  87.091 -10.404  1.00  0.00     0.218 HD
ENDBRANCH   8  24
TORSDOF 5
ENDMDL
MODEL 3
REMARK VINA RESULT:      -6.9      3.931      5.600
REMARK  5 active torsions:
REMARK  status: ('A' for Active; 'I' for Inactive)
REMARK    1  A    between atoms: C4_4  and  C5_5 
REMARK    2  A    between atoms: C8_8  and  O9_9 
REMARK    3  A    between atoms: C10_11  and  O11_12 
REMARK    4  A    between atoms: C16_18  and  O17_19 
REMARK    5  A    between atoms: C19_22  and  O20_23 
ROOT
HETATM    1  O1          0      29.483  91.475 -13.163  1.00  0.00    -0.286 OA
HETATM    2  C2          0      30.686  91.823 -13.006  1.00  0.00     0.201 C 
HETATM    3  C3          0      31.230  92.939 -13.617  1.00  0.00     0.067 C 
HETATM    4  C4          0      32.583  93.242 -13.509  1.00  0.00     0.103 C 
HETATM    5  O13         0      33.355  92.449 -12.787  1.00  0.00    -0.307 OA
HETATM    6  C14         0      32.897  91.356 -12.218  1.00  0.00     0.107 C 
HETATM    7  C15         0      33.743  90.333 -11.813  1.00  0.00     0.049 C 
HETATM    8  C16         0      33.246  89.087 -11.451  1.00  0.00     0.093 C 
HETATM    9  C18         0      31.928  89.086 -11.011  1.00  0.00     0.048 C 
HETATM   10  C19         0      31.067  90.118 -11.359  1.00  0.00     0.096 C 
HETATM   11  C21         0      31.524  91.154 -12.127  1.00  0.00     0.084 C 
ENDROOT
BRANCH  10  12
HETATM   12  O20         0      29.693  89.907 -11.299  1.00  0.00    -0.359 OA
HETATM   13  H20         0      29.145  90.625 -11.006  1.00  0.00     0.218 HD
ENDBRANCH  10  12
BRANCH   4  14
HETATM   14  C5          0      33.186  94.012 -14.599  1.00  0.00     0.025 C 
HETATM   15  C6          0      34.541  93.968 -14.891  1.00  0.00     0.004 C 
HETATM   16  C7          0      34.913  93.993 -16.231  1.00  0.00     0.026 C 
HETATM   17  C8          0      33.980  94.190 -17.243  1.00  0.00     0.112 C 
HETATM   18  C10         0      32.819  94.838 -16.843  1.00  0.00     0.112 C 
HETATM   19  C12         0      32.425  94.726 -15.515  1.00  0.00     0.028 C 
BRANCH  17  20
HETATM   20  O9          0      34.137  93.590 -18.480  1.00  0.00    -0.357 OA
HETATM   21  H9          0      34.976  93.307 -18.826  1.00  0.00     0.218 HD
ENDBRANCH  17  20
BRANCH  18  22
HETATM   22  O11         0      31.940  95.229 -17.843  1.00  0.00    -0.357 OA
HETATM   23  H11         0      32.132  96.046 -18.289  1.00  0.00     0.218 HD
ENDBRANCH  18  22
ENDBRANCH   4  14
BRANCH   8  24
HETATM   24  O17         0      33.899  87.906 -11.821  1.00  0.00    -0.359 OA
HETATM   25  H17         0      33.427  87.090 -11.937  1.00  0.00     0.218 HD
ENDBRANCH   8  24
TORSDOF 5
ENDMDL
MODEL 4
REMARK VINA RESULT:      -6.9      1.519      2.025
REMARK  5 active torsions:
REMARK  status: ('A' for Active; 'I' for Inactive)
REMARK    1  A    between atoms: C4_4  and  C5_5 
REMARK    2  A    between atoms: C8_8  and  O9_9 
REMARK    3  A    between atoms: C10_11  and  O11_12 
REMARK    4  A    between atoms: C16_18  and  O17_19 
REMARK    5  A    between atoms: C19_22  and  O20_23 
ROOT
HETATM    1  O1          0      33.326  90.747 -10.635  1.00  0.00    -0.286 OA
HETATM    2  C2          0      32.350  90.403 -11.357  1.00  0.00     0.201 C 
HETATM    3  C3          0      31.525  91.317 -11.990  1.00  0.00     0.067 C 
HETATM    4  C4          0      30.397  90.914 -12.695  1.00  0.00     0.103 C 
HETATM    5  O13         0      30.125  89.623 -12.774  1.00  0.00    -0.307 OA
HETATM    6  C14         0      30.854  88.717 -12.161  1.00  0.00     0.107 C 
HETATM    7  C15         0      30.370  87.442 -11.903  1.00  0.00     0.049 C 
HETATM    8  C16         0      31.035  86.579 -11.040  1.00  0.00     0.093 C 
HETATM    9  C18         0      32.395  86.825 -10.896  1.00  0.00     0.048 C 
HETATM   10  C19         0      32.920  88.076 -11.190  1.00  0.00     0.096 C 
HETATM   11  C21         0      32.095  89.070 -11.642  1.00  0.00     0.084 C 
ENDROOT
BRANCH  10  12
HETATM   12  O20         0      34.147  88.444 -10.646  1.00  0.00    -0.359 OA
HETATM   13  H20         0      34.874  87.841 -10.740  1.00  0.00     0.218 HD
ENDBRANCH  10  12
BRANCH   4  14
HETATM   14  C5          0      29.297  91.874 -12.803  1.00  0.00     0.025 C 
HETATM   15  C6          0      28.463  92.185 -11.739  1.00  0.00     0.004 C 
HETATM   16  C7          0      28.056  93.508 -11.605  1.00  0.00     0.026 C 
HETATM   17  C8          0      28.356  94.465 -12.569  1.00  0.00     0.112 C 
HETATM   18  C10         0      28.612  93.953 -13.834  1.00  0.00     0.112 C 
HETATM   19  C12         0      29.100  92.655 -13.934  1.00  0.00     0.028 C 
BRANCH  17  20
HETATM   20  O9          0      28.580  95.783 -12.213  1.00  0.00    -0.357 OA
HETATM   21  H9          0      28.804  96.467 -12.834  1.00  0.00     0.218 HD
ENDBRANCH  17  20
BRANCH  18  22
HETATM   22  O11         0      28.730  94.868 -14.870  1.00  0.00    -0.357 OA
HETATM   23  H11         0      28.160  95.628 -14.840  1.00  0.00     0.218 HD
ENDBRANCH  18  22
ENDBRANCH   4  14
BRANCH   8  24
HETATM   24  O17         0      30.336  85.761 -10.145  1.00  0.00    -0.359 OA
HETATM   25  H17         0      29.857  84.996 -10.438  1.00  0.00     0.218 HD
ENDBRANCH   8  24
TORSDOF 5
ENDMDL
MODEL 5
REMARK VINA RESULT:      -6.5      3.703      5.864
REMARK  5 active torsions:
REMARK  status: ('A' for Active; 'I' for Inactive)
REMARK    1  A    between atoms: C4_4  and  C5_5 
REMARK    2  A    between atoms: C8_8  and  O9_9 
REMARK    3  A    between atoms: C10_11  and  O11_12 
REMARK    4  A    between atoms: C16_18  and  O17_19 
REMARK    5  A    between atoms: C19_22  and  O20_23 
ROOT
HETATM    1  O1          0      29.278  91.494 -13.169  1.00  0.00    -0.286 OA
HETATM    2  C2          0      30.416  91.878 -12.783  1.00  0.00     0.201 C 
HETATM    3  C3          0      30.940  93.118 -13.109  1.00  0.00     0.067 C 
HETATM    4  C4          0      32.237  93.476 -12.758  1.00  0.00     0.103 C 
HETATM    5  O13         0      32.972  92.612 -12.080  1.00  0.00    -0.307 OA
HETATM    6  C14         0      32.537  91.409 -11.778  1.00  0.00     0.107 C 
HETATM    7  C15         0      33.405  90.382 -11.438  1.00  0.00     0.049 C 
HETATM    8  C16         0      32.971  89.063 -11.370  1.00  0.00     0.093 C 
HETATM    9  C18         0      31.612  88.904 -11.130  1.00  0.00     0.048 C 
HETATM   10  C19         0      30.720  89.929 -11.415  1.00  0.00     0.096 C 
HETATM   11  C21         0      31.185  91.112 -11.921  1.00  0.00     0.084 C 
ENDROOT
BRANCH  10  12
HETATM   12  O20         0      29.373  89.629 -11.590  1.00  0.00    -0.359 OA
HETATM   13  H20         0      29.082  88.748 -11.388  1.00  0.00     0.218 HD
ENDBRANCH  10  12
BRANCH   4  14
HETATM   14  C5          0      32.910  94.465 -13.602  1.00  0.00     0.025 C 
HETATM   15  C6          0      33.079  95.788 -13.220  1.00  0.00     0.004 C 
HETATM   16  C7          0      34.279  96.407 -13.556  1.00  0.00     0.026 C 
HETATM   17  C8          0      35.224  95.779 -14.361  1.00  0.00     0.112 C 
HETATM   18  C10         0      34.714  94.782 -15.182  1.00  0.00     0.112 C 
HETATM   19  C12         0      33.560  94.120 -14.779  1.00  0.00     0.028 C 
BRANCH  17  20
HETATM   20  O9          0      36.576  96.006 -14.176  1.00  0.00    -0.357 OA
HETATM   21  H9          0      37.226  95.910 -14.863  1.00  0.00     0.218 HD
ENDBRANCH  17  20
BRANCH  18  22
HETATM   22  O11         0      35.573  94.254 -16.136  1.00  0.00    -0.357 OA
HETATM   23  H11         0      36.488  94.173 -15.894  1.00  0.00     0.218 HD
ENDBRANCH  18  22
ENDBRANCH   4  14
BRANCH   8  24
HETATM   24  O17         0      33.764  88.010 -11.839  1.00  0.00    -0.359 OA
HETATM   25  H17         0      34.565  87.753 -11.398  1.00  0.00     0.218 HD
ENDBRANCH   8  24
TORSDOF 5
ENDMDL
MODEL 6
REMARK VINA RESULT:      -6.5      2.923      3.626
REMARK  5 active torsions:
REMARK  status: ('A' for Active; 'I' for Inactive)
REMARK    1  A    between atoms: C4_4  and  C5_5 
REMARK    2  A    between atoms: C8_8  and  O9_9 
REMARK    3  A    between atoms: C10_11  and  O11_12 
REMARK    4  A    between atoms: C16_18  and  O17_19 
REMARK    5  A    between atoms: C19_22  and  O20_23 
ROOT
HETATM    1  O1          0      34.101  90.923 -10.625  1.00  0.00    -0.286 OA
HETATM    2  C2          0      33.136  90.965 -11.436  1.00  0.00     0.201 C 
HETATM    3  C3          0      32.915  92.037 -12.284  1.00  0.00     0.067 C 
HETATM    4  C4          0      31.787  92.104 -13.094  1.00  0.00     0.103 C 
HETATM    5  O13         0      30.922  91.106 -13.062  1.00  0.00    -0.307 OA
HETATM    6  C14         0      31.065  90.083 -12.249  1.00  0.00     0.107 C 
HETATM    7  C15         0      30.000  89.257 -11.918  1.00  0.00     0.049 C 
HETATM    8  C16         0      30.092  88.344 -10.874  1.00  0.00     0.093 C 
HETATM    9  C18         0      31.383  87.936 -10.563  1.00  0.00     0.048 C 
HETATM   10  C19         0      32.475  88.715 -10.920  1.00  0.00     0.096 C 
HETATM   11  C21         0      32.279  89.887 -11.599  1.00  0.00     0.084 C 
ENDROOT
BRANCH  10  12
HETATM   12  O20         0      33.682  88.543 -10.250  1.00  0.00    -0.359 OA
HETATM   13  H20         0      33.706  88.735  -9.320  1.00  0.00     0.218 HD
ENDBRANCH  10  12
BRANCH   4  14
HETATM   14  C5          0      31.312  93.437 -13.472  1.00  0.00     0.025 C 
HETATM   15  C6          0      30.040  93.896 -13.164  1.00  0.00     0.004 C 
HETATM   16  C7          0      29.908  95.232 -12.798  1.00  0.00     0.026 C 
HETATM   17  C8          0      30.980  96.116 -12.863  1.00  0.00     0.112 C 
HETATM   18  C10         0      31.983  95.745 -13.748  1.00  0.00     0.112 C 
HETATM   19  C12         0      32.148  94.394 -14.032  1.00  0.00     0.028 C 
BRANCH  17  20
HETATM   20  O9          0      31.101  97.151 -11.954  1.00  0.00    -0.357 OA
HETATM   21  H9          0      31.513  97.061 -11.103  1.00  0.00     0.218 HD
ENDBRANCH  17  20
BRANCH  18  22
HETATM   22  O11         0      32.981  96.677 -13.993  1.00  0.00    -0.357 OA
HETATM   23  H11         0      33.205  97.265 -13.281  1.00  0.00     0.218 HD
ENDBRANCH  18  22
ENDBRANCH   4  14
BRANCH   8  24
HETATM   24  O17         0      29.020  88.125 -10.002  1.00  0.00    -0.359 OA
HETATM   25  H17         0      29.141  87.705  -9.158  1.00  0.00     0.218 HD
ENDBRANCH   8  24
TORSDOF 5
ENDMDL
MODEL 7
REMARK VINA RESULT:      -6.4      2.583      3.190
REMARK  5 active torsions:
REMARK  status: ('A' for Active; 'I' for Inactive)
REMARK    1  A    between atoms: C4_4  and  C5_5 
REMARK    2  A    between atoms: C8_8  and  O9_9 
REMARK    3  A    between atoms: C10_11  and  O11_12 
REMARK    4  A    between atoms: C16_18  and  O17_19 
REMARK    5  A    between atoms: C19_22  and  O20_23 
ROOT
HETATM    1  O1          0      33.972  91.079 -10.724  1.00  0.00    -0.286 OA
HETATM    2  C2          0      32.962  91.019 -11.479  1.00  0.00     0.201 C 
HETATM    3  C3          0      32.567  92.069 -12.289  1.00  0.00     0.067 C 
HETATM    4  C4          0      31.393  92.014 -13.032  1.00  0.00     0.103 C 
HETATM    5  O13         0      30.655  90.920 -12.973  1.00  0.00    -0.307 OA
HETATM    6  C14         0      30.965  89.909 -12.192  1.00  0.00     0.107 C 
HETATM    7  C15         0      30.026  88.957 -11.820  1.00  0.00     0.049 C 
HETATM    8  C16         0      30.286  88.046 -10.803  1.00  0.00     0.093 C 
HETATM    9  C18         0      31.632  87.790 -10.574  1.00  0.00     0.048 C 
HETATM   10  C19         0      32.602  88.699 -10.975  1.00  0.00     0.096 C 
HETATM   11  C21         0      32.230  89.849 -11.616  1.00  0.00     0.084 C 
ENDROOT
BRANCH  10  12
HETATM   12  O20         0      33.858  88.662 -10.378  1.00  0.00    -0.359 OA
HETATM   13  H20         0      34.601  88.420 -10.919  1.00  0.00     0.218 HD
ENDBRANCH  10  12
BRANCH   4  14
HETATM   14  C5          0      30.743  93.286 -13.353  1.00  0.00     0.025 C 
HETATM   15  C6          0      31.161  94.499 -12.823  1.00  0.00     0.004 C 
HETATM   16  C7          0      31.129  95.611 -13.658  1.00  0.00     0.026 C 
HETATM   17  C8          0      30.576  95.552 -14.932  1.00  0.00     0.112 C 
HETATM   18  C10         0      29.651  94.533 -15.116  1.00  0.00     0.112 C 
HETATM   19  C12         0      29.758  93.394 -14.326  1.00  0.00     0.028 C 
BRANCH  17  20
HETATM   20  O9          0      31.085  96.322 -15.963  1.00  0.00    -0.357 OA
HETATM   21  H9          0      31.927  96.164 -16.374  1.00  0.00     0.218 HD
ENDBRANCH  17  20
BRANCH  18  22
HETATM   22  O11         0      28.932  94.543 -16.303  1.00  0.00    -0.357 OA
HETATM   23  H11         0      28.361  95.287 -16.453  1.00  0.00     0.218 HD
ENDBRANCH  18  22
ENDBRANCH   4  14
BRANCH   8  24
HETATM   24  O17         0      29.301  87.688  -9.876  1.00  0.00    -0.359 OA
HETATM   25  H17         0      28.376  87.749 -10.082  1.00  0.00     0.218 HD
ENDBRANCH   8  24
TORSDOF 5
ENDMDL
MODEL 8
REMARK VINA RESULT:      -6.4      1.892      2.982
REMARK  5 active torsions:
REMARK  status: ('A' for Active; 'I' for Inactive)
REMARK    1  A    between atoms: C4_4  and  C5_5 
REMARK    2  A    between atoms: C8_8  and  O9_9 
REMARK    3  A    between atoms: C10_11  and  O11_12 
REMARK    4  A    between atoms: C16_18  and  O17_19 
REMARK    5  A    between atoms: C19_22  and  O20_23 
ROOT
HETATM    1  O1          0      32.358  93.764 -12.723  1.00  0.00    -0.286 OA
HETATM    2  C2          0      31.447  92.893 -12.690  1.00  0.00     0.201 C 
HETATM    3  C3          0      30.108  93.201 -12.858  1.00  0.00     0.067 C 
HETATM    4  C4          0      29.115  92.238 -12.716  1.00  0.00     0.103 C 
HETATM    5  O13         0      29.470  90.997 -12.434  1.00  0.00    -0.307 OA
HETATM    6  C14         0      30.724  90.658 -12.228  1.00  0.00     0.107 C 
HETATM    7  C15         0      31.066  89.494 -11.555  1.00  0.00     0.049 C 
HETATM    8  C16         0      32.366  89.268 -11.118  1.00  0.00     0.093 C 
HETATM    9  C18         0      33.349  89.954 -11.821  1.00  0.00     0.048 C 
HETATM   10  C19         0      33.033  91.096 -12.543  1.00  0.00     0.096 C 
HETATM   11  C21         0      31.740  91.542 -12.577  1.00  0.00     0.084 C 
ENDROOT
BRANCH  10  12
HETATM   12  O20         0      34.042  91.998 -12.866  1.00  0.00    -0.359 OA
HETATM   13  H20         0      34.154  92.759 -12.310  1.00  0.00     0.218 HD
ENDBRANCH  10  12
BRANCH   4  14
HETATM   14  C5          0      27.786  92.700 -12.310  1.00  0.00     0.025 C 
HETATM   15  C6          0      27.471  93.023 -10.999  1.00  0.00     0.004 C 
HETATM   16  C7          0      26.632  94.113 -10.787  1.00  0.00     0.026 C 
HETATM   17  C8          0      26.019  94.777 -11.844  1.00  0.00     0.112 C 
HETATM   18  C10         0      25.882  94.023 -13.002  1.00  0.00     0.112 C 
HETATM   19  C12         0      26.787  92.993 -13.230  1.00  0.00     0.028 C 
BRANCH  17  20
HETATM   20  O9          0      25.775  96.138 -11.780  1.00  0.00    -0.357 OA
HETATM   21  H9          0      24.910  96.523 -11.864  1.00  0.00     0.218 HD
ENDBRANCH  17  20
BRANCH  18  22
HETATM   22  O11         0      25.113  94.568 -14.020  1.00  0.00    -0.357 OA
HETATM   23  H11         0      25.549  94.731 -14.848  1.00  0.00     0.218 HD
ENDBRANCH  18  22
ENDBRANCH   4  14
BRANCH   8  24
HETATM   24  O17         0      32.625  88.679  -9.875  1.00  0.00    -0.359 OA
HETATM   25  H17         0      32.128  88.910  -9.100  1.00  0.00     0.218 HD
ENDBRANCH   8  24
TORSDOF 5
ENDMDL
MODEL 9
REMARK VINA RESULT:      -6.3      2.213      6.858
REMARK  5 active torsions:
REMARK  status: ('A' for Active; 'I' for Inactive)
REMARK    1  A    between atoms: C4_4  and  C5_5 
REMARK    2  A    between atoms: C8_8  and  O9_9 
REMARK    3  A    between atoms: C10_11  and  O11_12 
REMARK    4  A    between atoms: C16_18  and  O17_19 
REMARK    5  A    between atoms: C19_22  and  O20_23 
ROOT
HETATM    1  O1          0      28.346  91.908 -12.665  1.00  0.00    -0.286 OA
HETATM    2  C2          0      29.558  91.556 -12.664  1.00  0.00     0.201 C 
HETATM    3  C3          0      29.973  90.299 -12.258  1.00  0.00     0.067 C 
HETATM    4  C4          0      31.321  89.971 -12.169  1.00  0.00     0.103 C 
HETATM    5  O13         0      32.219  90.881 -12.502  1.00  0.00    -0.307 OA
HETATM    6  C14         0      31.880  92.101 -12.857  1.00  0.00     0.107 C 
HETATM    7  C15         0      32.784  93.152 -12.818  1.00  0.00     0.049 C 
HETATM    8  C16         0      32.364  94.471 -12.946  1.00  0.00     0.093 C 
HETATM    9  C18         0      31.163  94.641 -13.623  1.00  0.00     0.048 C 
HETATM   10  C19         0      30.255  93.595 -13.722  1.00  0.00     0.096 C 
HETATM   11  C21         0      30.553  92.382 -13.164  1.00  0.00     0.084 C 
ENDROOT
BRANCH  10  12
HETATM   12  O20         0      28.920  93.876 -13.997  1.00  0.00    -0.359 OA
HETATM   13  H20         0      28.272  93.218 -13.777  1.00  0.00     0.218 HD
ENDBRANCH  10  12
BRANCH   4  14
HETATM   14  C5          0      31.695  88.929 -11.211  1.00  0.00     0.025 C 
HETATM   15  C6          0      30.944  87.778 -11.020  1.00  0.00     0.004 C 
HETATM   16  C7          0      31.632  86.588 -10.804  1.00  0.00     0.026 C 
HETATM   17  C8          0      33.013  86.562 -10.648  1.00  0.00     0.112 C 
HETATM   18  C10         0      33.572  87.761 -10.227  1.00  0.00     0.112 C 
HETATM   19  C12         0      32.906  88.943 -10.531  1.00  0.00     0.028 C 
BRANCH  17  20
HETATM   20  O9          0      33.756  85.482 -11.090  1.00  0.00    -0.357 OA
HETATM   21  H9          0      33.598  85.034 -11.913  1.00  0.00     0.218 HD
ENDBRANCH  17  20
BRANCH  18  22
HETATM   22  O11         0      34.914  87.740  -9.875  1.00  0.00    -0.357 OA
HETATM   23  H11         0      35.465  87.105 -10.318  1.00  0.00     0.218 HD
ENDBRANCH  18  22
ENDBRANCH   4  14
BRANCH   8  24
HETATM   24  O17         0      32.923  95.493 -12.170  1.00  0.00    -0.359 OA
HETATM   25  H17         0      32.541  95.755 -11.341  1.00  0.00     0.218 HD
ENDBRANCH   8  24
TORSDOF 5
ENDMDL
