MODEL 1
REMARK VINA RESULT:      -6.1      0.000      0.000
REMARK  5 active torsions:
REMARK  status: ('A' for Active; 'I' for Inactive)
REMARK    1  A    between atoms: C4_4  and  C5_5 
REMARK    2  A    between atoms: C8_8  and  O9_9 
REMARK    3  A    between atoms: C10_11  and  O11_12 
REMARK    4  A    between atoms: C16_18  and  O17_19 
REMARK    5  A    between atoms: C19_22  and  O20_23 
ROOT
HETATM    1  O1          0      24.128  30.803   6.752  1.00  0.00    -0.286 OA
HETATM    2  C2          0      23.341  31.683   6.305  1.00  0.00     0.201 C 
HETATM    3  C3          0      22.914  31.709   4.989  1.00  0.00     0.067 C 
HETATM    4  C4          0      22.131  32.747   4.497  1.00  0.00     0.103 C 
HETATM    5  O13         0      21.773  33.717   5.321  1.00  0.00    -0.307 OA
HETATM    6  C14         0      22.182  33.760   6.570  1.00  0.00     0.107 C 
HETATM    7  C15         0      22.155  34.934   7.308  1.00  0.00     0.049 C 
HETATM    8  C16         0      22.816  35.036   8.526  1.00  0.00     0.093 C 
HETATM    9  C18         0      23.021  33.831   9.186  1.00  0.00     0.048 C 
HETATM   10  C19         0      23.007  32.632   8.485  1.00  0.00     0.096 C 
HETATM   11  C21         0      22.774  32.636   7.137  1.00  0.00     0.084 C 
ENDROOT
BRANCH  10  12
HETATM   12  O20         0      23.627  31.515   9.036  1.00  0.00    -0.359 OA
HETATM   13  H20         0      24.291  31.074   8.520  1.00  0.00     0.218 HD
ENDBRANCH  10  12
BRANCH   4  14
HETATM   14  C5          0      22.223  33.037   3.065  1.00  0.00     0.025 C 
HETATM   15  C6          0      23.045  34.029   2.551  1.00  0.00     0.004 C 
HETATM   16  C7          0      23.698  33.768   1.350  1.00  0.00     0.026 C 
HETATM   17  C8          0      23.441  32.614   0.617  1.00  0.00     0.112 C 
HETATM   18  C10         0      22.204  32.034   0.864  1.00  0.00     0.112 C 
HETATM   19  C12         0      21.613  32.242   2.104  1.00  0.00     0.028 C 
BRANCH  17  20
HETATM   20  O9          0      24.440  32.009  -0.125  1.00  0.00    -0.357 OA
HETATM   21  H9          0      24.281  31.519  -0.924  1.00  0.00     0.218 HD
ENDBRANCH  17  20
BRANCH  18  22
HETATM   22  O11         0      21.819  30.995   0.028  1.00  0.00    -0.357 OA
HETATM   23  H11         0      22.501  30.397  -0.256  1.00  0.00     0.218 HD
ENDBRANCH  18  22
ENDBRANCH   4  14
BRANCH   8  24
HETATM   24  O17         0      23.509  36.198   8.885  1.00  0.00    -0.359 OA
HETATM   25  H17         0      24.325  36.442   8.464  1.00  0.00     0.218 HD
ENDBRANCH   8  24
TORSDOF 5
ENDMDL
MODEL 2
REMARK VINA RESULT:      -5.8      2.433      7.389
REMARK  5 active torsions:
REMARK  status: ('A' for Active; 'I' for Inactive)
REMARK    1  A    between atoms: C4_4  and  C5_5 
REMARK    2  A    between atoms: C8_8  and  O9_9 
REMARK    3  A    between atoms: C10_11  and  O11_12 
REMARK    4  A    between atoms: C16_18  and  O17_19 
REMARK    5  A    between atoms: C19_22  and  O20_23 
ROOT
HETATM    1  O1          0      20.448  30.629   7.370  1.00  0.00    -0.286 OA
HETATM    2  C2          0      21.351  31.506   7.457  1.00  0.00     0.201 C 
HETATM    3  C3          0      21.719  32.089   8.657  1.00  0.00     0.067 C 
HETATM    4  C4          0      22.644  33.125   8.711  1.00  0.00     0.103 C 
HETATM    5  O13         0      23.196  33.542   7.585  1.00  0.00    -0.307 OA
HETATM    6  C14         0      22.856  33.048   6.415  1.00  0.00     0.107 C 
HETATM    7  C15         0      23.112  33.727   5.232  1.00  0.00     0.049 C 
HETATM    8  C16         0      22.532  33.332   4.033  1.00  0.00     0.093 C 
HETATM    9  C18         0      22.156  31.996   3.975  1.00  0.00     0.048 C 
HETATM   10  C19         0      21.936  31.273   5.140  1.00  0.00     0.096 C 
HETATM   11  C21         0      22.107  31.877   6.355  1.00  0.00     0.084 C 
ENDROOT
BRANCH  10  12
HETATM   12  O20         0      21.161  30.119   5.088  1.00  0.00    -0.359 OA
HETATM   13  H20         0      21.126  29.643   4.267  1.00  0.00     0.218 HD
ENDBRANCH  10  12
BRANCH   4  14
HETATM   14  C5          0      22.539  34.059   9.833  1.00  0.00     0.025 C 
HETATM   15  C6          0      21.587  33.929  10.833  1.00  0.00     0.004 C 
HETATM   16  C7          0      21.974  34.233  12.135  1.00  0.00     0.026 C 
HETATM   17  C8          0      23.222  34.777  12.416  1.00  0.00     0.112 C 
HETATM   18  C10         0      23.820  35.440  11.353  1.00  0.00     0.112 C 
HETATM   19  C12         0      23.478  35.057  10.061  1.00  0.00     0.028 C 
BRANCH  17  20
HETATM   20  O9          0      23.875  34.478  13.599  1.00  0.00    -0.357 OA
HETATM   21  H9          0      24.318  35.125  14.136  1.00  0.00     0.218 HD
ENDBRANCH  17  20
BRANCH  18  22
HETATM   22  O11         0      24.974  36.159  11.629  1.00  0.00    -0.357 OA
HETATM   23  H11         0      25.752  35.658  11.843  1.00  0.00     0.218 HD
ENDBRANCH  18  22
ENDBRANCH   4  14
BRANCH   8  24
HETATM   24  O17         0      22.062  34.270   3.107  1.00  0.00    -0.359 OA
HETATM   25  H17         0      21.378  34.891   3.329  1.00  0.00     0.218 HD
ENDBRANCH   8  24
TORSDOF 5
ENDMDL
MODEL 3
REMARK VINA RESULT:      -5.8      3.086      5.300
REMARK  5 active torsions:
REMARK  status: ('A' for Active; 'I' for Inactive)
REMARK    1  A    between atoms: C4_4  and  C5_5 
REMARK    2  A    between atoms: C8_8  and  O9_9 
REMARK    3  A    between atoms: C10_11  and  O11_12 
REMARK    4  A    between atoms: C16_18  and  O17_19 
REMARK    5  A    between atoms: C19_22  and  O20_23 
ROOT
HETATM    1  O1          0      20.990  32.957   8.203  1.00  0.00    -0.286 OA
HETATM    2  C2          0      21.520  33.050   7.062  1.00  0.00     0.201 C 
HETATM    3  C3          0      22.297  34.131   6.681  1.00  0.00     0.067 C 
HETATM    4  C4          0      22.784  34.258   5.385  1.00  0.00     0.103 C 
HETATM    5  O13         0      22.509  33.308   4.508  1.00  0.00    -0.307 OA
HETATM    6  C14         0      21.746  32.280   4.807  1.00  0.00     0.107 C 
HETATM    7  C15         0      21.134  31.514   3.825  1.00  0.00     0.049 C 
HETATM    8  C16         0      20.136  30.600   4.140  1.00  0.00     0.093 C 
HETATM    9  C18         0      20.168  30.123   5.445  1.00  0.00     0.048 C 
HETATM   10  C19         0      20.812  30.841   6.443  1.00  0.00     0.096 C 
HETATM   11  C21         0      21.435  32.020   6.137  1.00  0.00     0.084 C 
ENDROOT
BRANCH  10  12
HETATM   12  O20         0      20.480  30.605   7.774  1.00  0.00    -0.359 OA
HETATM   13  H20         0      21.089  30.105   8.303  1.00  0.00     0.218 HD
ENDBRANCH  10  12
BRANCH   4  14
HETATM   14  C5          0      23.045  35.613   4.897  1.00  0.00     0.025 C 
HETATM   15  C6          0      22.369  36.727   5.374  1.00  0.00     0.004 C 
HETATM   16  C7          0      23.097  37.902   5.536  1.00  0.00     0.026 C 
HETATM   17  C8          0      24.417  38.006   5.111  1.00  0.00     0.112 C 
HETATM   18  C10         0      24.779  37.108   4.116  1.00  0.00     0.112 C 
HETATM   19  C12         0      24.091  35.904   4.031  1.00  0.00     0.028 C 
BRANCH  17  20
HETATM   20  O9          0      25.321  38.800   5.795  1.00  0.00    -0.357 OA
HETATM   21  H9          0      25.570  39.675   5.518  1.00  0.00     0.218 HD
ENDBRANCH  17  20
BRANCH  18  22
HETATM   22  O11         0      26.021  37.292   3.525  1.00  0.00    -0.357 OA
HETATM   23  H11         0      26.035  37.412   2.582  1.00  0.00     0.218 HD
ENDBRANCH  18  22
ENDBRANCH   4  14
BRANCH   8  24
HETATM   24  O17         0      19.009  30.441   3.326  1.00  0.00    -0.359 OA
HETATM   25  H17         0      18.231  30.974   3.441  1.00  0.00     0.218 HD
ENDBRANCH   8  24
TORSDOF 5
ENDMDL
MODEL 4
REMARK VINA RESULT:      -5.6      2.096      6.918
REMARK  5 active torsions:
REMARK  status: ('A' for Active; 'I' for Inactive)
REMARK    1  A    between atoms: C4_4  and  C5_5 
REMARK    2  A    between atoms: C8_8  and  O9_9 
REMARK    3  A    between atoms: C10_11  and  O11_12 
REMARK    4  A    between atoms: C16_18  and  O17_19 
REMARK    5  A    between atoms: C19_22  and  O20_23 
ROOT
HETATM    1  O1          0      18.882  33.299   2.816  1.00  0.00    -0.286 OA
HETATM    2  C2          0      19.932  32.728   3.221  1.00  0.00     0.201 C 
HETATM    3  C3          0      20.174  32.462   4.558  1.00  0.00     0.067 C 
HETATM    4  C4          0      21.382  31.925   4.987  1.00  0.00     0.103 C 
HETATM    5  O13         0      22.308  31.646   4.086  1.00  0.00    -0.307 OA
HETATM    6  C14         0      22.144  31.913   2.809  1.00  0.00     0.107 C 
HETATM    7  C15         0      23.220  32.003   1.937  1.00  0.00     0.049 C 
HETATM    8  C16         0      23.071  32.530   0.660  1.00  0.00     0.093 C 
HETATM    9  C18         0      21.786  32.452   0.139  1.00  0.00     0.048 C 
HETATM   10  C19         0      20.690  32.316   0.980  1.00  0.00     0.096 C 
HETATM   11  C21         0      20.879  32.240   2.333  1.00  0.00     0.084 C 
ENDROOT
BRANCH  10  12
HETATM   12  O20         0      19.427  32.672   0.517  1.00  0.00    -0.359 OA
HETATM   13  H20         0      19.044  32.148  -0.177  1.00  0.00     0.218 HD
ENDBRANCH  10  12
BRANCH   4  14
HETATM   14  C5          0      21.800  32.226   6.357  1.00  0.00     0.025 C 
HETATM   15  C6          0      20.910  32.626   7.344  1.00  0.00     0.004 C 
HETATM   16  C7          0      21.114  32.140   8.631  1.00  0.00     0.026 C 
HETATM   17  C8          0      22.240  31.392   8.958  1.00  0.00     0.112 C 
HETATM   18  C10         0      23.329  31.585   8.119  1.00  0.00     0.112 C 
HETATM   19  C12         0      23.091  31.989   6.811  1.00  0.00     0.028 C 
BRANCH  17  20
HETATM   20  O9          0      22.173  30.392   9.913  1.00  0.00    -0.357 OA
HETATM   21  H9          0      21.553  29.672   9.881  1.00  0.00     0.218 HD
ENDBRANCH  17  20
BRANCH  18  22
HETATM   22  O11         0      24.531  31.011   8.508  1.00  0.00    -0.357 OA
HETATM   23  H11         0      25.242  31.604   8.719  1.00  0.00     0.218 HD
ENDBRANCH  18  22
ENDBRANCH   4  14
BRANCH   8  24
HETATM   24  O17         0      24.044  33.364   0.098  1.00  0.00    -0.359 OA
HETATM   25  H17         0      23.841  33.958  -0.615  1.00  0.00     0.218 HD
ENDBRANCH   8  24
TORSDOF 5
ENDMDL
MODEL 5
REMARK VINA RESULT:      -5.4      2.496      3.880
REMARK  5 active torsions:
REMARK  status: ('A' for Active; 'I' for Inactive)
REMARK    1  A    between atoms: C4_4  and  C5_5 
REMARK    2  A    between atoms: C8_8  and  O9_9 
REMARK    3  A    between atoms: C10_11  and  O11_12 
REMARK    4  A    between atoms: C16_18  and  O17_19 
REMARK    5  A    between atoms: C19_22  and  O20_23 
ROOT
HETATM    1  O1          0      22.911  35.255   8.839  1.00  0.00    -0.286 OA
HETATM    2  C2          0      22.702  35.527   7.625  1.00  0.00     0.201 C 
HETATM    3  C3          0      22.446  34.557   6.672  1.00  0.00     0.067 C 
HETATM    4  C4          0      22.321  34.874   5.324  1.00  0.00     0.103 C 
HETATM    5  O13         0      22.432  36.139   4.957  1.00  0.00    -0.307 OA
HETATM    6  C14         0      22.711  37.094   5.816  1.00  0.00     0.107 C 
HETATM    7  C15         0      23.216  38.320   5.408  1.00  0.00     0.049 C 
HETATM    8  C16         0      23.745  39.224   6.321  1.00  0.00     0.093 C 
HETATM    9  C18         0      23.273  39.089   7.621  1.00  0.00     0.048 C 
HETATM   10  C19         0      22.719  37.890   8.050  1.00  0.00     0.096 C 
HETATM   11  C21         0      22.622  36.838   7.180  1.00  0.00     0.084 C 
ENDROOT
BRANCH  10  12
HETATM   12  O20         0      22.658  37.618   9.413  1.00  0.00    -0.359 OA
HETATM   13  H20         0      21.922  37.964   9.903  1.00  0.00     0.218 HD
ENDBRANCH  10  12
BRANCH   4  14
HETATM   14  C5          0      22.654  33.828   4.356  1.00  0.00     0.025 C 
HETATM   15  C6          0      22.630  32.477   4.670  1.00  0.00     0.004 C 
HETATM   16  C7          0      22.160  31.597   3.700  1.00  0.00     0.026 C 
HETATM   17  C8          0      21.852  32.027   2.414  1.00  0.00     0.112 C 
HETATM   18  C10         0      22.489  33.198   2.025  1.00  0.00     0.112 C 
HETATM   19  C12         0      22.872  34.100   3.011  1.00  0.00     0.028 C 
BRANCH  17  20
HETATM   20  O9          0      20.831  31.433   1.694  1.00  0.00    -0.357 OA
HETATM   21  H9          0      20.872  31.265   0.759  1.00  0.00     0.218 HD
ENDBRANCH  17  20
BRANCH  18  22
HETATM   22  O11         0      22.367  33.568   0.694  1.00  0.00    -0.357 OA
HETATM   23  H11         0      22.428  34.496   0.498  1.00  0.00     0.218 HD
ENDBRANCH  18  22
ENDBRANCH   4  14
BRANCH   8  24
HETATM   24  O17         0      24.894  39.967   6.029  1.00  0.00    -0.359 OA
HETATM   25  H17         0      25.138  40.180   5.136  1.00  0.00     0.218 HD
ENDBRANCH   8  24
TORSDOF 5
ENDMDL
MODEL 6
REMARK VINA RESULT:      -5.4      1.541      2.803
REMARK  5 active torsions:
REMARK  status: ('A' for Active; 'I' for Inactive)
REMARK    1  A    between atoms: C4_4  and  C5_5 
REMARK    2  A    between atoms: C8_8  and  O9_9 
REMARK    3  A    between atoms: C10_11  and  O11_12 
REMARK    4  A    between atoms: C16_18  and  O17_19 
REMARK    5  A    between atoms: C19_22  and  O20_23 
ROOT
HETATM    1  O1          0      22.996  35.869   6.070  1.00  0.00    -0.286 OA
HETATM    2  C2          0      22.918  34.612   5.994  1.00  0.00     0.201 C 
HETATM    3  C3          0      22.947  33.930   4.790  1.00  0.00     0.067 C 
HETATM    4  C4          0      22.756  32.554   4.727  1.00  0.00     0.103 C 
HETATM    5  O13         0      22.564  31.888   5.852  1.00  0.00    -0.307 OA
HETATM    6  C14         0      22.491  32.492   7.018  1.00  0.00     0.107 C 
HETATM    7  C15         0      21.906  31.885   8.120  1.00  0.00     0.049 C 
HETATM    8  C16         0      21.602  32.609   9.267  1.00  0.00     0.093 C 
HETATM    9  C18         0      22.362  33.757   9.454  1.00  0.00     0.048 C 
HETATM   10  C19         0      23.000  34.364   8.381  1.00  0.00     0.096 C 
HETATM   11  C21         0      22.893  33.818   7.131  1.00  0.00     0.084 C 
ENDROOT
BRANCH  10  12
HETATM   12  O20         0      23.375  35.700   8.479  1.00  0.00    -0.359 OA
HETATM   13  H20         0      23.725  36.005   9.308  1.00  0.00     0.218 HD
ENDBRANCH  10  12
BRANCH   4  14
HETATM   14  C5          0      22.208  32.009   3.484  1.00  0.00     0.025 C 
HETATM   15  C6          0      20.847  31.853   3.267  1.00  0.00     0.004 C 
HETATM   16  C7          0      20.362  32.125   1.991  1.00  0.00     0.026 C 
HETATM   17  C8          0      21.216  32.412   0.932  1.00  0.00     0.112 C 
HETATM   18  C10         0      22.510  31.932   1.084  1.00  0.00     0.112 C 
HETATM   19  C12         0      23.000  31.750   2.372  1.00  0.00     0.028 C 
BRANCH  17  20
HETATM   20  O9          0      20.834  33.287  -0.070  1.00  0.00    -0.357 OA
HETATM   21  H9          0      20.005  33.751  -0.077  1.00  0.00     0.218 HD
ENDBRANCH  17  20
BRANCH  18  22
HETATM   22  O11         0      23.349  32.025  -0.018  1.00  0.00    -0.357 OA
HETATM   23  H11         0      23.704  31.211  -0.357  1.00  0.00     0.218 HD
ENDBRANCH  18  22
ENDBRANCH   4  14
BRANCH   8  24
HETATM   24  O17         0      20.417  32.387   9.976  1.00  0.00    -0.359 OA
HETATM   25  H17         0      19.969  33.090  10.432  1.00  0.00     0.218 HD
ENDBRANCH   8  24
TORSDOF 5
ENDMDL
MODEL 7
REMARK VINA RESULT:      -5.4      3.629      6.109
REMARK  5 active torsions:
REMARK  status: ('A' for Active; 'I' for Inactive)
REMARK    1  A    between atoms: C4_4  and  C5_5 
REMARK    2  A    between atoms: C8_8  and  O9_9 
REMARK    3  A    between atoms: C10_11  and  O11_12 
REMARK    4  A    between atoms: C16_18  and  O17_19 
REMARK    5  A    between atoms: C19_22  and  O20_23 
ROOT
HETATM    1  O1          0      23.009  37.381   9.362  1.00  0.00    -0.286 OA
HETATM    2  C2          0      22.701  36.726   8.329  1.00  0.00     0.201 C 
HETATM    3  C3          0      22.351  35.388   8.366  1.00  0.00     0.067 C 
HETATM    4  C4          0      22.115  34.664   7.202  1.00  0.00     0.103 C 
HETATM    5  O13         0      22.211  35.283   6.039  1.00  0.00    -0.307 OA
HETATM    6  C14         0      22.577  36.543   5.946  1.00  0.00     0.107 C 
HETATM    7  C15         0      23.061  37.077   4.761  1.00  0.00     0.049 C 
HETATM    8  C16         0      23.680  38.321   4.730  1.00  0.00     0.093 C 
HETATM    9  C18         0      23.318  39.182   5.760  1.00  0.00     0.048 C 
HETATM   10  C19         0      22.787  38.684   6.942  1.00  0.00     0.096 C 
HETATM   11  C21         0      22.601  37.336   7.088  1.00  0.00     0.084 C 
ENDROOT
BRANCH  10  12
HETATM   12  O20         0      22.839  39.464   8.093  1.00  0.00    -0.359 OA
HETATM   13  H20         0      23.096  39.043   8.904  1.00  0.00     0.218 HD
ENDBRANCH  10  12
BRANCH   4  14
HETATM   14  C5          0      22.350  33.219   7.253  1.00  0.00     0.025 C 
HETATM   15  C6          0      23.292  32.582   6.459  1.00  0.00     0.004 C 
HETATM   16  C7          0      24.016  31.540   7.029  1.00  0.00     0.026 C 
HETATM   17  C8          0      23.724  31.058   8.300  1.00  0.00     0.112 C 
HETATM   18  C10         0      22.426  31.303   8.729  1.00  0.00     0.112 C 
HETATM   19  C12         0      21.754  32.402   8.205  1.00  0.00     0.028 C 
BRANCH  17  20
HETATM   20  O9          0      24.725  30.571   9.122  1.00  0.00    -0.357 OA
HETATM   21  H9          0      25.652  30.691   8.952  1.00  0.00     0.218 HD
ENDBRANCH  17  20
BRANCH  18  22
HETATM   22  O11         0      22.024  30.683   9.903  1.00  0.00    -0.357 OA
HETATM   23  H11         0      22.673  30.608  10.593  1.00  0.00     0.218 HD
ENDBRANCH  18  22
ENDBRANCH   4  14
BRANCH   8  24
HETATM   24  O17         0      24.809  38.555   3.938  1.00  0.00    -0.359 OA
HETATM   25  H17         0      24.739  38.910   3.060  1.00  0.00     0.218 HD
ENDBRANCH   8  24
TORSDOF 5
ENDMDL
MODEL 8
REMARK VINA RESULT:      -5.2      2.509      4.427
REMARK  5 active torsions:
REMARK  status: ('A' for Active; 'I' for Inactive)
REMARK    1  A    between atoms: C4_4  and  C5_5 
REMARK    2  A    between atoms: C8_8  and  O9_9 
REMARK    3  A    between atoms: C10_11  and  O11_12 
REMARK    4  A    between atoms: C16_18  and  O17_19 
REMARK    5  A    between atoms: C19_22  and  O20_23 
ROOT
HETATM    1  O1          0      19.537  34.915   9.444  1.00  0.00    -0.286 OA
HETATM    2  C2          0      20.750  35.022   9.116  1.00  0.00     0.201 C 
HETATM    3  C3          0      21.206  34.774   7.832  1.00  0.00     0.067 C 
HETATM    4  C4          0      22.561  34.799   7.523  1.00  0.00     0.103 C 
HETATM    5  O13         0      23.426  35.087   8.479  1.00  0.00    -0.307 OA
HETATM    6  C14         0      23.050  35.294   9.722  1.00  0.00     0.107 C 
HETATM    7  C15         0      23.941  35.198  10.781  1.00  0.00     0.049 C 
HETATM    8  C16         0      23.497  35.163  12.098  1.00  0.00     0.093 C 
HETATM    9  C18         0      22.255  35.747  12.313  1.00  0.00     0.048 C 
HETATM   10  C19         0      21.356  35.901  11.266  1.00  0.00     0.096 C 
HETATM   11  C21         0      21.703  35.490  10.008  1.00  0.00     0.084 C 
ENDROOT
BRANCH  10  12
HETATM   12  O20         0      20.004  36.066  11.549  1.00  0.00    -0.359 OA
HETATM   13  H20         0      19.746  36.148  12.460  1.00  0.00     0.218 HD
ENDBRANCH  10  12
BRANCH   4  14
HETATM   14  C5          0      23.005  33.978   6.395  1.00  0.00     0.025 C 
HETATM   15  C6          0      23.456  32.675   6.545  1.00  0.00     0.004 C 
HETATM   16  C7          0      23.101  31.753   5.566  1.00  0.00     0.026 C 
HETATM   17  C8          0      22.435  32.139   4.408  1.00  0.00     0.112 C 
HETATM   18  C10         0      22.597  33.474   4.064  1.00  0.00     0.112 C 
HETATM   19  C12         0      22.867  34.389   5.075  1.00  0.00     0.028 C 
BRANCH  17  20
HETATM   20  O9          0      21.527  31.293   3.797  1.00  0.00    -0.357 OA
HETATM   21  H9          0      20.632  31.539   3.590  1.00  0.00     0.218 HD
ENDBRANCH  17  20
BRANCH  18  22
HETATM   22  O11         0      22.113  33.867   2.824  1.00  0.00    -0.357 OA
HETATM   23  H11         0      21.594  34.663   2.797  1.00  0.00     0.218 HD
ENDBRANCH  18  22
ENDBRANCH   4  14
BRANCH   8  24
HETATM   24  O17         0      24.088  34.319  13.045  1.00  0.00    -0.359 OA
HETATM   25  H17         0      24.122  33.378  12.922  1.00  0.00     0.218 HD
ENDBRANCH   8  24
TORSDOF 5
ENDMDL
MODEL 9
REMARK VINA RESULT:      -5.2      3.298      5.883
REMARK  5 active torsions:
REMARK  status: ('A' for Active; 'I' for Inactive)
REMARK    1  A    between atoms: C4_4  and  C5_5 
REMARK    2  A    between atoms: C8_8  and  O9_9 
REMARK    3  A    between atoms: C10_11  and  O11_12 
REMARK    4  A    between atoms: C16_18  and  O17_19 
REMARK    5  A    between atoms: C19_22  and  O20_23 
ROOT
HETATM    1  O1          0      19.825  36.800   6.151  1.00  0.00    -0.286 OA
HETATM    2  C2          0      20.831  36.161   5.739  1.00  0.00     0.201 C 
HETATM    3  C3          0      20.930  34.783   5.822  1.00  0.00     0.067 C 
HETATM    4  C4          0      22.092  34.112   5.456  1.00  0.00     0.103 C 
HETATM    5  O13         0      23.114  34.815   5.001  1.00  0.00    -0.307 OA
HETATM    6  C14         0      23.086  36.128   4.938  1.00  0.00     0.107 C 
HETATM    7  C15         0      24.249  36.880   4.852  1.00  0.00     0.049 C 
HETATM    8  C16         0      24.234  38.257   5.042  1.00  0.00     0.093 C 
HETATM    9  C18         0      23.013  38.871   4.787  1.00  0.00     0.048 C 
HETATM   10  C19         0      21.835  38.138   4.818  1.00  0.00     0.096 C 
HETATM   11  C21         0      21.876  36.797   5.086  1.00  0.00     0.084 C 
ENDROOT
BRANCH  10  12
HETATM   12  O20         0      20.625  38.802   4.998  1.00  0.00    -0.359 OA
HETATM   13  H20         0      19.824  38.305   4.891  1.00  0.00     0.218 HD
ENDBRANCH  10  12
BRANCH   4  14
HETATM   14  C5          0      22.353  32.825   6.102  1.00  0.00     0.025 C 
HETATM   15  C6          0      23.284  31.916   5.618  1.00  0.00     0.004 C 
HETATM   16  C7          0      24.043  31.214   6.549  1.00  0.00     0.026 C 
HETATM   17  C8          0      23.796  31.311   7.914  1.00  0.00     0.112 C 
HETATM   18  C10         0      22.507  31.708   8.243  1.00  0.00     0.112 C 
HETATM   19  C12         0      21.801  32.481   7.329  1.00  0.00     0.028 C 
BRANCH  17  20
HETATM   20  O9          0      24.829  31.220   8.830  1.00  0.00    -0.357 OA
HETATM   21  H9          0      25.748  31.257   8.594  1.00  0.00     0.218 HD
ENDBRANCH  17  20
BRANCH  18  22
HETATM   22  O11         0      22.150  31.639   9.582  1.00  0.00    -0.357 OA
HETATM   23  H11         0      22.622  31.014  10.121  1.00  0.00     0.218 HD
ENDBRANCH  18  22
ENDBRANCH   4  14
BRANCH   8  24
HETATM   24  O17         0      25.250  38.907   5.751  1.00  0.00    -0.359 OA
HETATM   25  H17         0      25.325  39.854   5.761  1.00  0.00     0.218 HD
ENDBRANCH   8  24
TORSDOF 5
ENDMDL
