MODEL 1
REMARK VINA RESULT:      -6.5      0.000      0.000
REMARK  5 active torsions:
REMARK  status: ('A' for Active; 'I' for Inactive)
REMARK    1  A    between atoms: C4_4  and  C5_5 
REMARK    2  A    between atoms: C8_8  and  O9_9 
REMARK    3  A    between atoms: C10_11  and  O11_12 
REMARK    4  A    between atoms: C16_18  and  O17_19 
REMARK    5  A    between atoms: C19_22  and  O20_23 
ROOT
HETATM    1  O1          0      24.736  17.581  14.490  1.00  0.00    -0.286 OA
HETATM    2  C2          0      24.248  18.349  15.363  1.00  0.00     0.201 C 
HETATM    3  C3          0      23.237  19.254  15.087  1.00  0.00     0.067 C 
HETATM    4  C4          0      22.789  20.159  16.042  1.00  0.00     0.103 C 
HETATM    5  O13         0      23.334  20.134  17.246  1.00  0.00    -0.307 OA
HETATM    6  C14         0      24.322  19.322  17.549  1.00  0.00     0.107 C 
HETATM    7  C15         0      25.150  19.552  18.638  1.00  0.00     0.049 C 
HETATM    8  C16         0      26.335  18.845  18.806  1.00  0.00     0.093 C 
HETATM    9  C18         0      26.371  17.604  18.183  1.00  0.00     0.048 C 
HETATM   10  C19         0      25.523  17.323  17.120  1.00  0.00     0.096 C 
HETATM   11  C21         0      24.633  18.270  16.693  1.00  0.00     0.084 C 
ENDROOT
BRANCH  10  12
HETATM   12  O20         0      25.849  16.292  16.244  1.00  0.00    -0.359 OA
HETATM   13  H20         0      26.323  16.514  15.452  1.00  0.00     0.218 HD
ENDBRANCH  10  12
BRANCH   4  14
HETATM   14  C5          0      22.210  21.413  15.556  1.00  0.00     0.025 C 
HETATM   15  C6          0      21.685  22.378  16.404  1.00  0.00     0.004 C 
HETATM   16  C7          0      21.906  23.712  16.078  1.00  0.00     0.026 C 
HETATM   17  C8          0      22.511  24.080  14.881  1.00  0.00     0.112 C 
HETATM   18  C10         0      22.414  23.135  13.869  1.00  0.00     0.112 C 
HETATM   19  C12         0      22.279  21.798  14.223  1.00  0.00     0.028 C 
BRANCH  17  20
HETATM   20  O9          0      23.315  25.204  14.809  1.00  0.00    -0.357 OA
HETATM   21  H9          0      23.979  25.420  15.453  1.00  0.00     0.218 HD
ENDBRANCH  17  20
BRANCH  18  22
HETATM   22  O11         0      22.832  23.524  12.604  1.00  0.00    -0.357 OA
HETATM   23  H11         0      23.312  24.342  12.542  1.00  0.00     0.218 HD
ENDBRANCH  18  22
ENDBRANCH   4  14
BRANCH   8  24
HETATM   24  O17         0      27.498  19.471  19.268  1.00  0.00    -0.359 OA
HETATM   25  H17         0      27.490  20.365  19.589  1.00  0.00     0.218 HD
ENDBRANCH   8  24
TORSDOF 5
ENDMDL
MODEL 2
REMARK VINA RESULT:      -6.1      1.536      6.593
REMARK  5 active torsions:
REMARK  status: ('A' for Active; 'I' for Inactive)
REMARK    1  A    between atoms: C4_4  and  C5_5 
REMARK    2  A    between atoms: C8_8  and  O9_9 
REMARK    3  A    between atoms: C10_11  and  O11_12 
REMARK    4  A    between atoms: C16_18  and  O17_19 
REMARK    5  A    between atoms: C19_22  and  O20_23 
ROOT
HETATM    1  O1          0      24.267  23.402  18.204  1.00  0.00    -0.286 OA
HETATM    2  C2          0      23.610  22.569  17.522  1.00  0.00     0.201 C 
HETATM    3  C3          0      23.572  21.218  17.822  1.00  0.00     0.067 C 
HETATM    4  C4          0      22.925  20.306  16.996  1.00  0.00     0.103 C 
HETATM    5  O13         0      22.318  20.752  15.910  1.00  0.00    -0.307 OA
HETATM    6  C14         0      22.357  22.019  15.559  1.00  0.00     0.107 C 
HETATM    7  C15         0      22.085  22.426  14.260  1.00  0.00     0.049 C 
HETATM    8  C16         0      22.372  23.717  13.834  1.00  0.00     0.093 C 
HETATM    9  C18         0      22.421  24.671  14.843  1.00  0.00     0.048 C 
HETATM   10  C19         0      22.644  24.294  16.160  1.00  0.00     0.096 C 
HETATM   11  C21         0      22.801  22.970  16.470  1.00  0.00     0.084 C 
ENDROOT
BRANCH  10  12
HETATM   12  O20         0      23.119  25.237  17.066  1.00  0.00    -0.359 OA
HETATM   13  H20         0      23.989  25.110  17.426  1.00  0.00     0.218 HD
ENDBRANCH  10  12
BRANCH   4  14
HETATM   14  C5          0      23.409  18.924  17.015  1.00  0.00     0.025 C 
HETATM   15  C6          0      22.825  17.912  16.267  1.00  0.00     0.004 C 
HETATM   16  C7          0      23.668  16.966  15.693  1.00  0.00     0.026 C 
HETATM   17  C8          0      25.032  16.946  15.963  1.00  0.00     0.112 C 
HETATM   18  C10         0      25.396  17.551  17.158  1.00  0.00     0.112 C 
HETATM   19  C12         0      24.578  18.554  17.666  1.00  0.00     0.028 C 
BRANCH  17  20
HETATM   20  O9          0      25.939  16.541  15.000  1.00  0.00    -0.357 OA
HETATM   21  H9          0      25.697  16.308  14.111  1.00  0.00     0.218 HD
ENDBRANCH  17  20
BRANCH  18  22
HETATM   22  O11         0      26.713  17.395  17.567  1.00  0.00    -0.357 OA
HETATM   23  H11         0      27.275  18.159  17.509  1.00  0.00     0.218 HD
ENDBRANCH  18  22
ENDBRANCH   4  14
BRANCH   8  24
HETATM   24  O17         0      22.897  23.964  12.561  1.00  0.00    -0.359 OA
HETATM   25  H17         0      23.477  24.698  12.394  1.00  0.00     0.218 HD
ENDBRANCH   8  24
TORSDOF 5
ENDMDL
MODEL 3
REMARK VINA RESULT:      -5.6     10.065     12.762
REMARK  5 active torsions:
REMARK  status: ('A' for Active; 'I' for Inactive)
REMARK    1  A    between atoms: C4_4  and  C5_5 
REMARK    2  A    between atoms: C8_8  and  O9_9 
REMARK    3  A    between atoms: C10_11  and  O11_12 
REMARK    4  A    between atoms: C16_18  and  O17_19 
REMARK    5  A    between atoms: C19_22  and  O20_23 
ROOT
HETATM    1  O1          0      25.264  23.724   5.115  1.00  0.00    -0.286 OA
HETATM    2  C2          0      25.267  22.590   4.561  1.00  0.00     0.201 C 
HETATM    3  C3          0      24.282  21.644   4.784  1.00  0.00     0.067 C 
HETATM    4  C4          0      24.364  20.366   4.242  1.00  0.00     0.103 C 
HETATM    5  O13         0      25.400  20.065   3.480  1.00  0.00    -0.307 OA
HETATM    6  C14         0      26.381  20.914   3.267  1.00  0.00     0.107 C 
HETATM    7  C15         0      27.627  20.495   2.822  1.00  0.00     0.049 C 
HETATM    8  C16         0      28.725  21.347   2.843  1.00  0.00     0.093 C 
HETATM    9  C18         0      28.417  22.702   2.806  1.00  0.00     0.048 C 
HETATM   10  C19         0      27.163  23.151   3.199  1.00  0.00     0.096 C 
HETATM   11  C21         0      26.218  22.251   3.610  1.00  0.00     0.084 C 
ENDROOT
BRANCH  10  12
HETATM   12  O20         0      27.005  24.482   3.574  1.00  0.00    -0.359 OA
HETATM   13  H20         0      27.235  25.152   2.943  1.00  0.00     0.218 HD
ENDBRANCH  10  12
BRANCH   4  14
HETATM   14  C5          0      23.680  19.289   4.960  1.00  0.00     0.025 C 
HETATM   15  C6          0      24.210  18.013   5.084  1.00  0.00     0.004 C 
HETATM   16  C7          0      24.029  17.354   6.296  1.00  0.00     0.026 C 
HETATM   17  C8          0      23.234  17.888   7.304  1.00  0.00     0.112 C 
HETATM   18  C10         0      22.278  18.796   6.869  1.00  0.00     0.112 C 
HETATM   19  C12         0      22.523  19.503   5.698  1.00  0.00     0.028 C 
BRANCH  17  20
HETATM   20  O9          0      23.539  17.673   8.636  1.00  0.00    -0.357 OA
HETATM   21  H9          0      23.894  16.858   8.972  1.00  0.00     0.218 HD
ENDBRANCH  17  20
BRANCH  18  22
HETATM   22  O11         0      21.338  19.214   7.801  1.00  0.00    -0.357 OA
HETATM   23  H11         0      20.614  19.737   7.476  1.00  0.00     0.218 HD
ENDBRANCH  18  22
ENDBRANCH   4  14
BRANCH   8  24
HETATM   24  O17         0      29.995  20.891   3.211  1.00  0.00    -0.359 OA
HETATM   25  H17         0      30.110  20.174   3.824  1.00  0.00     0.218 HD
ENDBRANCH   8  24
TORSDOF 5
ENDMDL
MODEL 4
REMARK VINA RESULT:      -5.5     11.491     13.806
REMARK  5 active torsions:
REMARK  status: ('A' for Active; 'I' for Inactive)
REMARK    1  A    between atoms: C4_4  and  C5_5 
REMARK    2  A    between atoms: C8_8  and  O9_9 
REMARK    3  A    between atoms: C10_11  and  O11_12 
REMARK    4  A    between atoms: C16_18  and  O17_19 
REMARK    5  A    between atoms: C19_22  and  O20_23 
ROOT
HETATM    1  O1          0      26.129  18.472   6.653  1.00  0.00    -0.286 OA
HETATM    2  C2          0      26.616  19.101   5.674  1.00  0.00     0.201 C 
HETATM    3  C3          0      27.826  18.763   5.092  1.00  0.00     0.067 C 
HETATM    4  C4          0      28.389  19.535   4.082  1.00  0.00     0.103 C 
HETATM    5  O13         0      27.736  20.604   3.661  1.00  0.00    -0.307 OA
HETATM    6  C14         0      26.603  20.990   4.205  1.00  0.00     0.107 C 
HETATM    7  C15         0      26.127  22.285   4.060  1.00  0.00     0.049 C 
HETATM    8  C16         0      25.076  22.759   4.836  1.00  0.00     0.093 C 
HETATM    9  C18         0      24.224  21.779   5.331  1.00  0.00     0.048 C 
HETATM   10  C19         0      24.653  20.463   5.446  1.00  0.00     0.096 C 
HETATM   11  C21         0      25.919  20.125   5.052  1.00  0.00     0.084 C 
ENDROOT
BRANCH  10  12
HETATM   12  O20         0      23.989  19.605   6.317  1.00  0.00    -0.359 OA
HETATM   13  H20         0      24.048  19.782   7.248  1.00  0.00     0.218 HD
ENDBRANCH  10  12
BRANCH   4  14
HETATM   14  C5          0      29.846  19.501   3.946  1.00  0.00     0.025 C 
HETATM   15  C6          0      30.691  19.150   4.989  1.00  0.00     0.004 C 
HETATM   16  C7          0      31.813  18.388   4.682  1.00  0.00     0.026 C 
HETATM   17  C8          0      32.159  18.096   3.367  1.00  0.00     0.112 C 
HETATM   18  C10         0      31.655  18.982   2.425  1.00  0.00     0.112 C 
HETATM   19  C12         0      30.484  19.669   2.724  1.00  0.00     0.028 C 
BRANCH  17  20
HETATM   20  O9          0      32.773  16.899   3.045  1.00  0.00    -0.357 OA
HETATM   21  H9          0      33.381  16.795   2.322  1.00  0.00     0.218 HD
ENDBRANCH  17  20
BRANCH  18  22
HETATM   22  O11         0      32.122  18.850   1.125  1.00  0.00    -0.357 OA
HETATM   23  H11         0      31.480  18.633   0.458  1.00  0.00     0.218 HD
ENDBRANCH  18  22
ENDBRANCH   4  14
BRANCH   8  24
HETATM   24  O17         0      25.077  24.060   5.350  1.00  0.00    -0.359 OA
HETATM   25  H17         0      25.818  24.405   5.834  1.00  0.00     0.218 HD
ENDBRANCH   8  24
TORSDOF 5
ENDMDL
MODEL 5
REMARK VINA RESULT:      -5.4     10.433     12.928
REMARK  5 active torsions:
REMARK  status: ('A' for Active; 'I' for Inactive)
REMARK    1  A    between atoms: C4_4  and  C5_5 
REMARK    2  A    between atoms: C8_8  and  O9_9 
REMARK    3  A    between atoms: C10_11  and  O11_12 
REMARK    4  A    between atoms: C16_18  and  O17_19 
REMARK    5  A    between atoms: C19_22  and  O20_23 
ROOT
HETATM    1  O1          0      28.151  19.232   2.920  1.00  0.00    -0.286 OA
HETATM    2  C2          0      27.301  19.942   3.525  1.00  0.00     0.201 C 
HETATM    3  C3          0      26.274  19.403   4.280  1.00  0.00     0.067 C 
HETATM    4  C4          0      25.291  20.203   4.851  1.00  0.00     0.103 C 
HETATM    5  O13         0      25.359  21.512   4.679  1.00  0.00    -0.307 OA
HETATM    6  C14         0      26.292  22.072   3.940  1.00  0.00     0.107 C 
HETATM    7  C15         0      26.149  23.355   3.432  1.00  0.00     0.049 C 
HETATM    8  C16         0      27.007  23.843   2.454  1.00  0.00     0.093 C 
HETATM    9  C18         0      28.257  23.238   2.415  1.00  0.00     0.048 C 
HETATM   10  C19         0      28.446  21.974   2.956  1.00  0.00     0.096 C 
HETATM   11  C21         0      27.397  21.325   3.548  1.00  0.00     0.084 C 
ENDROOT
BRANCH  10  12
HETATM   12  O20         0      29.534  21.212   2.541  1.00  0.00    -0.359 OA
HETATM   13  H20         0      30.404  21.570   2.671  1.00  0.00     0.218 HD
ENDBRANCH  10  12
BRANCH   4  14
HETATM   14  C5          0      23.982  19.591   5.088  1.00  0.00     0.025 C 
HETATM   15  C6          0      23.829  18.260   5.448  1.00  0.00     0.004 C 
HETATM   16  C7          0      22.839  17.953   6.375  1.00  0.00     0.026 C 
HETATM   17  C8          0      21.942  18.914   6.830  1.00  0.00     0.112 C 
HETATM   18  C10         0      21.768  19.995   5.976  1.00  0.00     0.112 C 
HETATM   19  C12         0      22.808  20.332   5.118  1.00  0.00     0.028 C 
BRANCH  17  20
HETATM   20  O9          0      21.449  18.869   8.122  1.00  0.00    -0.357 OA
HETATM   21  H9          0      20.583  19.173   8.367  1.00  0.00     0.218 HD
ENDBRANCH  17  20
BRANCH  18  22
HETATM   22  O11         0      20.750  20.885   6.288  1.00  0.00    -0.357 OA
HETATM   23  H11         0      20.064  20.569   6.864  1.00  0.00     0.218 HD
ENDBRANCH  18  22
ENDBRANCH   4  14
BRANCH   8  24
HETATM   24  O17         0      26.535  24.626   1.395  1.00  0.00    -0.359 OA
HETATM   25  H17         0      27.040  24.748   0.600  1.00  0.00     0.218 HD
ENDBRANCH   8  24
TORSDOF 5
ENDMDL
MODEL 6
REMARK VINA RESULT:      -5.2     10.996     13.221
REMARK  5 active torsions:
REMARK  status: ('A' for Active; 'I' for Inactive)
REMARK    1  A    between atoms: C4_4  and  C5_5 
REMARK    2  A    between atoms: C8_8  and  O9_9 
REMARK    3  A    between atoms: C10_11  and  O11_12 
REMARK    4  A    between atoms: C16_18  and  O17_19 
REMARK    5  A    between atoms: C19_22  and  O20_23 
ROOT
HETATM    1  O1          0      28.078  19.453   3.472  1.00  0.00    -0.286 OA
HETATM    2  C2          0      27.221  20.259   3.927  1.00  0.00     0.201 C 
HETATM    3  C3          0      26.216  19.873   4.797  1.00  0.00     0.067 C 
HETATM    4  C4          0      25.224  20.759   5.203  1.00  0.00     0.103 C 
HETATM    5  O13         0      25.262  22.002   4.757  1.00  0.00    -0.307 OA
HETATM    6  C14         0      26.173  22.410   3.901  1.00  0.00     0.107 C 
HETATM    7  C15         0      25.996  23.554   3.136  1.00  0.00     0.049 C 
HETATM    8  C16         0      26.830  23.840   2.062  1.00  0.00     0.093 C 
HETATM    9  C18         0      28.092  23.263   2.129  1.00  0.00     0.048 C 
HETATM   10  C19         0      28.316  22.145   2.922  1.00  0.00     0.096 C 
HETATM   11  C21         0      27.289  21.618   3.656  1.00  0.00     0.084 C 
ENDROOT
BRANCH  10  12
HETATM   12  O20         0      29.414  21.333   2.659  1.00  0.00    -0.359 OA
HETATM   13  H20         0      30.100  21.679   2.101  1.00  0.00     0.218 HD
ENDBRANCH  10  12
BRANCH   4  14
HETATM   14  C5          0      23.932  20.187   5.587  1.00  0.00     0.025 C 
HETATM   15  C6          0      22.757  20.924   5.599  1.00  0.00     0.004 C 
HETATM   16  C7          0      21.593  20.290   5.176  1.00  0.00     0.026 C 
HETATM   17  C8          0      21.570  18.931   4.878  1.00  0.00     0.112 C 
HETATM   18  C10         0      22.573  18.188   5.486  1.00  0.00     0.112 C 
HETATM   19  C12         0      23.759  18.829   5.822  1.00  0.00     0.028 C 
BRANCH  17  20
HETATM   20  O9          0      20.738  18.436   3.890  1.00  0.00    -0.357 OA
HETATM   21  H9          0      20.729  18.759   2.996  1.00  0.00     0.218 HD
ENDBRANCH  17  20
BRANCH  18  22
HETATM   22  O11         0      22.485  16.807   5.377  1.00  0.00    -0.357 OA
HETATM   23  H11         0      22.803  16.297   6.113  1.00  0.00     0.218 HD
ENDBRANCH  18  22
ENDBRANCH   4  14
BRANCH   8  24
HETATM   24  O17         0      26.327  24.373   0.869  1.00  0.00    -0.359 OA
HETATM   25  H17         0      25.567  24.001   0.438  1.00  0.00     0.218 HD
ENDBRANCH   8  24
TORSDOF 5
ENDMDL
MODEL 7
REMARK VINA RESULT:      -5.2     10.485     11.602
REMARK  5 active torsions:
REMARK  status: ('A' for Active; 'I' for Inactive)
REMARK    1  A    between atoms: C4_4  and  C5_5 
REMARK    2  A    between atoms: C8_8  and  O9_9 
REMARK    3  A    between atoms: C10_11  and  O11_12 
REMARK    4  A    between atoms: C16_18  and  O17_19 
REMARK    5  A    between atoms: C19_22  and  O20_23 
ROOT
HETATM    1  O1          0      23.472  17.514   5.237  1.00  0.00    -0.286 OA
HETATM    2  C2          0      24.432  18.282   5.523  1.00  0.00     0.201 C 
HETATM    3  C3          0      24.481  19.605   5.118  1.00  0.00     0.067 C 
HETATM    4  C4          0      25.595  20.400   5.358  1.00  0.00     0.103 C 
HETATM    5  O13         0      26.620  19.877   6.008  1.00  0.00    -0.307 OA
HETATM    6  C14         0      26.640  18.616   6.382  1.00  0.00     0.107 C 
HETATM    7  C15         0      27.825  17.964   6.691  1.00  0.00     0.049 C 
HETATM    8  C16         0      27.873  16.583   6.836  1.00  0.00     0.093 C 
HETATM    9  C18         0      26.666  15.987   7.182  1.00  0.00     0.048 C 
HETATM   10  C19         0      25.463  16.632   6.930  1.00  0.00     0.096 C 
HETATM   11  C21         0      25.466  17.872   6.351  1.00  0.00     0.084 C 
ENDROOT
BRANCH  10  12
HETATM   12  O20         0      24.291  15.885   6.866  1.00  0.00    -0.359 OA
HETATM   13  H20         0      24.288  15.026   7.271  1.00  0.00     0.218 HD
ENDBRANCH  10  12
BRANCH   4  14
HETATM   14  C5          0      25.839  21.509   4.434  1.00  0.00     0.025 C 
HETATM   15  C6          0      25.920  22.830   4.849  1.00  0.00     0.004 C 
HETATM   16  C7          0      26.865  23.643   4.231  1.00  0.00     0.026 C 
HETATM   17  C8          0      27.611  23.199   3.145  1.00  0.00     0.112 C 
HETATM   18  C10         0      27.033  22.157   2.432  1.00  0.00     0.112 C 
HETATM   19  C12         0      26.157  21.307   3.097  1.00  0.00     0.028 C 
BRANCH  17  20
HETATM   20  O9          0      28.910  23.635   2.951  1.00  0.00    -0.357 OA
HETATM   21  H9          0      29.571  23.135   2.487  1.00  0.00     0.218 HD
ENDBRANCH  17  20
BRANCH  18  22
HETATM   22  O11         0      27.640  21.802   1.235  1.00  0.00    -0.357 OA
HETATM   23  H11         0      27.145  21.236   0.654  1.00  0.00     0.218 HD
ENDBRANCH  18  22
ENDBRANCH   4  14
BRANCH   8  24
HETATM   24  O17         0      28.948  15.835   6.344  1.00  0.00    -0.359 OA
HETATM   25  H17         0      29.705  16.250   5.947  1.00  0.00     0.218 HD
ENDBRANCH   8  24
TORSDOF 5
ENDMDL
MODEL 8
REMARK VINA RESULT:      -5.1     10.239     11.496
REMARK  5 active torsions:
REMARK  status: ('A' for Active; 'I' for Inactive)
REMARK    1  A    between atoms: C4_4  and  C5_5 
REMARK    2  A    between atoms: C8_8  and  O9_9 
REMARK    3  A    between atoms: C10_11  and  O11_12 
REMARK    4  A    between atoms: C16_18  and  O17_19 
REMARK    5  A    between atoms: C19_22  and  O20_23 
ROOT
HETATM    1  O1          0      25.617  16.371   7.371  1.00  0.00    -0.286 OA
HETATM    2  C2          0      26.339  17.196   6.747  1.00  0.00     0.201 C 
HETATM    3  C3          0      25.947  18.501   6.501  1.00  0.00     0.067 C 
HETATM    4  C4          0      26.717  19.359   5.723  1.00  0.00     0.103 C 
HETATM    5  O13         0      27.858  18.914   5.228  1.00  0.00    -0.307 OA
HETATM    6  C14         0      28.259  17.674   5.400  1.00  0.00     0.107 C 
HETATM    7  C15         0      29.215  17.094   4.579  1.00  0.00     0.049 C 
HETATM    8  C16         0      29.448  15.724   4.598  1.00  0.00     0.093 C 
HETATM    9  C18         0      29.101  15.086   5.783  1.00  0.00     0.048 C 
HETATM   10  C19         0      28.182  15.661   6.650  1.00  0.00     0.096 C 
HETATM   11  C21         0      27.626  16.873   6.345  1.00  0.00     0.084 C 
ENDROOT
BRANCH  10  12
HETATM   12  O20         0      27.524  14.856   7.575  1.00  0.00    -0.359 OA
HETATM   13  H20         0      26.691  14.477   7.323  1.00  0.00     0.218 HD
ENDBRANCH  10  12
BRANCH   4  14
HETATM   14  C5          0      26.017  20.437   5.023  1.00  0.00     0.025 C 
HETATM   15  C6          0      24.650  20.645   5.138  1.00  0.00     0.004 C 
HETATM   16  C7          0      24.200  21.961   5.180  1.00  0.00     0.026 C 
HETATM   17  C8          0      25.062  23.034   4.981  1.00  0.00     0.112 C 
HETATM   18  C10         0      26.213  22.727   4.268  1.00  0.00     0.112 C 
HETATM   19  C12         0      26.689  21.422   4.311  1.00  0.00     0.028 C 
BRANCH  17  20
HETATM   20  O9          0      24.861  24.236   5.634  1.00  0.00    -0.357 OA
HETATM   21  H9          0      24.196  24.868   5.385  1.00  0.00     0.218 HD
ENDBRANCH  17  20
BRANCH  18  22
HETATM   22  O11         0      27.013  23.792   3.878  1.00  0.00    -0.357 OA
HETATM   23  H11         0      27.255  24.417   4.551  1.00  0.00     0.218 HD
ENDBRANCH  18  22
ENDBRANCH   4  14
BRANCH   8  24
HETATM   24  O17         0      29.687  15.008   3.420  1.00  0.00    -0.359 OA
HETATM   25  H17         0      29.732  14.060   3.412  1.00  0.00     0.218 HD
ENDBRANCH   8  24
TORSDOF 5
ENDMDL
MODEL 9
REMARK VINA RESULT:      -4.9      3.035      6.401
REMARK  5 active torsions:
REMARK  status: ('A' for Active; 'I' for Inactive)
REMARK    1  A    between atoms: C4_4  and  C5_5 
REMARK    2  A    between atoms: C8_8  and  O9_9 
REMARK    3  A    between atoms: C10_11  and  O11_12 
REMARK    4  A    between atoms: C16_18  and  O17_19 
REMARK    5  A    between atoms: C19_22  and  O20_23 
ROOT
HETATM    1  O1          0      22.485  24.111  12.652  1.00  0.00    -0.286 OA
HETATM    2  C2          0      22.591  23.463  13.730  1.00  0.00     0.201 C 
HETATM    3  C3          0      22.498  22.083  13.789  1.00  0.00     0.067 C 
HETATM    4  C4          0      22.516  21.403  15.002  1.00  0.00     0.103 C 
HETATM    5  O13         0      22.645  22.098  16.118  1.00  0.00    -0.307 OA
HETATM    6  C14         0      22.700  23.412  16.121  1.00  0.00     0.107 C 
HETATM    7  C15         0      22.435  24.152  17.264  1.00  0.00     0.049 C 
HETATM    8  C16         0      22.244  25.528  17.205  1.00  0.00     0.093 C 
HETATM    9  C18         0      22.838  26.157  16.117  1.00  0.00     0.048 C 
HETATM   10  C19         0      23.159  25.436  14.975  1.00  0.00     0.096 C 
HETATM   11  C21         0      22.905  24.093  14.925  1.00  0.00     0.084 C 
ENDROOT
BRANCH  10  12
HETATM   12  O20         0      23.334  26.112  13.771  1.00  0.00    -0.359 OA
HETATM   13  H20         0      23.158  25.640  12.966  1.00  0.00     0.218 HD
ENDBRANCH  10  12
BRANCH   4  14
HETATM   14  C5          0      21.835  20.108  15.053  1.00  0.00     0.025 C 
HETATM   15  C6          0      20.453  19.986  15.096  1.00  0.00     0.004 C 
HETATM   16  C7          0      19.875  18.946  14.376  1.00  0.00     0.026 C 
HETATM   17  C8          0      20.649  17.979  13.743  1.00  0.00     0.112 C 
HETATM   18  C10         0      21.924  17.821  14.269  1.00  0.00     0.112 C 
HETATM   19  C12         0      22.512  18.904  14.910  1.00  0.00     0.028 C 
BRANCH  17  20
HETATM   20  O9          0      20.228  17.397  12.560  1.00  0.00    -0.357 OA
HETATM   21  H9          0      20.577  17.624  11.706  1.00  0.00     0.218 HD
ENDBRANCH  17  20
BRANCH  18  22
HETATM   22  O11         0      22.667  16.746  13.802  1.00  0.00    -0.357 OA
HETATM   23  H11         0      23.557  16.928  13.522  1.00  0.00     0.218 HD
ENDBRANCH  18  22
ENDBRANCH   4  14
BRANCH   8  24
HETATM   24  O17         0      21.263  26.161  17.976  1.00  0.00    -0.359 OA
HETATM   25  H17         0      21.415  26.394  18.884  1.00  0.00     0.218 HD
ENDBRANCH   8  24
TORSDOF 5
ENDMDL
