MODEL 1
REMARK VINA RESULT:      -6.2      0.000      0.000
REMARK  5 active torsions:
REMARK  status: ('A' for Active; 'I' for Inactive)
REMARK    1  A    between atoms: C4_4  and  C5_5 
REMARK    2  A    between atoms: C8_8  and  O9_9 
REMARK    3  A    between atoms: C10_11  and  O11_12 
REMARK    4  A    between atoms: C16_18  and  O17_19 
REMARK    5  A    between atoms: C19_22  and  O20_23 
ROOT
HETATM    1  O1          0       3.437  66.747  -1.250  1.00  0.00    -0.286 OA
HETATM    2  C2          0       4.519  67.209  -1.705  1.00  0.00     0.201 C 
HETATM    3  C3          0       5.017  66.866  -2.951  1.00  0.00     0.067 C 
HETATM    4  C4          0       6.261  67.308  -3.385  1.00  0.00     0.103 C 
HETATM    5  O13         0       6.970  68.092  -2.591  1.00  0.00    -0.307 OA
HETATM    6  C14         0       6.560  68.417  -1.384  1.00  0.00     0.107 C 
HETATM    7  C15         0       7.438  68.884  -0.416  1.00  0.00     0.049 C 
HETATM    8  C16         0       7.056  68.982   0.916  1.00  0.00     0.093 C 
HETATM    9  C18         0       5.689  69.112   1.127  1.00  0.00     0.048 C 
HETATM   10  C19         0       4.783  68.698   0.160  1.00  0.00     0.096 C 
HETATM   11  C21         0       5.241  68.173  -1.018  1.00  0.00     0.084 C 
ENDROOT
BRANCH  10  12
HETATM   12  O20         0       3.471  68.423   0.530  1.00  0.00    -0.359 OA
HETATM   13  H20         0       2.866  68.145  -0.148  1.00  0.00     0.218 HD
ENDBRANCH  10  12
BRANCH   4  14
HETATM   14  C5          0       6.964  66.476  -4.364  1.00  0.00     0.025 C 
HETATM   15  C6          0       6.783  66.610  -5.733  1.00  0.00     0.004 C 
HETATM   16  C7          0       7.902  66.465  -6.547  1.00  0.00     0.026 C 
HETATM   17  C8          0       9.132  66.067  -6.034  1.00  0.00     0.112 C 
HETATM   18  C10         0       9.061  65.366  -4.837  1.00  0.00     0.112 C 
HETATM   19  C12         0       7.974  65.594  -4.002  1.00  0.00     0.028 C 
BRANCH  17  20
HETATM   20  O9          0      10.313  66.533  -6.583  1.00  0.00    -0.357 OA
HETATM   21  H9          0      10.429  66.717  -7.508  1.00  0.00     0.218 HD
ENDBRANCH  17  20
BRANCH  18  22
HETATM   22  O11         0      10.235  64.785  -4.380  1.00  0.00    -0.357 OA
HETATM   23  H11         0      10.708  65.249  -3.699  1.00  0.00     0.218 HD
ENDBRANCH  18  22
ENDBRANCH   4  14
BRANCH   8  24
HETATM   24  O17         0       7.931  68.639   1.953  1.00  0.00    -0.359 OA
HETATM   25  H17         0       8.088  67.733   2.194  1.00  0.00     0.218 HD
ENDBRANCH   8  24
TORSDOF 5
ENDMDL
MODEL 2
REMARK VINA RESULT:      -6.1      1.623      6.974
REMARK  5 active torsions:
REMARK  status: ('A' for Active; 'I' for Inactive)
REMARK    1  A    between atoms: C4_4  and  C5_5 
REMARK    2  A    between atoms: C8_8  and  O9_9 
REMARK    3  A    between atoms: C10_11  and  O11_12 
REMARK    4  A    between atoms: C16_18  and  O17_19 
REMARK    5  A    between atoms: C19_22  and  O20_23 
ROOT
HETATM    1  O1          0      10.207  65.997  -3.955  1.00  0.00    -0.286 OA
HETATM    2  C2          0       9.037  66.468  -3.916  1.00  0.00     0.201 C 
HETATM    3  C3          0       8.512  67.079  -2.790  1.00  0.00     0.067 C 
HETATM    4  C4          0       7.187  67.497  -2.740  1.00  0.00     0.103 C 
HETATM    5  O13         0       6.424  67.320  -3.804  1.00  0.00    -0.307 OA
HETATM    6  C14         0       6.862  66.711  -4.884  1.00  0.00     0.107 C 
HETATM    7  C15         0       5.994  66.171  -5.822  1.00  0.00     0.049 C 
HETATM    8  C16         0       6.449  65.316  -6.818  1.00  0.00     0.093 C 
HETATM    9  C18         0       7.791  65.459  -7.147  1.00  0.00     0.048 C 
HETATM   10  C19         0       8.679  66.038  -6.250  1.00  0.00     0.096 C 
HETATM   11  C21         0       8.226  66.486  -5.040  1.00  0.00     0.084 C 
ENDROOT
BRANCH  10  12
HETATM   12  O20         0      10.042  65.788  -6.385  1.00  0.00    -0.359 OA
HETATM   13  H20         0      10.628  66.155  -5.734  1.00  0.00     0.218 HD
ENDBRANCH  10  12
BRANCH   4  14
HETATM   14  C5          0       6.554  67.558  -1.421  1.00  0.00     0.025 C 
HETATM   15  C6          0       7.192  68.076  -0.303  1.00  0.00     0.004 C 
HETATM   16  C7          0       6.427  68.823   0.587  1.00  0.00     0.026 C 
HETATM   17  C8          0       5.048  68.939   0.445  1.00  0.00     0.112 C 
HETATM   18  C10         0       4.451  67.914  -0.277  1.00  0.00     0.112 C 
HETATM   19  C12         0       5.216  67.240  -1.222  1.00  0.00     0.028 C 
BRANCH  17  20
HETATM   20  O9          0       4.392  70.098   0.820  1.00  0.00    -0.357 OA
HETATM   21  H9          0       4.672  70.969   0.564  1.00  0.00     0.218 HD
ENDBRANCH  17  20
BRANCH  18  22
HETATM   22  O11         0       3.064  67.879  -0.289  1.00  0.00    -0.357 OA
HETATM   23  H11         0       2.612  68.579   0.167  1.00  0.00     0.218 HD
ENDBRANCH  18  22
ENDBRANCH   4  14
BRANCH   8  24
HETATM   24  O17         0       5.712  64.191  -7.206  1.00  0.00    -0.359 OA
HETATM   25  H17         0       5.355  63.584  -6.568  1.00  0.00     0.218 HD
ENDBRANCH   8  24
TORSDOF 5
ENDMDL
MODEL 3
REMARK VINA RESULT:      -6.1     13.473     15.396
REMARK  5 active torsions:
REMARK  status: ('A' for Active; 'I' for Inactive)
REMARK    1  A    between atoms: C4_4  and  C5_5 
REMARK    2  A    between atoms: C8_8  and  O9_9 
REMARK    3  A    between atoms: C10_11  and  O11_12 
REMARK    4  A    between atoms: C16_18  and  O17_19 
REMARK    5  A    between atoms: C19_22  and  O20_23 
ROOT
HETATM    1  O1          0      19.815  76.892  -3.846  1.00  0.00    -0.286 OA
HETATM    2  C2          0      19.456  76.896  -2.636  1.00  0.00     0.201 C 
HETATM    3  C3          0      19.850  75.923  -1.733  1.00  0.00     0.067 C 
HETATM    4  C4          0      19.359  75.894  -0.433  1.00  0.00     0.103 C 
HETATM    5  O13         0      18.512  76.835  -0.053  1.00  0.00    -0.307 OA
HETATM    6  C14         0      18.078  77.760  -0.881  1.00  0.00     0.107 C 
HETATM    7  C15         0      16.922  78.484  -0.627  1.00  0.00     0.049 C 
HETATM    8  C16         0      16.331  79.269  -1.610  1.00  0.00     0.093 C 
HETATM    9  C18         0      17.192  79.704  -2.610  1.00  0.00     0.048 C 
HETATM   10  C19         0      18.380  79.031  -2.860  1.00  0.00     0.096 C 
HETATM   11  C21         0      18.714  77.940  -2.104  1.00  0.00     0.084 C 
ENDROOT
BRANCH  10  12
HETATM   12  O20         0      19.002  79.184  -4.095  1.00  0.00    -0.359 OA
HETATM   13  H20         0      18.918  80.021  -4.535  1.00  0.00     0.218 HD
ENDBRANCH  10  12
BRANCH   4  14
HETATM   14  C5          0      19.314  74.594   0.237  1.00  0.00     0.025 C 
HETATM   15  C6          0      18.413  74.301   1.251  1.00  0.00     0.004 C 
HETATM   16  C7          0      17.864  73.023   1.275  1.00  0.00     0.026 C 
HETATM   17  C8          0      18.295  72.027   0.406  1.00  0.00     0.112 C 
HETATM   18  C10         0      19.575  72.212  -0.099  1.00  0.00     0.112 C 
HETATM   19  C12         0      20.067  73.508  -0.192  1.00  0.00     0.028 C 
BRANCH  17  20
HETATM   20  O9          0      17.417  71.064  -0.060  1.00  0.00    -0.357 OA
HETATM   21  H9          0      16.588  70.858   0.357  1.00  0.00     0.218 HD
ENDBRANCH  17  20
BRANCH  18  22
HETATM   22  O11         0      20.125  71.160  -0.818  1.00  0.00    -0.357 OA
HETATM   23  H11         0      21.073  71.121  -0.865  1.00  0.00     0.218 HD
ENDBRANCH  18  22
ENDBRANCH   4  14
BRANCH   8  24
HETATM   24  O17         0      14.941  79.327  -1.759  1.00  0.00    -0.359 OA
HETATM   25  H17         0      14.430  78.556  -1.976  1.00  0.00     0.218 HD
ENDBRANCH   8  24
TORSDOF 5
ENDMDL
MODEL 4
REMARK VINA RESULT:      -6.0      4.437      6.825
REMARK  5 active torsions:
REMARK  status: ('A' for Active; 'I' for Inactive)
REMARK    1  A    between atoms: C4_4  and  C5_5 
REMARK    2  A    between atoms: C8_8  and  O9_9 
REMARK    3  A    between atoms: C10_11  and  O11_12 
REMARK    4  A    between atoms: C16_18  and  O17_19 
REMARK    5  A    between atoms: C19_22  and  O20_23 
ROOT
HETATM    1  O1          0      10.162  67.165   5.177  1.00  0.00    -0.286 OA
HETATM    2  C2          0       9.155  66.691   4.584  1.00  0.00     0.201 C 
HETATM    3  C3          0       9.002  66.737   3.209  1.00  0.00     0.067 C 
HETATM    4  C4          0       7.837  66.299   2.590  1.00  0.00     0.103 C 
HETATM    5  O13         0       6.865  65.810   3.340  1.00  0.00    -0.307 OA
HETATM    6  C14         0       6.944  65.778   4.652  1.00  0.00     0.107 C 
HETATM    7  C15         0       5.815  65.651   5.449  1.00  0.00     0.049 C 
HETATM    8  C16         0       5.871  65.872   6.820  1.00  0.00     0.093 C 
HETATM    9  C18         0       7.124  65.691   7.393  1.00  0.00     0.048 C 
HETATM   10  C19         0       8.272  65.765   6.616  1.00  0.00     0.096 C 
HETATM   11  C21         0       8.168  66.000   5.272  1.00  0.00     0.084 C 
ENDROOT
BRANCH  10  12
HETATM   12  O20         0       9.494  66.019   7.231  1.00  0.00    -0.359 OA
HETATM   13  H20         0       9.487  66.465   8.069  1.00  0.00     0.218 HD
ENDBRANCH  10  12
BRANCH   4  14
HETATM   14  C5          0       7.496  66.903   1.301  1.00  0.00     0.025 C 
HETATM   15  C6          0       6.747  68.065   1.189  1.00  0.00     0.004 C 
HETATM   16  C7          0       7.107  68.972   0.197  1.00  0.00     0.026 C 
HETATM   17  C8          0       8.092  68.675  -0.740  1.00  0.00     0.112 C 
HETATM   18  C10         0       8.312  67.318  -0.939  1.00  0.00     0.112 C 
HETATM   19  C12         0       8.023  66.443   0.101  1.00  0.00     0.028 C 
BRANCH  17  20
HETATM   20  O9          0       8.908  69.669  -1.250  1.00  0.00    -0.357 OA
HETATM   21  H9          0       9.851  69.686  -1.138  1.00  0.00     0.218 HD
ENDBRANCH  17  20
BRANCH  18  22
HETATM   22  O11         0       9.144  66.965  -1.992  1.00  0.00    -0.357 OA
HETATM   23  H11         0       9.522  66.093  -1.968  1.00  0.00     0.218 HD
ENDBRANCH  18  22
ENDBRANCH   4  14
BRANCH   8  24
HETATM   24  O17         0       4.844  66.543   7.493  1.00  0.00    -0.359 OA
HETATM   25  H17         0       3.965  66.187   7.545  1.00  0.00     0.218 HD
ENDBRANCH   8  24
TORSDOF 5
ENDMDL
MODEL 5
REMARK VINA RESULT:      -6.0      1.796      6.695
REMARK  5 active torsions:
REMARK  status: ('A' for Active; 'I' for Inactive)
REMARK    1  A    between atoms: C4_4  and  C5_5 
REMARK    2  A    between atoms: C8_8  and  O9_9 
REMARK    3  A    between atoms: C10_11  and  O11_12 
REMARK    4  A    between atoms: C16_18  and  O17_19 
REMARK    5  A    between atoms: C19_22  and  O20_23 
ROOT
HETATM    1  O1          0       9.684  65.842  -3.684  1.00  0.00    -0.286 OA
HETATM    2  C2          0       8.602  66.491  -3.656  1.00  0.00     0.201 C 
HETATM    3  C3          0       8.244  67.307  -2.596  1.00  0.00     0.067 C 
HETATM    4  C4          0       7.002  67.930  -2.543  1.00  0.00     0.103 C 
HETATM    5  O13         0       6.158  67.748  -3.542  1.00  0.00    -0.307 OA
HETATM    6  C14         0       6.433  66.954  -4.554  1.00  0.00     0.107 C 
HETATM    7  C15         0       5.437  66.448  -5.377  1.00  0.00     0.049 C 
HETATM    8  C16         0       5.697  65.420  -6.275  1.00  0.00     0.093 C 
HETATM    9  C18         0       7.023  65.311  -6.676  1.00  0.00     0.048 C 
HETATM   10  C19         0       8.041  65.847  -5.899  1.00  0.00     0.096 C 
HETATM   11  C21         0       7.735  66.502  -4.737  1.00  0.00     0.084 C 
ENDROOT
BRANCH  10  12
HETATM   12  O20         0       9.339  65.374  -6.059  1.00  0.00    -0.359 OA
HETATM   13  H20         0       9.927  65.867  -6.619  1.00  0.00     0.218 HD
ENDBRANCH  10  12
BRANCH   4  14
HETATM   14  C5          0       6.468  68.245  -1.217  1.00  0.00     0.025 C 
HETATM   15  C6          0       5.262  67.740  -0.752  1.00  0.00     0.004 C 
HETATM   16  C7          0       5.188  67.378   0.589  1.00  0.00     0.026 C 
HETATM   17  C8          0       6.232  67.633   1.472  1.00  0.00     0.112 C 
HETATM   18  C10         0       7.077  68.665   1.087  1.00  0.00     0.112 C 
HETATM   19  C12         0       7.197  68.950  -0.268  1.00  0.00     0.028 C 
BRANCH  17  20
HETATM   20  O9          0       6.499  66.773   2.522  1.00  0.00    -0.357 OA
HETATM   21  H9          0       6.650  65.841   2.416  1.00  0.00     0.218 HD
ENDBRANCH  17  20
BRANCH  18  22
HETATM   22  O11         0       8.018  69.086   2.016  1.00  0.00    -0.357 OA
HETATM   23  H11         0       7.845  68.880   2.927  1.00  0.00     0.218 HD
ENDBRANCH  18  22
ENDBRANCH   4  14
BRANCH   8  24
HETATM   24  O17         0       4.778  64.385  -6.485  1.00  0.00    -0.359 OA
HETATM   25  H17         0       4.584  64.058  -7.356  1.00  0.00     0.218 HD
ENDBRANCH   8  24
TORSDOF 5
ENDMDL
MODEL 6
REMARK VINA RESULT:      -5.8      1.976      2.534
REMARK  5 active torsions:
REMARK  status: ('A' for Active; 'I' for Inactive)
REMARK    1  A    between atoms: C4_4  and  C5_5 
REMARK    2  A    between atoms: C8_8  and  O9_9 
REMARK    3  A    between atoms: C10_11  and  O11_12 
REMARK    4  A    between atoms: C16_18  and  O17_19 
REMARK    5  A    between atoms: C19_22  and  O20_23 
ROOT
HETATM    1  O1          0       5.304  68.797  -0.405  1.00  0.00    -0.286 OA
HETATM    2  C2          0       6.365  68.202  -0.737  1.00  0.00     0.201 C 
HETATM    3  C3          0       6.723  67.987  -2.057  1.00  0.00     0.067 C 
HETATM    4  C4          0       7.846  67.239  -2.394  1.00  0.00     0.103 C 
HETATM    5  O13         0       8.593  66.743  -1.424  1.00  0.00    -0.307 OA
HETATM    6  C14         0       8.278  66.886  -0.156  1.00  0.00     0.107 C 
HETATM    7  C15         0       8.804  66.059   0.826  1.00  0.00     0.049 C 
HETATM    8  C16         0       8.282  66.045   2.114  1.00  0.00     0.093 C 
HETATM    9  C18         0       7.625  67.209   2.494  1.00  0.00     0.048 C 
HETATM   10  C19         0       7.127  68.083   1.537  1.00  0.00     0.096 C 
HETATM   11  C21         0       7.298  67.804   0.208  1.00  0.00     0.084 C 
ENDROOT
BRANCH  10  12
HETATM   12  O20         0       6.124  68.980   1.891  1.00  0.00    -0.359 OA
HETATM   13  H20         0       5.676  69.445   1.195  1.00  0.00     0.218 HD
ENDBRANCH  10  12
BRANCH   4  14
HETATM   14  C5          0       7.833  66.560  -3.691  1.00  0.00     0.025 C 
HETATM   15  C6          0       6.661  66.179  -4.329  1.00  0.00     0.004 C 
HETATM   16  C7          0       6.607  66.314  -5.713  1.00  0.00     0.026 C 
HETATM   17  C8          0       7.723  66.687  -6.453  1.00  0.00     0.112 C 
HETATM   18  C10         0       8.941  66.427  -5.838  1.00  0.00     0.112 C 
HETATM   19  C12         0       8.983  66.382  -4.450  1.00  0.00     0.028 C 
BRANCH  17  20
HETATM   20  O9          0       7.590  67.445  -7.603  1.00  0.00    -0.357 OA
HETATM   21  H9          0       6.816  67.955  -7.813  1.00  0.00     0.218 HD
ENDBRANCH  17  20
BRANCH  18  22
HETATM   22  O11         0      10.083  66.603  -6.606  1.00  0.00    -0.357 OA
HETATM   23  H11         0      10.270  65.938  -7.258  1.00  0.00     0.218 HD
ENDBRANCH  18  22
ENDBRANCH   4  14
BRANCH   8  24
HETATM   24  O17         0       8.134  64.850   2.828  1.00  0.00    -0.359 OA
HETATM   25  H17         0       8.760  64.584   3.490  1.00  0.00     0.218 HD
ENDBRANCH   8  24
TORSDOF 5
ENDMDL
MODEL 7
REMARK VINA RESULT:      -5.8      1.380      1.753
REMARK  5 active torsions:
REMARK  status: ('A' for Active; 'I' for Inactive)
REMARK    1  A    between atoms: C4_4  and  C5_5 
REMARK    2  A    between atoms: C8_8  and  O9_9 
REMARK    3  A    between atoms: C10_11  and  O11_12 
REMARK    4  A    between atoms: C16_18  and  O17_19 
REMARK    5  A    between atoms: C19_22  and  O20_23 
ROOT
HETATM    1  O1          0       4.223  65.730  -1.805  1.00  0.00    -0.286 OA
HETATM    2  C2          0       5.206  66.394  -2.235  1.00  0.00     0.201 C 
HETATM    3  C3          0       5.905  66.045  -3.378  1.00  0.00     0.067 C 
HETATM    4  C4          0       7.046  66.733  -3.772  1.00  0.00     0.103 C 
HETATM    5  O13         0       7.454  67.757  -3.043  1.00  0.00    -0.307 OA
HETATM    6  C14         0       6.849  68.106  -1.929  1.00  0.00     0.107 C 
HETATM    7  C15         0       7.477  68.889  -0.970  1.00  0.00     0.049 C 
HETATM    8  C16         0       6.939  69.042   0.302  1.00  0.00     0.093 C 
HETATM    9  C18         0       5.566  68.846   0.386  1.00  0.00     0.048 C 
HETATM   10  C19         0       4.898  68.107  -0.581  1.00  0.00     0.096 C 
HETATM   11  C21         0       5.595  67.582  -1.635  1.00  0.00     0.084 C 
ENDROOT
BRANCH  10  12
HETATM   12  O20         0       3.657  67.554  -0.279  1.00  0.00    -0.359 OA
HETATM   13  H20         0       3.617  66.899   0.407  1.00  0.00     0.218 HD
ENDBRANCH  10  12
BRANCH   4  14
HETATM   14  C5          0       8.031  65.997  -4.567  1.00  0.00     0.025 C 
HETATM   15  C6          0       9.273  66.520  -4.897  1.00  0.00     0.004 C 
HETATM   16  C7          0      10.360  65.652  -4.889  1.00  0.00     0.026 C 
HETATM   17  C8          0      10.201  64.284  -4.693  1.00  0.00     0.112 C 
HETATM   18  C10         0       8.938  63.797  -5.005  1.00  0.00     0.112 C 
HETATM   19  C12         0       7.856  64.666  -4.922  1.00  0.00     0.028 C 
BRANCH  17  20
HETATM   20  O9          0      11.169  63.544  -4.039  1.00  0.00    -0.357 OA
HETATM   21  H9          0      11.984  63.910  -3.714  1.00  0.00     0.218 HD
ENDBRANCH  17  20
BRANCH  18  22
HETATM   22  O11         0       8.779  62.419  -5.009  1.00  0.00    -0.357 OA
HETATM   23  H11         0       9.532  61.899  -4.753  1.00  0.00     0.218 HD
ENDBRANCH  18  22
ENDBRANCH   4  14
BRANCH   8  24
HETATM   24  O17         0       7.752  69.053   1.441  1.00  0.00    -0.359 OA
HETATM   25  H17         0       8.306  68.315   1.665  1.00  0.00     0.218 HD
ENDBRANCH   8  24
TORSDOF 5
ENDMDL
MODEL 8
REMARK VINA RESULT:      -5.8      1.284      1.858
REMARK  5 active torsions:
REMARK  status: ('A' for Active; 'I' for Inactive)
REMARK    1  A    between atoms: C4_4  and  C5_5 
REMARK    2  A    between atoms: C8_8  and  O9_9 
REMARK    3  A    between atoms: C10_11  and  O11_12 
REMARK    4  A    between atoms: C16_18  and  O17_19 
REMARK    5  A    between atoms: C19_22  and  O20_23 
ROOT
HETATM    1  O1          0       4.193  66.088  -1.649  1.00  0.00    -0.286 OA
HETATM    2  C2          0       5.250  66.670  -2.016  1.00  0.00     0.201 C 
HETATM    3  C3          0       5.964  66.291  -3.140  1.00  0.00     0.067 C 
HETATM    4  C4          0       7.180  66.882  -3.464  1.00  0.00     0.103 C 
HETATM    5  O13         0       7.647  67.842  -2.685  1.00  0.00    -0.307 OA
HETATM    6  C14         0       7.028  68.214  -1.587  1.00  0.00     0.107 C 
HETATM    7  C15         0       7.682  68.907  -0.578  1.00  0.00     0.049 C 
HETATM    8  C16         0       7.104  69.073   0.675  1.00  0.00     0.093 C 
HETATM    9  C18         0       5.717  69.002   0.696  1.00  0.00     0.048 C 
HETATM   10  C19         0       5.028  68.356  -0.321  1.00  0.00     0.096 C 
HETATM   11  C21         0       5.719  67.800  -1.362  1.00  0.00     0.084 C 
ENDROOT
BRANCH  10  12
HETATM   12  O20         0       3.730  67.913  -0.089  1.00  0.00    -0.359 OA
HETATM   13  H20         0       3.085  68.045  -0.773  1.00  0.00     0.218 HD
ENDBRANCH  10  12
BRANCH   4  14
HETATM   14  C5          0       8.128  66.081  -4.241  1.00  0.00     0.025 C 
HETATM   15  C6          0       8.646  64.878  -3.786  1.00  0.00     0.004 C 
HETATM   16  C7          0       8.819  63.858  -4.715  1.00  0.00     0.026 C 
HETATM   17  C8          0       8.612  64.066  -6.074  1.00  0.00     0.112 C 
HETATM   18  C10         0       8.724  65.389  -6.482  1.00  0.00     0.112 C 
HETATM   19  C12         0       8.462  66.390  -5.554  1.00  0.00     0.028 C 
BRANCH  17  20
HETATM   20  O9          0       8.127  63.052  -6.881  1.00  0.00    -0.357 OA
HETATM   21  H9          0       7.698  63.201  -7.716  1.00  0.00     0.218 HD
ENDBRANCH  17  20
BRANCH  18  22
HETATM   22  O11         0       8.714  65.628  -7.848  1.00  0.00    -0.357 OA
HETATM   23  H11         0       7.875  65.568  -8.290  1.00  0.00     0.218 HD
ENDBRANCH  18  22
ENDBRANCH   4  14
BRANCH   8  24
HETATM   24  O17         0       7.864  68.976   1.846  1.00  0.00    -0.359 OA
HETATM   25  H17         0       8.747  68.625   1.841  1.00  0.00     0.218 HD
ENDBRANCH   8  24
TORSDOF 5
ENDMDL
MODEL 9
REMARK VINA RESULT:      -5.7      1.801      6.710
REMARK  5 active torsions:
REMARK  status: ('A' for Active; 'I' for Inactive)
REMARK    1  A    between atoms: C4_4  and  C5_5 
REMARK    2  A    between atoms: C8_8  and  O9_9 
REMARK    3  A    between atoms: C10_11  and  O11_12 
REMARK    4  A    between atoms: C16_18  and  O17_19 
REMARK    5  A    between atoms: C19_22  and  O20_23 
ROOT
HETATM    1  O1          0       7.113  63.276  -2.832  1.00  0.00    -0.286 OA
HETATM    2  C2          0       7.666  64.404  -2.943  1.00  0.00     0.201 C 
HETATM    3  C3          0       7.543  65.398  -1.987  1.00  0.00     0.067 C 
HETATM    4  C4          0       8.078  66.666  -2.181  1.00  0.00     0.103 C 
HETATM    5  O13         0       8.735  66.913  -3.300  1.00  0.00    -0.307 OA
HETATM    6  C14         0       8.849  66.018  -4.256  1.00  0.00     0.107 C 
HETATM    7  C15         0       9.170  66.375  -5.558  1.00  0.00     0.049 C 
HETATM    8  C16         0       9.041  65.472  -6.607  1.00  0.00     0.093 C 
HETATM    9  C18         0       9.104  64.133  -6.240  1.00  0.00     0.048 C 
HETATM   10  C19         0       8.834  63.746  -4.934  1.00  0.00     0.096 C 
HETATM   11  C21         0       8.520  64.692  -3.997  1.00  0.00     0.084 C 
ENDROOT
BRANCH  10  12
HETATM   12  O20         0       8.474  62.427  -4.677  1.00  0.00    -0.359 OA
HETATM   13  H20         0       9.078  61.742  -4.936  1.00  0.00     0.218 HD
ENDBRANCH  10  12
BRANCH   4  14
HETATM   14  C5          0       7.432  67.780  -1.482  1.00  0.00     0.025 C 
HETATM   15  C6          0       6.098  68.111  -1.668  1.00  0.00     0.004 C 
HETATM   16  C7          0       5.375  68.523  -0.552  1.00  0.00     0.026 C 
HETATM   17  C8          0       5.988  68.728   0.679  1.00  0.00     0.112 C 
HETATM   18  C10         0       7.350  68.987   0.613  1.00  0.00     0.112 C 
HETATM   19  C12         0       8.065  68.491  -0.471  1.00  0.00     0.028 C 
BRANCH  17  20
HETATM   20  O9          0       5.311  68.475   1.859  1.00  0.00    -0.357 OA
HETATM   21  H9          0       4.390  68.244   1.900  1.00  0.00     0.218 HD
ENDBRANCH  17  20
BRANCH  18  22
HETATM   22  O11         0       7.973  69.384   1.788  1.00  0.00    -0.357 OA
HETATM   23  H11         0       7.452  69.352   2.582  1.00  0.00     0.218 HD
ENDBRANCH  18  22
ENDBRANCH   4  14
BRANCH   8  24
HETATM   24  O17         0       8.551  65.871  -7.855  1.00  0.00    -0.359 OA
HETATM   25  H17         0       8.657  65.330  -8.629  1.00  0.00     0.218 HD
ENDBRANCH   8  24
TORSDOF 5
ENDMDL
