MODEL 1
REMARK VINA RESULT:      -8.0      0.000      0.000
REMARK  5 active torsions:
REMARK  status: ('A' for Active; 'I' for Inactive)
REMARK    1  A    between atoms: C4_4  and  C5_5 
REMARK    2  A    between atoms: C8_8  and  O9_9 
REMARK    3  A    between atoms: C10_11  and  O11_12 
REMARK    4  A    between atoms: C16_18  and  O17_19 
REMARK    5  A    between atoms: C19_22  and  O20_23 
ROOT
HETATM    1  O1          0      55.564   9.646  14.695  1.00  0.00    -0.286 OA
HETATM    2  C2          0      56.496  10.466  14.468  1.00  0.00     0.201 C 
HETATM    3  C3          0      56.431  11.417  13.464  1.00  0.00     0.067 C 
HETATM    4  C4          0      57.512  12.239  13.169  1.00  0.00     0.103 C 
HETATM    5  O13         0      58.617  12.116  13.883  1.00  0.00    -0.307 OA
HETATM    6  C14         0      58.745  11.204  14.822  1.00  0.00     0.107 C 
HETATM    7  C15         0      59.989  10.803  15.287  1.00  0.00     0.049 C 
HETATM    8  C16         0      60.132   9.673  16.083  1.00  0.00     0.093 C 
HETATM    9  C18         0      58.996   9.312  16.799  1.00  0.00     0.048 C 
HETATM   10  C19         0      57.739   9.736  16.388  1.00  0.00     0.096 C 
HETATM   11  C21         0      57.619  10.529  15.279  1.00  0.00     0.084 C 
ENDROOT
BRANCH  10  12
HETATM   12  O20         0      56.613   9.042  16.819  1.00  0.00    -0.359 OA
HETATM   13  H20         0      56.728   8.146  17.113  1.00  0.00     0.218 HD
ENDBRANCH  10  12
BRANCH   4  14
HETATM   14  C5          0      57.611  12.750  11.800  1.00  0.00     0.025 C 
HETATM   15  C6          0      56.524  12.809  10.939  1.00  0.00     0.004 C 
HETATM   16  C7          0      56.425  13.914  10.100  1.00  0.00     0.026 C 
HETATM   17  C8          0      57.439  14.862  10.021  1.00  0.00     0.112 C 
HETATM   18  C10         0      58.692  14.405  10.406  1.00  0.00     0.112 C 
HETATM   19  C12         0      58.762  13.354  11.312  1.00  0.00     0.028 C 
BRANCH  17  20
HETATM   20  O9          0      57.147  16.193   9.781  1.00  0.00    -0.357 OA
HETATM   21  H9          0      57.074  16.849  10.465  1.00  0.00     0.218 HD
ENDBRANCH  17  20
BRANCH  18  22
HETATM   22  O11         0      59.769  15.248  10.168  1.00  0.00    -0.357 OA
HETATM   23  H11         0      60.357  15.006   9.462  1.00  0.00     0.218 HD
ENDBRANCH  18  22
ENDBRANCH   4  14
BRANCH   8  24
HETATM   24  O17         0      61.205   8.792  15.914  1.00  0.00    -0.359 OA
HETATM   25  H17         0      61.764   8.541  16.640  1.00  0.00     0.218 HD
ENDBRANCH   8  24
TORSDOF 5
ENDMDL
MODEL 2
REMARK VINA RESULT:      -7.4      1.861      6.778
REMARK  5 active torsions:
REMARK  status: ('A' for Active; 'I' for Inactive)
REMARK    1  A    between atoms: C4_4  and  C5_5 
REMARK    2  A    between atoms: C8_8  and  O9_9 
REMARK    3  A    between atoms: C10_11  and  O11_12 
REMARK    4  A    between atoms: C16_18  and  O17_19 
REMARK    5  A    between atoms: C19_22  and  O20_23 
ROOT
HETATM    1  O1          0      59.675  14.603  10.187  1.00  0.00    -0.286 OA
HETATM    2  C2          0      59.059  13.929  11.059  1.00  0.00     0.201 C 
HETATM    3  C3          0      59.667  13.458  12.210  1.00  0.00     0.067 C 
HETATM    4  C4          0      58.993  12.632  13.103  1.00  0.00     0.103 C 
HETATM    5  O13         0      57.737  12.311  12.848  1.00  0.00    -0.307 OA
HETATM    6  C14         0      57.125  12.701  11.751  1.00  0.00     0.107 C 
HETATM    7  C15         0      55.985  12.063  11.284  1.00  0.00     0.049 C 
HETATM    8  C16         0      55.494  12.306  10.007  1.00  0.00     0.093 C 
HETATM    9  C18         0      55.846  13.538   9.468  1.00  0.00     0.048 C 
HETATM   10  C19         0      56.954  14.225   9.943  1.00  0.00     0.096 C 
HETATM   11  C21         0      57.696  13.695  10.963  1.00  0.00     0.084 C 
ENDROOT
BRANCH  10  12
HETATM   12  O20         0      57.546  15.198   9.143  1.00  0.00    -0.359 OA
HETATM   13  H20         0      57.773  16.028   9.546  1.00  0.00     0.218 HD
ENDBRANCH  10  12
BRANCH   4  14
HETATM   14  C5          0      59.803  11.719  13.912  1.00  0.00     0.025 C 
HETATM   15  C6          0      59.638  11.582  15.283  1.00  0.00     0.004 C 
HETATM   16  C7          0      59.765  10.306  15.822  1.00  0.00     0.026 C 
HETATM   17  C8          0      60.174   9.224  15.050  1.00  0.00     0.112 C 
HETATM   18  C10         0      60.902   9.564  13.917  1.00  0.00     0.112 C 
HETATM   19  C12         0      60.693  10.815  13.348  1.00  0.00     0.028 C 
BRANCH  17  20
HETATM   20  O9          0      59.696   7.951  15.303  1.00  0.00    -0.357 OA
HETATM   21  H9          0      59.961   7.427  16.050  1.00  0.00     0.218 HD
ENDBRANCH  17  20
BRANCH  18  22
HETATM   22  O11         0      61.494   8.523  13.215  1.00  0.00    -0.357 OA
HETATM   23  H11         0      62.077   8.761  12.503  1.00  0.00     0.218 HD
ENDBRANCH  18  22
ENDBRANCH   4  14
BRANCH   8  24
HETATM   24  O17         0      54.984  11.273   9.212  1.00  0.00    -0.359 OA
HETATM   25  H17         0      54.858  10.396   9.555  1.00  0.00     0.218 HD
ENDBRANCH   8  24
TORSDOF 5
ENDMDL
MODEL 3
REMARK VINA RESULT:      -7.3      1.832      7.148
REMARK  5 active torsions:
REMARK  status: ('A' for Active; 'I' for Inactive)
REMARK    1  A    between atoms: C4_4  and  C5_5 
REMARK    2  A    between atoms: C8_8  and  O9_9 
REMARK    3  A    between atoms: C10_11  and  O11_12 
REMARK    4  A    between atoms: C16_18  and  O17_19 
REMARK    5  A    between atoms: C19_22  and  O20_23 
ROOT
HETATM    1  O1          0      60.390  12.517  12.577  1.00  0.00    -0.286 OA
HETATM    2  C2          0      59.296  12.171  13.100  1.00  0.00     0.201 C 
HETATM    3  C3          0      59.223  11.432  14.268  1.00  0.00     0.067 C 
HETATM    4  C4          0      58.008  10.976  14.768  1.00  0.00     0.103 C 
HETATM    5  O13         0      56.900  11.278  14.115  1.00  0.00    -0.307 OA
HETATM    6  C14         0      56.916  11.945  12.982  1.00  0.00     0.107 C 
HETATM    7  C15         0      55.842  11.920  12.104  1.00  0.00     0.049 C 
HETATM    8  C16         0      55.958  12.409  10.808  1.00  0.00     0.093 C 
HETATM    9  C18         0      56.955  13.359  10.626  1.00  0.00     0.048 C 
HETATM   10  C19         0      58.021  13.442  11.512  1.00  0.00     0.096 C 
HETATM   11  C21         0      58.080  12.593  12.583  1.00  0.00     0.084 C 
ENDROOT
BRANCH  10  12
HETATM   12  O20         0      59.198  14.063  11.105  1.00  0.00    -0.359 OA
HETATM   13  H20         0      59.812  14.335  11.776  1.00  0.00     0.218 HD
ENDBRANCH  10  12
BRANCH   4  14
HETATM   14  C5          0      58.034   9.764  15.589  1.00  0.00     0.025 C 
HETATM   15  C6          0      59.023   8.798  15.473  1.00  0.00     0.004 C 
HETATM   16  C7          0      59.475   8.194  16.642  1.00  0.00     0.026 C 
HETATM   17  C8          0      58.873   8.442  17.871  1.00  0.00     0.112 C 
HETATM   18  C10         0      57.560   8.888  17.794  1.00  0.00     0.112 C 
HETATM   19  C12         0      57.158   9.564  16.648  1.00  0.00     0.028 C 
BRANCH  17  20
HETATM   20  O9          0      59.616   8.441  19.038  1.00  0.00    -0.357 OA
HETATM   21  H9          0      60.534   8.684  19.079  1.00  0.00     0.218 HD
ENDBRANCH  17  20
BRANCH  18  22
HETATM   22  O11         0      56.853   8.970  18.985  1.00  0.00    -0.357 OA
HETATM   23  H11         0      56.981   8.265  19.610  1.00  0.00     0.218 HD
ENDBRANCH  18  22
ENDBRANCH   4  14
BRANCH   8  24
HETATM   24  O17         0      55.358  11.756   9.726  1.00  0.00    -0.359 OA
HETATM   25  H17         0      55.229  10.815   9.720  1.00  0.00     0.218 HD
ENDBRANCH   8  24
TORSDOF 5
ENDMDL
MODEL 4
REMARK VINA RESULT:      -7.1      2.135      3.397
REMARK  5 active torsions:
REMARK  status: ('A' for Active; 'I' for Inactive)
REMARK    1  A    between atoms: C4_4  and  C5_5 
REMARK    2  A    between atoms: C8_8  and  O9_9 
REMARK    3  A    between atoms: C10_11  and  O11_12 
REMARK    4  A    between atoms: C16_18  and  O17_19 
REMARK    5  A    between atoms: C19_22  and  O20_23 
ROOT
HETATM    1  O1          0      58.548  10.016  16.796  1.00  0.00    -0.286 OA
HETATM    2  C2          0      58.877  10.527  15.691  1.00  0.00     0.201 C 
HETATM    3  C3          0      58.093  11.461  15.034  1.00  0.00     0.067 C 
HETATM    4  C4          0      58.427  11.933  13.769  1.00  0.00     0.103 C 
HETATM    5  O13         0      59.532  11.487  13.197  1.00  0.00    -0.307 OA
HETATM    6  C14         0      60.291  10.573  13.761  1.00  0.00     0.107 C 
HETATM    7  C15         0      61.198   9.822  13.027  1.00  0.00     0.049 C 
HETATM    8  C16         0      61.807   8.696  13.567  1.00  0.00     0.093 C 
HETATM    9  C18         0      61.885   8.680  14.954  1.00  0.00     0.048 C 
HETATM   10  C19         0      61.024   9.455  15.719  1.00  0.00     0.096 C 
HETATM   11  C21         0      60.101  10.254  15.101  1.00  0.00     0.084 C 
ENDROOT
BRANCH  10  12
HETATM   12  O20         0      60.808   9.119  17.051  1.00  0.00    -0.359 OA
HETATM   13  H20         0      60.620   9.820  17.663  1.00  0.00     0.218 HD
ENDBRANCH  10  12
BRANCH   4  14
HETATM   14  C5          0      57.332  12.400  12.918  1.00  0.00     0.025 C 
HETATM   15  C6          0      57.537  13.178  11.788  1.00  0.00     0.004 C 
HETATM   16  C7          0      56.737  12.926  10.678  1.00  0.00     0.026 C 
HETATM   17  C8          0      55.679  12.025  10.731  1.00  0.00     0.112 C 
HETATM   18  C10         0      55.174  11.799  12.004  1.00  0.00     0.112 C 
HETATM   19  C12         0      56.021  11.976  13.092  1.00  0.00     0.028 C 
BRANCH  17  20
HETATM   20  O9          0      55.328  11.277   9.621  1.00  0.00    -0.357 OA
HETATM   21  H9          0      55.015  11.655   8.807  1.00  0.00     0.218 HD
ENDBRANCH  17  20
BRANCH  18  22
HETATM   22  O11         0      54.003  11.059  12.093  1.00  0.00    -0.357 OA
HETATM   23  H11         0      53.452  11.217  12.851  1.00  0.00     0.218 HD
ENDBRANCH  18  22
ENDBRANCH   4  14
BRANCH   8  24
HETATM   24  O17         0      62.009   7.540  12.805  1.00  0.00    -0.359 OA
HETATM   25  H17         0      61.549   7.395  11.986  1.00  0.00     0.218 HD
ENDBRANCH   8  24
TORSDOF 5
ENDMDL
MODEL 5
REMARK VINA RESULT:      -7.0      1.852      7.001
REMARK  5 active torsions:
REMARK  status: ('A' for Active; 'I' for Inactive)
REMARK    1  A    between atoms: C4_4  and  C5_5 
REMARK    2  A    between atoms: C8_8  and  O9_9 
REMARK    3  A    between atoms: C10_11  and  O11_12 
REMARK    4  A    between atoms: C16_18  and  O17_19 
REMARK    5  A    between atoms: C19_22  and  O20_23 
ROOT
HETATM    1  O1          0      60.474  12.461  12.619  1.00  0.00    -0.286 OA
HETATM    2  C2          0      59.354  12.137  13.100  1.00  0.00     0.201 C 
HETATM    3  C3          0      59.221  11.355  14.234  1.00  0.00     0.067 C 
HETATM    4  C4          0      57.977  10.928  14.684  1.00  0.00     0.103 C 
HETATM    5  O13         0      56.899  11.300  14.016  1.00  0.00    -0.307 OA
HETATM    6  C14         0      56.971  12.011  12.912  1.00  0.00     0.107 C 
HETATM    7  C15         0      55.921  12.064  12.007  1.00  0.00     0.049 C 
HETATM    8  C16         0      56.090  12.599  10.735  1.00  0.00     0.093 C 
HETATM    9  C18         0      57.128  13.515  10.618  1.00  0.00     0.048 C 
HETATM   10  C19         0      58.172  13.521  11.534  1.00  0.00     0.096 C 
HETATM   11  C21         0      58.170  12.628  12.570  1.00  0.00     0.084 C 
ENDROOT
BRANCH  10  12
HETATM   12  O20         0      59.382  14.110  11.182  1.00  0.00    -0.359 OA
HETATM   13  H20         0      59.669  14.867  11.678  1.00  0.00     0.218 HD
ENDBRANCH  10  12
BRANCH   4  14
HETATM   14  C5          0      57.934   9.685  15.455  1.00  0.00     0.025 C 
HETATM   15  C6          0      57.560   8.469  14.902  1.00  0.00     0.004 C 
HETATM   16  C7          0      58.247   7.333  15.317  1.00  0.00     0.026 C 
HETATM   17  C8          0      59.182   7.381  16.346  1.00  0.00     0.112 C 
HETATM   18  C10         0      59.022   8.444  17.225  1.00  0.00     0.112 C 
HETATM   19  C12         0      58.407   9.600  16.758  1.00  0.00     0.028 C 
BRANCH  17  20
HETATM   20  O9          0      60.288   6.551  16.338  1.00  0.00    -0.357 OA
HETATM   21  H9          0      60.465   5.900  17.008  1.00  0.00     0.218 HD
ENDBRANCH  17  20
BRANCH  18  22
HETATM   22  O11         0      59.805   8.436  18.370  1.00  0.00    -0.357 OA
HETATM   23  H11         0      59.996   7.587  18.754  1.00  0.00     0.218 HD
ENDBRANCH  18  22
ENDBRANCH   4  14
BRANCH   8  24
HETATM   24  O17         0      55.495  12.014   9.612  1.00  0.00    -0.359 OA
HETATM   25  H17         0      54.594  11.713   9.625  1.00  0.00     0.218 HD
ENDBRANCH   8  24
TORSDOF 5
ENDMDL
MODEL 6
REMARK VINA RESULT:      -6.8      2.962      4.946
REMARK  5 active torsions:
REMARK  status: ('A' for Active; 'I' for Inactive)
REMARK    1  A    between atoms: C4_4  and  C5_5 
REMARK    2  A    between atoms: C8_8  and  O9_9 
REMARK    3  A    between atoms: C10_11  and  O11_12 
REMARK    4  A    between atoms: C16_18  and  O17_19 
REMARK    5  A    between atoms: C19_22  and  O20_23 
ROOT
HETATM    1  O1          0      63.315   7.877  14.053  1.00  0.00    -0.286 OA
HETATM    2  C2          0      62.061   8.016  14.054  1.00  0.00     0.201 C 
HETATM    3  C3          0      61.432   9.153  13.574  1.00  0.00     0.067 C 
HETATM    4  C4          0      60.057   9.324  13.681  1.00  0.00     0.103 C 
HETATM    5  O13         0      59.339   8.364  14.237  1.00  0.00    -0.307 OA
HETATM    6  C14         0      59.890   7.282  14.742  1.00  0.00     0.107 C 
HETATM    7  C15         0      59.223   6.482  15.659  1.00  0.00     0.049 C 
HETATM    8  C16         0      59.891   5.497  16.377  1.00  0.00     0.093 C 
HETATM    9  C18         0      61.046   5.013  15.775  1.00  0.00     0.048 C 
HETATM   10  C19         0      61.712   5.768  14.818  1.00  0.00     0.096 C 
HETATM   11  C21         0      61.219   6.990  14.453  1.00  0.00     0.084 C 
ENDROOT
BRANCH  10  12
HETATM   12  O20         0      63.051   5.498  14.551  1.00  0.00    -0.359 OA
HETATM   13  H20         0      63.478   4.819  15.059  1.00  0.00     0.218 HD
ENDBRANCH  10  12
BRANCH   4  14
HETATM   14  C5          0      59.554  10.698  13.730  1.00  0.00     0.025 C 
HETATM   15  C6          0      60.256  11.774  13.206  1.00  0.00     0.004 C 
HETATM   16  C7          0      59.525  12.770  12.566  1.00  0.00     0.026 C 
HETATM   17  C8          0      58.134  12.766  12.562  1.00  0.00     0.112 C 
HETATM   18  C10         0      57.554  12.053  13.603  1.00  0.00     0.112 C 
HETATM   19  C12         0      58.273  11.007  14.169  1.00  0.00     0.028 C 
BRANCH  17  20
HETATM   20  O9          0      57.427  13.259  11.481  1.00  0.00    -0.357 OA
HETATM   21  H9          0      57.801  13.833  10.822  1.00  0.00     0.218 HD
ENDBRANCH  17  20
BRANCH  18  22
HETATM   22  O11         0      56.180  12.172  13.757  1.00  0.00    -0.357 OA
HETATM   23  H11         0      55.784  12.986  13.467  1.00  0.00     0.218 HD
ENDBRANCH  18  22
ENDBRANCH   4  14
BRANCH   8  24
HETATM   24  O17         0      59.613   5.265  17.728  1.00  0.00    -0.359 OA
HETATM   25  H17         0      60.087   5.712  18.419  1.00  0.00     0.218 HD
ENDBRANCH   8  24
TORSDOF 5
ENDMDL
MODEL 7
REMARK VINA RESULT:      -6.6      1.539      3.237
REMARK  5 active torsions:
REMARK  status: ('A' for Active; 'I' for Inactive)
REMARK    1  A    between atoms: C4_4  and  C5_5 
REMARK    2  A    between atoms: C8_8  and  O9_9 
REMARK    3  A    between atoms: C10_11  and  O11_12 
REMARK    4  A    between atoms: C16_18  and  O17_19 
REMARK    5  A    between atoms: C19_22  and  O20_23 
ROOT
HETATM    1  O1          0      61.299   9.068  15.201  1.00  0.00    -0.286 OA
HETATM    2  C2          0      60.133   9.437  14.891  1.00  0.00     0.201 C 
HETATM    3  C3          0      59.878  10.343  13.875  1.00  0.00     0.067 C 
HETATM    4  C4          0      58.594  10.811  13.622  1.00  0.00     0.103 C 
HETATM    5  O13         0      57.596  10.359  14.362  1.00  0.00    -0.307 OA
HETATM    6  C14         0      57.789   9.528  15.362  1.00  0.00     0.107 C 
HETATM    7  C15         0      56.848   9.366  16.369  1.00  0.00     0.049 C 
HETATM    8  C16         0      57.157   8.690  17.544  1.00  0.00     0.093 C 
HETATM    9  C18         0      58.195   7.773  17.437  1.00  0.00     0.048 C 
HETATM   10  C19         0      59.127   7.878  16.414  1.00  0.00     0.096 C 
HETATM   11  C21         0      59.014   8.883  15.493  1.00  0.00     0.084 C 
ENDROOT
BRANCH  10  12
HETATM   12  O20         0      60.366   7.260  16.556  1.00  0.00    -0.359 OA
HETATM   13  H20         0      60.912   7.174  15.783  1.00  0.00     0.218 HD
ENDBRANCH  10  12
BRANCH   4  14
HETATM   14  C5          0      58.472  12.134  13.007  1.00  0.00     0.025 C 
HETATM   15  C6          0      59.556  12.981  12.824  1.00  0.00     0.004 C 
HETATM   16  C7          0      59.600  13.727  11.651  1.00  0.00     0.026 C 
HETATM   17  C8          0      58.539  13.736  10.752  1.00  0.00     0.112 C 
HETATM   18  C10         0      57.310  13.397  11.302  1.00  0.00     0.112 C 
HETATM   19  C12         0      57.292  12.580  12.426  1.00  0.00     0.028 C 
BRANCH  17  20
HETATM   20  O9          0      58.762  13.865   9.393  1.00  0.00    -0.357 OA
HETATM   21  H9          0      59.332  14.523   9.011  1.00  0.00     0.218 HD
ENDBRANCH  17  20
BRANCH  18  22
HETATM   22  O11         0      56.192  13.572  10.499  1.00  0.00    -0.357 OA
HETATM   23  H11         0      56.045  14.444  10.150  1.00  0.00     0.218 HD
ENDBRANCH  18  22
ENDBRANCH   4  14
BRANCH   8  24
HETATM   24  O17         0      56.697   9.140  18.786  1.00  0.00    -0.359 OA
HETATM   25  H17         0      55.812   9.463  18.904  1.00  0.00     0.218 HD
ENDBRANCH   8  24
TORSDOF 5
ENDMDL
MODEL 8
REMARK VINA RESULT:      -6.5      2.440      7.389
REMARK  5 active torsions:
REMARK  status: ('A' for Active; 'I' for Inactive)
REMARK    1  A    between atoms: C4_4  and  C5_5 
REMARK    2  A    between atoms: C8_8  and  O9_9 
REMARK    3  A    between atoms: C10_11  and  O11_12 
REMARK    4  A    between atoms: C16_18  and  O17_19 
REMARK    5  A    between atoms: C19_22  and  O20_23 
ROOT
HETATM    1  O1          0      61.527   9.394  13.901  1.00  0.00    -0.286 OA
HETATM    2  C2          0      60.605   9.853  14.631  1.00  0.00     0.201 C 
HETATM    3  C3          0      60.233   9.266  15.828  1.00  0.00     0.067 C 
HETATM    4  C4          0      59.147   9.732  16.561  1.00  0.00     0.103 C 
HETATM    5  O13         0      58.474  10.774  16.106  1.00  0.00    -0.307 OA
HETATM    6  C14         0      58.762  11.345  14.957  1.00  0.00     0.107 C 
HETATM    7  C15         0      57.849  12.149  14.291  1.00  0.00     0.049 C 
HETATM    8  C16         0      58.057  12.539  12.973  1.00  0.00     0.093 C 
HETATM    9  C18         0      59.386  12.548  12.567  1.00  0.00     0.048 C 
HETATM   10  C19         0      60.335  11.792  13.240  1.00  0.00     0.096 C 
HETATM   11  C21         0      59.963  11.043  14.323  1.00  0.00     0.084 C 
ENDROOT
BRANCH  10  12
HETATM   12  O20         0      61.524  11.461  12.596  1.00  0.00    -0.359 OA
HETATM   13  H20         0      62.213  12.114  12.571  1.00  0.00     0.218 HD
ENDBRANCH  10  12
BRANCH   4  14
HETATM   14  C5          0      58.458   8.769  17.423  1.00  0.00     0.025 C 
HETATM   15  C6          0      58.838   8.529  18.735  1.00  0.00     0.004 C 
HETATM   16  C7          0      57.830   8.317  19.670  1.00  0.00     0.026 C 
HETATM   17  C8          0      56.495   8.214  19.292  1.00  0.00     0.112 C 
HETATM   18  C10         0      56.294   7.837  17.971  1.00  0.00     0.112 C 
HETATM   19  C12         0      57.282   8.137  17.041  1.00  0.00     0.028 C 
BRANCH  17  20
HETATM   20  O9          0      55.486   8.664  20.125  1.00  0.00    -0.357 OA
HETATM   21  H9          0      55.096   9.528  20.062  1.00  0.00     0.218 HD
ENDBRANCH  17  20
BRANCH  18  22
HETATM   22  O11         0      54.993   7.536  17.594  1.00  0.00    -0.357 OA
HETATM   23  H11         0      54.568   8.139  16.995  1.00  0.00     0.218 HD
ENDBRANCH  18  22
ENDBRANCH   4  14
BRANCH   8  24
HETATM   24  O17         0      57.005  12.583  12.051  1.00  0.00    -0.359 OA
HETATM   25  H17         0      57.149  12.444  11.123  1.00  0.00     0.218 HD
ENDBRANCH   8  24
TORSDOF 5
ENDMDL
MODEL 9
REMARK VINA RESULT:      -6.5      3.030      4.687
REMARK  5 active torsions:
REMARK  status: ('A' for Active; 'I' for Inactive)
REMARK    1  A    between atoms: C4_4  and  C5_5 
REMARK    2  A    between atoms: C8_8  and  O9_9 
REMARK    3  A    between atoms: C10_11  and  O11_12 
REMARK    4  A    between atoms: C16_18  and  O17_19 
REMARK    5  A    between atoms: C19_22  and  O20_23 
ROOT
HETATM    1  O1          0      58.607   6.325  14.758  1.00  0.00    -0.286 OA
HETATM    2  C2          0      59.425   7.282  14.851  1.00  0.00     0.201 C 
HETATM    3  C3          0      59.025   8.595  15.036  1.00  0.00     0.067 C 
HETATM    4  C4          0      59.940   9.641  15.032  1.00  0.00     0.103 C 
HETATM    5  O13         0      61.222   9.364  14.869  1.00  0.00    -0.307 OA
HETATM    6  C14         0      61.650   8.140  14.653  1.00  0.00     0.107 C 
HETATM    7  C15         0      62.895   7.889  14.093  1.00  0.00     0.049 C 
HETATM    8  C16         0      63.238   6.623  13.634  1.00  0.00     0.093 C 
HETATM    9  C18         0      62.540   5.576  14.225  1.00  0.00     0.048 C 
HETATM   10  C19         0      61.314   5.800  14.834  1.00  0.00     0.096 C 
HETATM   11  C21         0      60.794   7.065  14.869  1.00  0.00     0.084 C 
ENDROOT
BRANCH  10  12
HETATM   12  O20         0      60.442   4.732  15.023  1.00  0.00    -0.359 OA
HETATM   13  H20         0      59.651   4.886  15.525  1.00  0.00     0.218 HD
ENDBRANCH  10  12
BRANCH   4  14
HETATM   14  C5          0      59.448  10.960  14.630  1.00  0.00     0.025 C 
HETATM   15  C6          0      60.045  11.713  13.630  1.00  0.00     0.004 C 
HETATM   16  C7          0      59.211  12.435  12.781  1.00  0.00     0.026 C 
HETATM   17  C8          0      57.840  12.515  13.000  1.00  0.00     0.112 C 
HETATM   18  C10         0      57.449  12.286  14.312  1.00  0.00     0.112 C 
HETATM   19  C12         0      58.258  11.490  15.114  1.00  0.00     0.028 C 
BRANCH  17  20
HETATM   20  O9          0      56.957  12.604  11.939  1.00  0.00    -0.357 OA
HETATM   21  H9          0      56.907  11.963  11.239  1.00  0.00     0.218 HD
ENDBRANCH  17  20
BRANCH  18  22
HETATM   22  O11         0      56.120  12.538  14.625  1.00  0.00    -0.357 OA
HETATM   23  H11         0      55.844  13.447  14.627  1.00  0.00     0.218 HD
ENDBRANCH  18  22
ENDBRANCH   4  14
BRANCH   8  24
HETATM   24  O17         0      63.965   6.448  12.452  1.00  0.00    -0.359 OA
HETATM   25  H17         0      63.534   6.299  11.618  1.00  0.00     0.218 HD
ENDBRANCH   8  24
TORSDOF 5
ENDMDL
