MODEL 1
REMARK VINA RESULT:      -8.0      0.000      0.000
REMARK  5 active torsions:
REMARK  status: ('A' for Active; 'I' for Inactive)
REMARK    1  A    between atoms: C4_4  and  C5_5 
REMARK    2  A    between atoms: C8_8  and  O9_9 
REMARK    3  A    between atoms: C10_11  and  O11_12 
REMARK    4  A    between atoms: C16_18  and  O17_19 
REMARK    5  A    between atoms: C19_22  and  O20_23 
ROOT
HETATM    1  O1          0      44.751  36.436  14.855  1.00  0.00    -0.286 OA
HETATM    2  C2          0      44.288  37.496  14.351  1.00  0.00     0.201 C 
HETATM    3  C3          0      44.869  38.737  14.548  1.00  0.00     0.067 C 
HETATM    4  C4          0      44.281  39.902  14.067  1.00  0.00     0.103 C 
HETATM    5  O13         0      43.150  39.809  13.390  1.00  0.00    -0.307 OA
HETATM    6  C14         0      42.537  38.660  13.208  1.00  0.00     0.107 C 
HETATM    7  C15         0      41.194  38.595  12.867  1.00  0.00     0.049 C 
HETATM    8  C16         0      40.492  37.397  12.925  1.00  0.00     0.093 C 
HETATM    9  C18         0      41.273  36.253  12.810  1.00  0.00     0.048 C 
HETATM   10  C19         0      42.630  36.294  13.098  1.00  0.00     0.096 C 
HETATM   11  C21         0      43.208  37.473  13.482  1.00  0.00     0.084 C 
ENDROOT
BRANCH  10  12
HETATM   12  O20         0      43.296  35.111  13.404  1.00  0.00    -0.359 OA
HETATM   13  H20         0      43.155  34.730  14.262  1.00  0.00     0.218 HD
ENDBRANCH  10  12
BRANCH   4  14
HETATM   14  C5          0      44.574  41.145  14.783  1.00  0.00     0.025 C 
HETATM   15  C6          0      43.651  41.775  15.604  1.00  0.00     0.004 C 
HETATM   16  C7          0      44.124  42.360  16.775  1.00  0.00     0.026 C 
HETATM   17  C8          0      45.484  42.435  17.055  1.00  0.00     0.112 C 
HETATM   18  C10         0      46.310  42.370  15.941  1.00  0.00     0.112 C 
HETATM   19  C12         0      45.845  41.705  14.813  1.00  0.00     0.028 C 
BRANCH  17  20
HETATM   20  O9          0      45.944  42.365  18.358  1.00  0.00    -0.357 OA
HETATM   21  H9          0      46.771  42.734  18.647  1.00  0.00     0.218 HD
ENDBRANCH  17  20
BRANCH  18  22
HETATM   22  O11         0      47.658  42.628  16.143  1.00  0.00    -0.357 OA
HETATM   23  H11         0      48.103  43.136  15.474  1.00  0.00     0.218 HD
ENDBRANCH  18  22
ENDBRANCH   4  14
BRANCH   8  24
HETATM   24  O17         0      39.176  37.345  13.397  1.00  0.00    -0.359 OA
HETATM   25  H17         0      38.522  37.977  13.124  1.00  0.00     0.218 HD
ENDBRANCH   8  24
TORSDOF 5
ENDMDL
MODEL 2
REMARK VINA RESULT:      -7.9      1.888      3.418
REMARK  5 active torsions:
REMARK  status: ('A' for Active; 'I' for Inactive)
REMARK    1  A    between atoms: C4_4  and  C5_5 
REMARK    2  A    between atoms: C8_8  and  O9_9 
REMARK    3  A    between atoms: C10_11  and  O11_12 
REMARK    4  A    between atoms: C16_18  and  O17_19 
REMARK    5  A    between atoms: C19_22  and  O20_23 
ROOT
HETATM    1  O1          0      42.981  40.534  12.890  1.00  0.00    -0.286 OA
HETATM    2  C2          0      43.493  40.265  14.011  1.00  0.00     0.201 C 
HETATM    3  C3          0      43.847  41.240  14.928  1.00  0.00     0.067 C 
HETATM    4  C4          0      44.504  40.923  16.112  1.00  0.00     0.103 C 
HETATM    5  O13         0      44.773  39.655  16.368  1.00  0.00    -0.307 OA
HETATM    6  C14         0      44.493  38.694  15.515  1.00  0.00     0.107 C 
HETATM    7  C15         0      45.111  37.454  15.581  1.00  0.00     0.049 C 
HETATM    8  C16         0      45.006  36.539  14.541  1.00  0.00     0.093 C 
HETATM    9  C18         0      43.882  36.689  13.738  1.00  0.00     0.048 C 
HETATM   10  C19         0      43.211  37.903  13.684  1.00  0.00     0.096 C 
HETATM   11  C21         0      43.650  38.956  14.441  1.00  0.00     0.084 C 
ENDROOT
BRANCH  10  12
HETATM   12  O20         0      42.392  38.180  12.594  1.00  0.00    -0.359 OA
HETATM   13  H20         0      41.862  37.474  12.245  1.00  0.00     0.218 HD
ENDBRANCH  10  12
BRANCH   4  14
HETATM   14  C5          0      45.352  41.958  16.705  1.00  0.00     0.025 C 
HETATM   15  C6          0      45.914  41.837  17.968  1.00  0.00     0.004 C 
HETATM   16  C7          0      47.206  42.321  18.148  1.00  0.00     0.026 C 
HETATM   17  C8          0      47.869  43.021  17.146  1.00  0.00     0.112 C 
HETATM   18  C10         0      47.036  43.624  16.212  1.00  0.00     0.112 C 
HETATM   19  C12         0      45.781  43.069  15.990  1.00  0.00     0.028 C 
BRANCH  17  20
HETATM   20  O9          0      49.241  42.924  17.002  1.00  0.00    -0.357 OA
HETATM   21  H9          0      49.714  43.226  16.235  1.00  0.00     0.218 HD
ENDBRANCH  17  20
BRANCH  18  22
HETATM   22  O11         0      47.632  44.488  15.304  1.00  0.00    -0.357 OA
HETATM   23  H11         0      48.295  44.119  14.731  1.00  0.00     0.218 HD
ENDBRANCH  18  22
ENDBRANCH   4  14
BRANCH   8  24
HETATM   24  O17         0      46.100  35.764  14.138  1.00  0.00    -0.359 OA
HETATM   25  H17         0      46.186  35.448  13.247  1.00  0.00     0.218 HD
ENDBRANCH   8  24
TORSDOF 5
ENDMDL
MODEL 3
REMARK VINA RESULT:      -7.7      6.264      8.333
REMARK  5 active torsions:
REMARK  status: ('A' for Active; 'I' for Inactive)
REMARK    1  A    between atoms: C4_4  and  C5_5 
REMARK    2  A    between atoms: C8_8  and  O9_9 
REMARK    3  A    between atoms: C10_11  and  O11_12 
REMARK    4  A    between atoms: C16_18  and  O17_19 
REMARK    5  A    between atoms: C19_22  and  O20_23 
ROOT
HETATM    1  O1          0      46.758  43.666  15.224  1.00  0.00    -0.286 OA
HETATM    2  C2          0      46.311  43.674  16.404  1.00  0.00     0.201 C 
HETATM    3  C3          0      45.026  44.084  16.717  1.00  0.00     0.067 C 
HETATM    4  C4          0      44.593  44.181  18.034  1.00  0.00     0.103 C 
HETATM    5  O13         0      45.428  43.851  19.003  1.00  0.00    -0.307 OA
HETATM    6  C14         0      46.670  43.491  18.763  1.00  0.00     0.107 C 
HETATM    7  C15         0      47.647  43.533  19.747  1.00  0.00     0.049 C 
HETATM    8  C16         0      48.994  43.400  19.433  1.00  0.00     0.093 C 
HETATM    9  C18         0      49.257  42.717  18.252  1.00  0.00     0.048 C 
HETATM   10  C19         0      48.286  42.615  17.265  1.00  0.00     0.096 C 
HETATM   11  C21         0      47.054  43.178  17.464  1.00  0.00     0.084 C 
ENDROOT
BRANCH  10  12
HETATM   12  O20         0      48.671  42.333  15.958  1.00  0.00    -0.359 OA
HETATM   13  H20         0      48.377  41.516  15.574  1.00  0.00     0.218 HD
ENDBRANCH  10  12
BRANCH   4  14
HETATM   14  C5          0      43.527  45.143  18.320  1.00  0.00     0.025 C 
HETATM   15  C6          0      43.269  45.623  19.596  1.00  0.00     0.004 C 
HETATM   16  C7          0      42.913  46.962  19.722  1.00  0.00     0.026 C 
HETATM   17  C8          0      42.689  47.765  18.608  1.00  0.00     0.112 C 
HETATM   18  C10         0      42.352  47.073  17.453  1.00  0.00     0.112 C 
HETATM   19  C12         0      42.794  45.762  17.315  1.00  0.00     0.028 C 
BRANCH  17  20
HETATM   20  O9          0      42.995  49.114  18.634  1.00  0.00    -0.357 OA
HETATM   21  H9          0      43.537  49.519  19.302  1.00  0.00     0.218 HD
ENDBRANCH  17  20
BRANCH  18  22
HETATM   22  O11         0      41.936  47.829  16.366  1.00  0.00    -0.357 OA
HETATM   23  H11         0      41.552  47.358  15.636  1.00  0.00     0.218 HD
ENDBRANCH  18  22
ENDBRANCH   4  14
BRANCH   8  24
HETATM   24  O17         0      49.971  44.177  20.067  1.00  0.00    -0.359 OA
HETATM   25  H17         0      50.139  44.104  20.999  1.00  0.00     0.218 HD
ENDBRANCH   8  24
TORSDOF 5
ENDMDL
MODEL 4
REMARK VINA RESULT:      -7.6      1.884      6.674
REMARK  5 active torsions:
REMARK  status: ('A' for Active; 'I' for Inactive)
REMARK    1  A    between atoms: C4_4  and  C5_5 
REMARK    2  A    between atoms: C8_8  and  O9_9 
REMARK    3  A    between atoms: C10_11  and  O11_12 
REMARK    4  A    between atoms: C16_18  and  O17_19 
REMARK    5  A    between atoms: C19_22  and  O20_23 
ROOT
HETATM    1  O1          0      46.525  43.472  15.118  1.00  0.00    -0.286 OA
HETATM    2  C2          0      45.992  42.373  15.434  1.00  0.00     0.201 C 
HETATM    3  C3          0      45.648  41.410  14.501  1.00  0.00     0.067 C 
HETATM    4  C4          0      44.969  40.253  14.866  1.00  0.00     0.103 C 
HETATM    5  O13         0      44.667  40.068  16.139  1.00  0.00    -0.307 OA
HETATM    6  C14         0      44.937  40.968  17.059  1.00  0.00     0.107 C 
HETATM    7  C15         0      44.290  40.976  18.286  1.00  0.00     0.049 C 
HETATM    8  C16         0      44.389  42.062  19.147  1.00  0.00     0.093 C 
HETATM    9  C18         0      45.527  42.842  18.980  1.00  0.00     0.048 C 
HETATM   10  C19         0      46.226  42.823  17.781  1.00  0.00     0.096 C 
HETATM   11  C21         0      45.800  42.017  16.760  1.00  0.00     0.084 C 
ENDROOT
BRANCH  10  12
HETATM   12  O20         0      47.065  43.886  17.466  1.00  0.00    -0.359 OA
HETATM   13  H20         0      47.240  44.531  18.141  1.00  0.00     0.218 HD
ENDBRANCH  10  12
BRANCH   4  14
HETATM   14  C5          0      44.135  39.616  13.844  1.00  0.00     0.025 C 
HETATM   15  C6          0      43.937  38.244  13.784  1.00  0.00     0.004 C 
HETATM   16  C7          0      42.670  37.791  13.433  1.00  0.00     0.026 C 
HETATM   17  C8          0      41.669  38.666  13.024  1.00  0.00     0.112 C 
HETATM   18  C10         0      42.128  39.876  12.519  1.00  0.00     0.112 C 
HETATM   19  C12         0      43.361  40.347  12.953  1.00  0.00     0.028 C 
BRANCH  17  20
HETATM   20  O9          0      40.341  38.407  13.310  1.00  0.00    -0.357 OA
HETATM   21  H9          0      39.633  39.014  13.126  1.00  0.00     0.218 HD
ENDBRANCH  17  20
BRANCH  18  22
HETATM   22  O11         0      41.188  40.706  11.925  1.00  0.00    -0.357 OA
HETATM   23  H11         0      40.275  40.536  12.128  1.00  0.00     0.218 HD
ENDBRANCH  18  22
ENDBRANCH   4  14
BRANCH   8  24
HETATM   24  O17         0      43.284  42.519  19.874  1.00  0.00    -0.359 OA
HETATM   25  H17         0      43.357  42.775  20.786  1.00  0.00     0.218 HD
ENDBRANCH   8  24
TORSDOF 5
ENDMDL
MODEL 5
REMARK VINA RESULT:      -7.6      2.711      4.186
REMARK  5 active torsions:
REMARK  status: ('A' for Active; 'I' for Inactive)
REMARK    1  A    between atoms: C4_4  and  C5_5 
REMARK    2  A    between atoms: C8_8  and  O9_9 
REMARK    3  A    between atoms: C10_11  and  O11_12 
REMARK    4  A    between atoms: C16_18  and  O17_19 
REMARK    5  A    between atoms: C19_22  and  O20_23 
ROOT
HETATM    1  O1          0      45.208  33.485  16.020  1.00  0.00    -0.286 OA
HETATM    2  C2          0      44.644  34.177  15.128  1.00  0.00     0.201 C 
HETATM    3  C3          0      44.872  35.534  14.975  1.00  0.00     0.067 C 
HETATM    4  C4          0      44.161  36.292  14.052  1.00  0.00     0.103 C 
HETATM    5  O13         0      43.262  35.690  13.294  1.00  0.00    -0.307 OA
HETATM    6  C14         0      42.980  34.413  13.424  1.00  0.00     0.107 C 
HETATM    7  C15         0      41.798  33.872  12.939  1.00  0.00     0.049 C 
HETATM    8  C16         0      41.389  32.593  13.298  1.00  0.00     0.093 C 
HETATM    9  C18         0      42.413  31.737  13.687  1.00  0.00     0.048 C 
HETATM   10  C19         0      43.625  32.244  14.133  1.00  0.00     0.096 C 
HETATM   11  C21         0      43.821  33.598  14.175  1.00  0.00     0.084 C 
ENDROOT
BRANCH  10  12
HETATM   12  O20         0      44.454  31.441  14.910  1.00  0.00    -0.359 OA
HETATM   13  H20         0      44.824  30.664  14.510  1.00  0.00     0.218 HD
ENDBRANCH  10  12
BRANCH   4  14
HETATM   14  C5          0      43.998  37.718  14.341  1.00  0.00     0.025 C 
HETATM   15  C6          0      44.490  38.313  15.494  1.00  0.00     0.004 C 
HETATM   16  C7          0      45.027  39.592  15.381  1.00  0.00     0.026 C 
HETATM   17  C8          0      44.955  40.310  14.192  1.00  0.00     0.112 C 
HETATM   18  C10         0      43.931  39.920  13.339  1.00  0.00     0.112 C 
HETATM   19  C12         0      43.472  38.610  13.415  1.00  0.00     0.028 C 
BRANCH  17  20
HETATM   20  O9          0      45.964  41.186  13.831  1.00  0.00    -0.357 OA
HETATM   21  H9          0      45.999  42.094  14.107  1.00  0.00     0.218 HD
ENDBRANCH  17  20
BRANCH  18  22
HETATM   22  O11         0      43.696  40.721  12.231  1.00  0.00    -0.357 OA
HETATM   23  H11         0      43.438  40.281  11.429  1.00  0.00     0.218 HD
ENDBRANCH  18  22
ENDBRANCH   4  14
BRANCH   8  24
HETATM   24  O17         0      40.047  32.305  13.569  1.00  0.00    -0.359 OA
HETATM   25  H17         0      39.762  31.431  13.806  1.00  0.00     0.218 HD
ENDBRANCH   8  24
TORSDOF 5
ENDMDL
MODEL 6
REMARK VINA RESULT:      -7.4      7.581     10.306
REMARK  5 active torsions:
REMARK  status: ('A' for Active; 'I' for Inactive)
REMARK    1  A    between atoms: C4_4  and  C5_5 
REMARK    2  A    between atoms: C8_8  and  O9_9 
REMARK    3  A    between atoms: C10_11  and  O11_12 
REMARK    4  A    between atoms: C16_18  and  O17_19 
REMARK    5  A    between atoms: C19_22  and  O20_23 
ROOT
HETATM    1  O1          0      44.332  36.076  24.310  1.00  0.00    -0.286 OA
HETATM    2  C2          0      44.539  37.298  24.074  1.00  0.00     0.201 C 
HETATM    3  C3          0      44.473  37.838  22.801  1.00  0.00     0.067 C 
HETATM    4  C4          0      44.806  39.165  22.554  1.00  0.00     0.103 C 
HETATM    5  O13         0      45.175  39.926  23.569  1.00  0.00    -0.307 OA
HETATM    6  C14         0      45.291  39.454  24.791  1.00  0.00     0.107 C 
HETATM    7  C15         0      46.040  40.107  25.759  1.00  0.00     0.049 C 
HETATM    8  C16         0      46.369  39.486  26.958  1.00  0.00     0.093 C 
HETATM    9  C18         0      45.508  38.466  27.346  1.00  0.00     0.048 C 
HETATM   10  C19         0      44.710  37.822  26.410  1.00  0.00     0.096 C 
HETATM   11  C21         0      44.758  38.206  25.098  1.00  0.00     0.084 C 
ENDROOT
BRANCH  10  12
HETATM   12  O20         0      44.201  36.561  26.703  1.00  0.00    -0.359 OA
HETATM   13  H20         0      44.744  35.806  26.510  1.00  0.00     0.218 HD
ENDBRANCH  10  12
BRANCH   4  14
HETATM   14  C5          0      45.291  39.495  21.213  1.00  0.00     0.025 C 
HETATM   15  C6          0      45.343  40.795  20.731  1.00  0.00     0.004 C 
HETATM   16  C7          0      46.433  41.147  19.942  1.00  0.00     0.026 C 
HETATM   17  C8          0      47.372  40.206  19.533  1.00  0.00     0.112 C 
HETATM   18  C10         0      46.911  38.896  19.518  1.00  0.00     0.112 C 
HETATM   19  C12         0      45.876  38.550  20.379  1.00  0.00     0.028 C 
BRANCH  17  20
HETATM   20  O9          0      48.701  40.555  19.369  1.00  0.00    -0.357 OA
HETATM   21  H9          0      49.427  39.980  19.579  1.00  0.00     0.218 HD
ENDBRANCH  17  20
BRANCH  18  22
HETATM   22  O11         0      47.741  37.945  18.942  1.00  0.00    -0.357 OA
HETATM   23  H11         0      48.583  38.246  18.622  1.00  0.00     0.218 HD
ENDBRANCH  18  22
ENDBRANCH   4  14
BRANCH   8  24
HETATM   24  O17         0      47.633  39.643  27.538  1.00  0.00    -0.359 OA
HETATM   25  H17         0      47.769  40.201  28.294  1.00  0.00     0.218 HD
ENDBRANCH   8  24
TORSDOF 5
ENDMDL
MODEL 7
REMARK VINA RESULT:      -7.4      3.756      5.500
REMARK  5 active torsions:
REMARK  status: ('A' for Active; 'I' for Inactive)
REMARK    1  A    between atoms: C4_4  and  C5_5 
REMARK    2  A    between atoms: C8_8  and  O9_9 
REMARK    3  A    between atoms: C10_11  and  O11_12 
REMARK    4  A    between atoms: C16_18  and  O17_19 
REMARK    5  A    between atoms: C19_22  and  O20_23 
ROOT
HETATM    1  O1          0      45.232  32.399  16.255  1.00  0.00    -0.286 OA
HETATM    2  C2          0      44.698  32.894  15.225  1.00  0.00     0.201 C 
HETATM    3  C3          0      44.888  34.209  14.838  1.00  0.00     0.067 C 
HETATM    4  C4          0      44.207  34.757  13.757  1.00  0.00     0.103 C 
HETATM    5  O13         0      43.375  33.990  13.076  1.00  0.00    -0.307 OA
HETATM    6  C14         0      43.129  32.745  13.423  1.00  0.00     0.107 C 
HETATM    7  C15         0      41.996  32.074  12.985  1.00  0.00     0.049 C 
HETATM    8  C16         0      41.611  30.864  13.550  1.00  0.00     0.093 C 
HETATM    9  C18         0      42.638  30.138  14.140  1.00  0.00     0.048 C 
HETATM   10  C19         0      43.805  30.770  14.548  1.00  0.00     0.096 C 
HETATM   11  C21         0      43.952  32.117  14.352  1.00  0.00     0.084 C 
ENDROOT
BRANCH  10  12
HETATM   12  O20         0      44.613  30.158  15.500  1.00  0.00    -0.359 OA
HETATM   13  H20         0      44.388  29.277  15.775  1.00  0.00     0.218 HD
ENDBRANCH  10  12
BRANCH   4  14
HETATM   14  C5          0      43.979  36.204  13.772  1.00  0.00     0.025 C 
HETATM   15  C6          0      42.817  36.787  13.290  1.00  0.00     0.004 C 
HETATM   16  C7          0      42.306  37.877  13.986  1.00  0.00     0.026 C 
HETATM   17  C8          0      42.996  38.454  15.047  1.00  0.00     0.112 C 
HETATM   18  C10         0      44.366  38.229  15.038  1.00  0.00     0.112 C 
HETATM   19  C12         0      44.844  37.086  14.407  1.00  0.00     0.028 C 
BRANCH  17  20
HETATM   20  O9          0      42.316  39.013  16.115  1.00  0.00    -0.357 OA
HETATM   21  H9          0      41.929  38.506  16.818  1.00  0.00     0.218 HD
ENDBRANCH  17  20
BRANCH  18  22
HETATM   22  O11         0      45.125  38.934  15.961  1.00  0.00    -0.357 OA
HETATM   23  H11         0      45.527  39.741  15.661  1.00  0.00     0.218 HD
ENDBRANCH  18  22
ENDBRANCH   4  14
BRANCH   8  24
HETATM   24  O17         0      40.265  30.572  13.800  1.00  0.00    -0.359 OA
HETATM   25  H17         0      39.592  30.723  13.147  1.00  0.00     0.218 HD
ENDBRANCH   8  24
TORSDOF 5
ENDMDL
MODEL 8
REMARK VINA RESULT:      -7.4      7.892     10.981
REMARK  5 active torsions:
REMARK  status: ('A' for Active; 'I' for Inactive)
REMARK    1  A    between atoms: C4_4  and  C5_5 
REMARK    2  A    between atoms: C8_8  and  O9_9 
REMARK    3  A    between atoms: C10_11  and  O11_12 
REMARK    4  A    between atoms: C16_18  and  O17_19 
REMARK    5  A    between atoms: C19_22  and  O20_23 
ROOT
HETATM    1  O1          0      43.843  37.545  25.320  1.00  0.00    -0.286 OA
HETATM    2  C2          0      44.708  38.383  24.943  1.00  0.00     0.201 C 
HETATM    3  C3          0      44.653  39.016  23.714  1.00  0.00     0.067 C 
HETATM    4  C4          0      45.672  39.857  23.281  1.00  0.00     0.103 C 
HETATM    5  O13         0      46.705  40.065  24.078  1.00  0.00    -0.307 OA
HETATM    6  C14         0      46.825  39.459  25.239  1.00  0.00     0.107 C 
HETATM    7  C15         0      48.048  39.352  25.885  1.00  0.00     0.049 C 
HETATM    8  C16         0      48.219  38.502  26.970  1.00  0.00     0.093 C 
HETATM    9  C18         0      47.058  38.208  27.674  1.00  0.00     0.048 C 
HETATM   10  C19         0      45.814  38.349  27.074  1.00  0.00     0.096 C 
HETATM   11  C21         0      45.730  38.797  25.784  1.00  0.00     0.084 C 
ENDROOT
BRANCH  10  12
HETATM   12  O20         0      44.724  37.662  27.598  1.00  0.00    -0.359 OA
HETATM   13  H20         0      44.110  37.269  26.989  1.00  0.00     0.218 HD
ENDBRANCH  10  12
BRANCH   4  14
HETATM   14  C5          0      45.859  39.993  21.835  1.00  0.00     0.025 C 
HETATM   15  C6          0      45.842  41.220  21.187  1.00  0.00     0.004 C 
HETATM   16  C7          0      46.742  41.409  20.143  1.00  0.00     0.026 C 
HETATM   17  C8          0      47.538  40.372  19.669  1.00  0.00     0.112 C 
HETATM   18  C10         0      47.046  39.100  19.925  1.00  0.00     0.112 C 
HETATM   19  C12         0      46.216  38.922  21.026  1.00  0.00     0.028 C 
BRANCH  17  20
HETATM   20  O9          0      48.808  40.621  19.179  1.00  0.00    -0.357 OA
HETATM   21  H9          0      49.012  40.690  18.253  1.00  0.00     0.218 HD
ENDBRANCH  17  20
BRANCH  18  22
HETATM   22  O11         0      47.699  38.038  19.314  1.00  0.00    -0.357 OA
HETATM   23  H11         0      47.688  38.017  18.364  1.00  0.00     0.218 HD
ENDBRANCH  18  22
ENDBRANCH   4  14
BRANCH   8  24
HETATM   24  O17         0      49.387  37.747  27.128  1.00  0.00    -0.359 OA
HETATM   25  H17         0      50.070  38.005  27.735  1.00  0.00     0.218 HD
ENDBRANCH   8  24
TORSDOF 5
ENDMDL
MODEL 9
REMARK VINA RESULT:      -7.3      8.624     11.010
REMARK  5 active torsions:
REMARK  status: ('A' for Active; 'I' for Inactive)
REMARK    1  A    between atoms: C4_4  and  C5_5 
REMARK    2  A    between atoms: C8_8  and  O9_9 
REMARK    3  A    between atoms: C10_11  and  O11_12 
REMARK    4  A    between atoms: C16_18  and  O17_19 
REMARK    5  A    between atoms: C19_22  and  O20_23 
ROOT
HETATM    1  O1          0      45.545  42.127  22.873  1.00  0.00    -0.286 OA
HETATM    2  C2          0      45.266  41.162  23.636  1.00  0.00     0.201 C 
HETATM    3  C3          0      45.736  41.072  24.935  1.00  0.00     0.067 C 
HETATM    4  C4          0      45.498  39.949  25.720  1.00  0.00     0.103 C 
HETATM    5  O13         0      44.789  38.958  25.211  1.00  0.00    -0.307 OA
HETATM    6  C14         0      44.351  38.976  23.971  1.00  0.00     0.107 C 
HETATM    7  C15         0      43.969  37.815  23.313  1.00  0.00     0.049 C 
HETATM    8  C16         0      43.753  37.802  21.941  1.00  0.00     0.093 C 
HETATM    9  C18         0      43.419  39.031  21.387  1.00  0.00     0.048 C 
HETATM   10  C19         0      43.744  40.212  22.041  1.00  0.00     0.096 C 
HETATM   11  C21         0      44.384  40.164  23.249  1.00  0.00     0.084 C 
ENDROOT
BRANCH  10  12
HETATM   12  O20         0      43.809  41.397  21.314  1.00  0.00    -0.359 OA
HETATM   13  H20         0      43.267  41.473  20.539  1.00  0.00     0.218 HD
ENDBRANCH  10  12
BRANCH   4  14
HETATM   14  C5          0      46.469  39.652  26.775  1.00  0.00     0.025 C 
HETATM   15  C6          0      46.480  38.451  27.470  1.00  0.00     0.004 C 
HETATM   16  C7          0      47.718  37.904  27.792  1.00  0.00     0.026 C 
HETATM   17  C8          0      48.903  38.590  27.552  1.00  0.00     0.112 C 
HETATM   18  C10         0      48.767  39.969  27.462  1.00  0.00     0.112 C 
HETATM   19  C12         0      47.543  40.486  27.055  1.00  0.00     0.028 C 
BRANCH  17  20
HETATM   20  O9          0      50.062  37.909  27.222  1.00  0.00    -0.357 OA
HETATM   21  H9          0      50.930  38.292  27.268  1.00  0.00     0.218 HD
ENDBRANCH  17  20
BRANCH  18  22
HETATM   22  O11         0      49.937  40.714  27.412  1.00  0.00    -0.357 OA
HETATM   23  H11         0      49.880  41.622  27.685  1.00  0.00     0.218 HD
ENDBRANCH  18  22
ENDBRANCH   4  14
BRANCH   8  24
HETATM   24  O17         0      44.170  36.726  21.148  1.00  0.00    -0.359 OA
HETATM   25  H17         0      44.472  35.911  21.531  1.00  0.00     0.218 HD
ENDBRANCH   8  24
TORSDOF 5
ENDMDL
