MODEL 1
REMARK VINA RESULT:      -0.0      0.000      0.000
REMARK  5 active torsions:
REMARK  status: ('A' for Active; 'I' for Inactive)
REMARK    1  A    between atoms: C4_4  and  C5_5 
REMARK    2  A    between atoms: C8_8  and  O9_9 
REMARK    3  A    between atoms: C10_11  and  O11_12 
REMARK    4  A    between atoms: C16_18  and  O17_19 
REMARK    5  A    between atoms: C19_22  and  O20_23 
ROOT
HETATM    1  O1          0      11.492  17.003 -28.256  1.00  0.00    -0.286 OA
HETATM    2  C2          0      12.289  17.652 -28.988  1.00  0.00     0.201 C 
HETATM    3  C3          0      12.007  18.921 -29.465  1.00  0.00     0.067 C 
HETATM    4  C4          0      12.856  19.571 -30.352  1.00  0.00     0.103 C 
HETATM    5  O13         0      13.968  18.963 -30.728  1.00  0.00    -0.307 OA
HETATM    6  C14         0      14.265  17.744 -30.335  1.00  0.00     0.107 C 
HETATM    7  C15         0      15.187  16.961 -31.015  1.00  0.00     0.049 C 
HETATM    8  C16         0      15.310  15.602 -30.756  1.00  0.00     0.093 C 
HETATM    9  C18         0      14.891  15.205 -29.491  1.00  0.00     0.048 C 
HETATM   10  C19         0      14.005  15.988 -28.764  1.00  0.00     0.096 C 
HETATM   11  C21         0      13.553  17.168 -29.289  1.00  0.00     0.084 C 
ENDROOT
BRANCH  10  12
HETATM   12  O20         0      13.269  15.406 -27.737  1.00  0.00    -0.359 OA
HETATM   13  H20         0      13.291  15.820 -26.883  1.00  0.00     0.218 HD
ENDBRANCH  10  12
BRANCH   4  14
HETATM   14  C5          0      12.257  20.562 -31.248  1.00  0.00     0.025 C 
HETATM   15  C6          0      12.797  20.881 -32.486  1.00  0.00     0.004 C 
HETATM   16  C7          0      11.913  21.119 -33.533  1.00  0.00     0.026 C 
HETATM   17  C8          0      10.538  21.172 -33.329  1.00  0.00     0.112 C 
HETATM   18  C10         0      10.156  21.473 -32.029  1.00  0.00     0.112 C 
HETATM   19  C12         0      11.023  21.147 -30.993  1.00  0.00     0.028 C 
BRANCH  17  20
HETATM   20  O9          0       9.660  20.744 -34.309  1.00  0.00    -0.357 OA
HETATM   21  H9          0       8.928  20.160 -34.143  1.00  0.00     0.218 HD
ENDBRANCH  17  20
BRANCH  18  22
HETATM   22  O11         0       8.809  21.724 -31.812  1.00  0.00    -0.357 OA
HETATM   23  H11         0       8.591  22.329 -31.113  1.00  0.00     0.218 HD
ENDBRANCH  18  22
ENDBRANCH   4  14
BRANCH   8  24
HETATM   24  O17         0      15.512  14.678 -31.787  1.00  0.00    -0.359 OA
HETATM   25  H17         0      14.916  14.614 -32.524  1.00  0.00     0.218 HD
ENDBRANCH   8  24
TORSDOF 5
ENDMDL
MODEL 2
REMARK VINA RESULT:      -0.0      3.693      4.761
REMARK  5 active torsions:
REMARK  status: ('A' for Active; 'I' for Inactive)
REMARK    1  A    between atoms: C4_4  and  C5_5 
REMARK    2  A    between atoms: C8_8  and  O9_9 
REMARK    3  A    between atoms: C10_11  and  O11_12 
REMARK    4  A    between atoms: C16_18  and  O17_19 
REMARK    5  A    between atoms: C19_22  and  O20_23 
ROOT
HETATM    1  O1          0       8.587  19.924 -31.081  1.00  0.00    -0.286 OA
HETATM    2  C2          0       9.486  19.244 -31.648  1.00  0.00     0.201 C 
HETATM    3  C3          0      10.228  19.722 -32.715  1.00  0.00     0.067 C 
HETATM    4  C4          0      11.140  18.916 -33.386  1.00  0.00     0.103 C 
HETATM    5  O13         0      11.310  17.671 -32.976  1.00  0.00    -0.307 OA
HETATM    6  C14         0      10.605  17.157 -31.993  1.00  0.00     0.107 C 
HETATM    7  C15         0      10.482  15.786 -31.821  1.00  0.00     0.049 C 
HETATM    8  C16         0       9.542  15.249 -30.949  1.00  0.00     0.093 C 
HETATM    9  C18         0       9.144  16.095 -29.922  1.00  0.00     0.048 C 
HETATM   10  C19         0       9.295  17.470 -30.041  1.00  0.00     0.096 C 
HETATM   11  C21         0       9.857  17.995 -31.173  1.00  0.00     0.084 C 
ENDROOT
BRANCH  10  12
HETATM   12  O20         0       8.524  18.311 -29.245  1.00  0.00    -0.359 OA
HETATM   13  H20         0       8.752  19.233 -29.221  1.00  0.00     0.218 HD
ENDBRANCH  10  12
BRANCH   4  14
HETATM   14  C5          0      11.416  19.240 -34.787  1.00  0.00     0.025 C 
HETATM   15  C6          0      11.834  18.292 -35.710  1.00  0.00     0.004 C 
HETATM   16  C7          0      11.330  18.386 -37.003  1.00  0.00     0.026 C 
HETATM   17  C8          0      10.544  19.462 -37.404  1.00  0.00     0.112 C 
HETATM   18  C10         0      10.712  20.615 -36.649  1.00  0.00     0.112 C 
HETATM   19  C12         0      11.135  20.486 -35.332  1.00  0.00     0.028 C 
BRANCH  17  20
HETATM   20  O9          0       9.539  19.295 -38.339  1.00  0.00    -0.357 OA
HETATM   21  H9          0       8.821  18.680 -38.239  1.00  0.00     0.218 HD
ENDBRANCH  17  20
BRANCH  18  22
HETATM   22  O11         0      10.098  21.768 -37.118  1.00  0.00    -0.357 OA
HETATM   23  H11         0      10.011  21.856 -38.060  1.00  0.00     0.218 HD
ENDBRANCH  18  22
ENDBRANCH   4  14
BRANCH   8  24
HETATM   24  O17         0       8.817  14.098 -31.278  1.00  0.00    -0.359 OA
HETATM   25  H17         0       8.199  13.707 -30.671  1.00  0.00     0.218 HD
ENDBRANCH   8  24
TORSDOF 5
ENDMDL
MODEL 3
REMARK VINA RESULT:       0.0      5.200      8.227
REMARK  5 active torsions:
REMARK  status: ('A' for Active; 'I' for Inactive)
REMARK    1  A    between atoms: C4_4  and  C5_5 
REMARK    2  A    between atoms: C8_8  and  O9_9 
REMARK    3  A    between atoms: C10_11  and  O11_12 
REMARK    4  A    between atoms: C16_18  and  O17_19 
REMARK    5  A    between atoms: C19_22  and  O20_23 
ROOT
HETATM    1  O1          0      11.929  16.882 -27.852  1.00  0.00    -0.286 OA
HETATM    2  C2          0      12.158  15.824 -27.204  1.00  0.00     0.201 C 
HETATM    3  C3          0      11.153  14.971 -26.781  1.00  0.00     0.067 C 
HETATM    4  C4          0      11.424  13.867 -25.981  1.00  0.00     0.103 C 
HETATM    5  O13         0      12.676  13.623 -25.638  1.00  0.00    -0.307 OA
HETATM    6  C14         0      13.663  14.422 -25.981  1.00  0.00     0.107 C 
HETATM    7  C15         0      14.880  14.409 -25.315  1.00  0.00     0.049 C 
HETATM    8  C16         0      15.819  15.415 -25.507  1.00  0.00     0.093 C 
HETATM    9  C18         0      15.723  16.084 -26.721  1.00  0.00     0.048 C 
HETATM   10  C19         0      14.534  16.078 -27.437  1.00  0.00     0.096 C 
HETATM   11  C21         0      13.452  15.395 -26.952  1.00  0.00     0.084 C 
ENDROOT
BRANCH  10  12
HETATM   12  O20         0      14.307  17.070 -28.387  1.00  0.00    -0.359 OA
HETATM   13  H20         0      14.321  16.821 -29.303  1.00  0.00     0.218 HD
ENDBRANCH  10  12
BRANCH   4  14
HETATM   14  C5          0      10.349  13.393 -25.107  1.00  0.00     0.025 C 
HETATM   15  C6          0      10.588  12.713 -23.922  1.00  0.00     0.004 C 
HETATM   16  C7          0       9.760  12.992 -22.839  1.00  0.00     0.026 C 
HETATM   17  C8          0       8.649  13.819 -22.966  1.00  0.00     0.112 C 
HETATM   18  C10         0       8.147  13.922 -24.256  1.00  0.00     0.112 C 
HETATM   19  C12         0       9.016  13.721 -25.321  1.00  0.00     0.028 C 
BRANCH  17  20
HETATM   20  O9          0       8.239  14.620 -21.915  1.00  0.00    -0.357 OA
HETATM   21  H9          0       8.405  15.555 -21.868  1.00  0.00     0.218 HD
ENDBRANCH  17  20
BRANCH  18  22
HETATM   22  O11         0       6.933  14.578 -24.407  1.00  0.00    -0.357 OA
HETATM   23  H11         0       6.758  15.300 -23.815  1.00  0.00     0.218 HD
ENDBRANCH  18  22
ENDBRANCH   4  14
BRANCH   8  24
HETATM   24  O17         0      16.564  15.930 -24.440  1.00  0.00    -0.359 OA
HETATM   25  H17         0      17.287  15.447 -24.057  1.00  0.00     0.218 HD
ENDBRANCH   8  24
TORSDOF 5
ENDMDL
MODEL 4
REMARK VINA RESULT:       0.0      6.095      7.911
REMARK  5 active torsions:
REMARK  status: ('A' for Active; 'I' for Inactive)
REMARK    1  A    between atoms: C4_4  and  C5_5 
REMARK    2  A    between atoms: C8_8  and  O9_9 
REMARK    3  A    between atoms: C10_11  and  O11_12 
REMARK    4  A    between atoms: C16_18  and  O17_19 
REMARK    5  A    between atoms: C19_22  and  O20_23 
ROOT
HETATM    1  O1          0      13.886  22.234 -30.194  1.00  0.00    -0.286 OA
HETATM    2  C2          0      15.023  22.412 -30.710  1.00  0.00     0.201 C 
HETATM    3  C3          0      16.083  22.971 -30.017  1.00  0.00     0.067 C 
HETATM    4  C4          0      17.294  23.252 -30.640  1.00  0.00     0.103 C 
HETATM    5  O13         0      17.433  22.956 -31.920  1.00  0.00    -0.307 OA
HETATM    6  C14         0      16.447  22.459 -32.634  1.00  0.00     0.107 C 
HETATM    7  C15         0      16.445  22.520 -34.020  1.00  0.00     0.049 C 
HETATM    8  C16         0      15.300  22.230 -34.753  1.00  0.00     0.093 C 
HETATM    9  C18         0      14.388  21.399 -34.113  1.00  0.00     0.048 C 
HETATM   10  C19         0      14.393  21.279 -32.730  1.00  0.00     0.096 C 
HETATM   11  C21         0      15.314  21.970 -31.992  1.00  0.00     0.084 C 
ENDROOT
BRANCH  10  12
HETATM   12  O20         0      13.249  20.820 -32.084  1.00  0.00    -0.359 OA
HETATM   13  H20         0      12.671  21.463 -31.692  1.00  0.00     0.218 HD
ENDBRANCH  10  12
BRANCH   4  14
HETATM   14  C5          0      18.103  24.333 -30.074  1.00  0.00     0.025 C 
HETATM   15  C6          0      19.000  25.075 -30.829  1.00  0.00     0.004 C 
HETATM   16  C7          0      19.098  26.436 -30.560  1.00  0.00     0.026 C 
HETATM   17  C8          0      18.429  27.018 -29.490  1.00  0.00     0.112 C 
HETATM   18  C10         0      18.100  26.140 -28.465  1.00  0.00     0.112 C 
HETATM   19  C12         0      17.924  24.797 -28.778  1.00  0.00     0.028 C 
BRANCH  17  20
HETATM   20  O9          0      17.958  28.317 -29.569  1.00  0.00    -0.357 OA
HETATM   21  H9          0      17.199  28.573 -30.079  1.00  0.00     0.218 HD
ENDBRANCH  17  20
BRANCH  18  22
HETATM   22  O11         0      17.602  26.697 -27.296  1.00  0.00    -0.357 OA
HETATM   23  H11         0      18.209  26.784 -26.569  1.00  0.00     0.218 HD
ENDBRANCH  18  22
ENDBRANCH   4  14
BRANCH   8  24
HETATM   24  O17         0      14.948  22.979 -35.881  1.00  0.00    -0.359 OA
HETATM   25  H17         0      15.532  23.632 -36.249  1.00  0.00     0.218 HD
ENDBRANCH   8  24
TORSDOF 5
ENDMDL
MODEL 5
REMARK VINA RESULT:       0.0      4.432      8.309
REMARK  5 active torsions:
REMARK  status: ('A' for Active; 'I' for Inactive)
REMARK    1  A    between atoms: C4_4  and  C5_5 
REMARK    2  A    between atoms: C8_8  and  O9_9 
REMARK    3  A    between atoms: C10_11  and  O11_12 
REMARK    4  A    between atoms: C16_18  and  O17_19 
REMARK    5  A    between atoms: C19_22  and  O20_23 
ROOT
HETATM    1  O1          0       9.682  15.982 -28.376  1.00  0.00    -0.286 OA
HETATM    2  C2          0      10.686  15.288 -28.058  1.00  0.00     0.201 C 
HETATM    3  C3          0      10.598  14.168 -27.249  1.00  0.00     0.067 C 
HETATM    4  C4          0      11.732  13.481 -26.829  1.00  0.00     0.103 C 
HETATM    5  O13         0      12.916  13.904 -27.234  1.00  0.00    -0.307 OA
HETATM    6  C14         0      13.059  14.983 -27.972  1.00  0.00     0.107 C 
HETATM    7  C15         0      14.271  15.651 -28.064  1.00  0.00     0.049 C 
HETATM    8  C16         0      14.356  16.918 -28.629  1.00  0.00     0.093 C 
HETATM    9  C18         0      13.347  17.227 -29.532  1.00  0.00     0.048 C 
HETATM   10  C19         0      12.137  16.546 -29.498  1.00  0.00     0.096 C 
HETATM   11  C21         0      11.944  15.551 -28.579  1.00  0.00     0.084 C 
ENDROOT
BRANCH  10  12
HETATM   12  O20         0      11.013  17.127 -30.078  1.00  0.00    -0.359 OA
HETATM   13  H20         0      10.906  17.048 -31.018  1.00  0.00     0.218 HD
ENDBRANCH  10  12
BRANCH   4  14
HETATM   14  C5          0      11.640  12.745 -25.567  1.00  0.00     0.025 C 
HETATM   15  C6          0      12.743  12.485 -24.767  1.00  0.00     0.004 C 
HETATM   16  C7          0      12.570  12.555 -23.388  1.00  0.00     0.026 C 
HETATM   17  C8          0      11.315  12.745 -22.819  1.00  0.00     0.112 C 
HETATM   18  C10         0      10.250  12.363 -23.624  1.00  0.00     0.112 C 
HETATM   19  C12         0      10.424  12.383 -25.003  1.00  0.00     0.028 C 
BRANCH  17  20
HETATM   20  O9          0      11.171  13.454 -21.640  1.00  0.00    -0.357 OA
HETATM   21  H9          0      11.884  13.622 -21.034  1.00  0.00     0.218 HD
ENDBRANCH  17  20
BRANCH  18  22
HETATM   22  O11         0       8.992  12.354 -23.039  1.00  0.00    -0.357 OA
HETATM   23  H11         0       8.782  11.612 -22.484  1.00  0.00     0.218 HD
ENDBRANCH  18  22
ENDBRANCH   4  14
BRANCH   8  24
HETATM   24  O17         0      15.182  17.907 -28.082  1.00  0.00    -0.359 OA
HETATM   25  H17         0      15.833  17.703 -27.421  1.00  0.00     0.218 HD
ENDBRANCH   8  24
TORSDOF 5
ENDMDL
MODEL 6
REMARK VINA RESULT:       0.0      5.508      7.900
REMARK  5 active torsions:
REMARK  status: ('A' for Active; 'I' for Inactive)
REMARK    1  A    between atoms: C4_4  and  C5_5 
REMARK    2  A    between atoms: C8_8  and  O9_9 
REMARK    3  A    between atoms: C10_11  and  O11_12 
REMARK    4  A    between atoms: C16_18  and  O17_19 
REMARK    5  A    between atoms: C19_22  and  O20_23 
ROOT
HETATM    1  O1          0      12.333  24.087 -28.519  1.00  0.00    -0.286 OA
HETATM    2  C2          0      11.531  23.273 -27.983  1.00  0.00     0.201 C 
HETATM    3  C3          0      10.991  23.471 -26.724  1.00  0.00     0.067 C 
HETATM    4  C4          0      10.192  22.510 -26.115  1.00  0.00     0.103 C 
HETATM    5  O13         0       9.931  21.393 -26.771  1.00  0.00    -0.307 OA
HETATM    6  C14         0      10.449  21.139 -27.953  1.00  0.00     0.107 C 
HETATM    7  C15         0      10.515  19.850 -28.461  1.00  0.00     0.049 C 
HETATM    8  C16         0      11.282  19.553 -29.581  1.00  0.00     0.093 C 
HETATM    9  C18         0      11.515  20.626 -30.433  1.00  0.00     0.048 C 
HETATM   10  C19         0      11.412  21.931 -29.970  1.00  0.00     0.096 C 
HETATM   11  C21         0      11.061  22.163 -28.668  1.00  0.00     0.084 C 
ENDROOT
BRANCH  10  12
HETATM   12  O20         0      12.050  22.952 -30.666  1.00  0.00    -0.359 OA
HETATM   13  H20         0      12.896  23.246 -30.349  1.00  0.00     0.218 HD
ENDBRANCH  10  12
BRANCH   4  14
HETATM   14  C5          0      10.167  22.490 -24.651  1.00  0.00     0.025 C 
HETATM   15  C6          0       9.896  21.343 -23.920  1.00  0.00     0.004 C 
HETATM   16  C7          0      10.615  21.142 -22.746  1.00  0.00     0.026 C 
HETATM   17  C8          0      11.477  22.111 -22.244  1.00  0.00     0.112 C 
HETATM   18  C10         0      11.204  23.405 -22.666  1.00  0.00     0.112 C 
HETATM   19  C12         0      10.559  23.579 -23.885  1.00  0.00     0.028 C 
BRANCH  17  20
HETATM   20  O9          0      12.625  21.752 -21.559  1.00  0.00    -0.357 OA
HETATM   21  H9          0      12.643  21.543 -20.632  1.00  0.00     0.218 HD
ENDBRANCH  17  20
BRANCH  18  22
HETATM   22  O11         0      11.910  24.429 -22.051  1.00  0.00    -0.357 OA
HETATM   23  H11         0      11.501  25.287 -22.039  1.00  0.00     0.218 HD
ENDBRANCH  18  22
ENDBRANCH   4  14
BRANCH   8  24
HETATM   24  O17         0      12.031  18.374 -29.661  1.00  0.00    -0.359 OA
HETATM   25  H17         0      11.972  17.700 -28.995  1.00  0.00     0.218 HD
ENDBRANCH   8  24
TORSDOF 5
ENDMDL
MODEL 7
REMARK VINA RESULT:       0.0      6.658      8.741
REMARK  5 active torsions:
REMARK  status: ('A' for Active; 'I' for Inactive)
REMARK    1  A    between atoms: C4_4  and  C5_5 
REMARK    2  A    between atoms: C8_8  and  O9_9 
REMARK    3  A    between atoms: C10_11  and  O11_12 
REMARK    4  A    between atoms: C16_18  and  O17_19 
REMARK    5  A    between atoms: C19_22  and  O20_23 
ROOT
HETATM    1  O1          0      17.945  19.255 -27.693  1.00  0.00    -0.286 OA
HETATM    2  C2          0      17.460  19.008 -26.555  1.00  0.00     0.201 C 
HETATM    3  C3          0      17.228  17.720 -26.102  1.00  0.00     0.067 C 
HETATM    4  C4          0      16.598  17.478 -24.887  1.00  0.00     0.103 C 
HETATM    5  O13         0      16.234  18.509 -24.144  1.00  0.00    -0.307 OA
HETATM    6  C14         0      16.396  19.751 -24.544  1.00  0.00     0.107 C 
HETATM    7  C15         0      15.679  20.799 -23.985  1.00  0.00     0.049 C 
HETATM    8  C16         0      15.663  22.057 -24.574  1.00  0.00     0.093 C 
HETATM    9  C18         0      16.761  22.344 -25.376  1.00  0.00     0.048 C 
HETATM   10  C19         0      17.529  21.320 -25.914  1.00  0.00     0.096 C 
HETATM   11  C21         0      17.212  20.018 -25.638  1.00  0.00     0.084 C 
ENDROOT
BRANCH  10  12
HETATM   12  O20         0      18.321  21.577 -27.028  1.00  0.00    -0.359 OA
HETATM   13  H20         0      19.210  21.879 -26.882  1.00  0.00     0.218 HD
ENDBRANCH  10  12
BRANCH   4  14
HETATM   14  C5          0      15.865  16.218 -24.751  1.00  0.00     0.025 C 
HETATM   15  C6          0      14.791  16.062 -23.887  1.00  0.00     0.004 C 
HETATM   16  C7          0      13.722  15.285 -24.322  1.00  0.00     0.026 C 
HETATM   17  C8          0      13.773  14.577 -25.518  1.00  0.00     0.112 C 
HETATM   18  C10         0      15.055  14.289 -25.966  1.00  0.00     0.112 C 
HETATM   19  C12         0      16.093  15.131 -25.585  1.00  0.00     0.028 C 
BRANCH  17  20
HETATM   20  O9          0      12.632  14.382 -26.276  1.00  0.00    -0.357 OA
HETATM   21  H9          0      11.893  13.858 -25.991  1.00  0.00     0.218 HD
ENDBRANCH  17  20
BRANCH  18  22
HETATM   22  O11         0      15.164  13.426 -27.048  1.00  0.00    -0.357 OA
HETATM   23  H11         0      15.541  12.570 -26.879  1.00  0.00     0.218 HD
ENDBRANCH  18  22
ENDBRANCH   4  14
BRANCH   8  24
HETATM   24  O17         0      14.492  22.822 -24.629  1.00  0.00    -0.359 OA
HETATM   25  H17         0      14.460  23.654 -25.086  1.00  0.00     0.218 HD
ENDBRANCH   8  24
TORSDOF 5
ENDMDL
MODEL 8
REMARK VINA RESULT:       0.0      7.374      9.256
REMARK  5 active torsions:
REMARK  status: ('A' for Active; 'I' for Inactive)
REMARK    1  A    between atoms: C4_4  and  C5_5 
REMARK    2  A    between atoms: C8_8  and  O9_9 
REMARK    3  A    between atoms: C10_11  and  O11_12 
REMARK    4  A    between atoms: C16_18  and  O17_19 
REMARK    5  A    between atoms: C19_22  and  O20_23 
ROOT
HETATM    1  O1          0       8.716  22.994 -28.932  1.00  0.00    -0.286 OA
HETATM    2  C2          0       8.585  24.171 -29.368  1.00  0.00     0.201 C 
HETATM    3  C3          0       8.846  24.517 -30.683  1.00  0.00     0.067 C 
HETATM    4  C4          0       8.792  25.838 -31.113  1.00  0.00     0.103 C 
HETATM    5  O13         0       8.463  26.776 -30.243  1.00  0.00    -0.307 OA
HETATM    6  C14         0       8.243  26.506 -28.975  1.00  0.00     0.107 C 
HETATM    7  C15         0       8.295  27.491 -27.998  1.00  0.00     0.049 C 
HETATM    8  C16         0       8.316  27.167 -26.647  1.00  0.00     0.093 C 
HETATM    9  C18         0       7.760  25.933 -26.331  1.00  0.00     0.048 C 
HETATM   10  C19         0       7.649  24.941 -27.296  1.00  0.00     0.096 C 
HETATM   11  C21         0       8.075  25.186 -28.573  1.00  0.00     0.084 C 
ENDROOT
BRANCH  10  12
HETATM   12  O20         0       7.513  23.615 -26.896  1.00  0.00    -0.359 OA
HETATM   13  H20         0       8.276  23.052 -26.954  1.00  0.00     0.218 HD
ENDBRANCH  10  12
BRANCH   4  14
HETATM   14  C5          0       9.623  26.202 -32.262  1.00  0.00     0.025 C 
HETATM   15  C6          0      10.096  27.490 -32.470  1.00  0.00     0.004 C 
HETATM   16  C7          0      11.384  27.629 -32.977  1.00  0.00     0.026 C 
HETATM   17  C8          0      12.128  26.530 -33.391  1.00  0.00     0.112 C 
HETATM   18  C10         0      11.374  25.416 -33.735  1.00  0.00     0.112 C 
HETATM   19  C12         0      10.124  25.257 -33.148  1.00  0.00     0.028 C 
BRANCH  17  20
HETATM   20  O9          0      13.505  26.513 -33.253  1.00  0.00    -0.357 OA
HETATM   21  H9          0      14.108  26.491 -33.986  1.00  0.00     0.218 HD
ENDBRANCH  17  20
BRANCH  18  22
HETATM   22  O11         0      12.049  24.360 -34.332  1.00  0.00    -0.357 OA
HETATM   23  H11         0      12.665  24.579 -35.021  1.00  0.00     0.218 HD
ENDBRANCH  18  22
ENDBRANCH   4  14
BRANCH   8  24
HETATM   24  O17         0       9.125  27.862 -25.742  1.00  0.00    -0.359 OA
HETATM   25  H17         0       8.758  28.448 -25.092  1.00  0.00     0.218 HD
ENDBRANCH   8  24
TORSDOF 5
ENDMDL
MODEL 9
REMARK VINA RESULT:       0.0      4.291      6.264
REMARK  5 active torsions:
REMARK  status: ('A' for Active; 'I' for Inactive)
REMARK    1  A    between atoms: C4_4  and  C5_5 
REMARK    2  A    between atoms: C8_8  and  O9_9 
REMARK    3  A    between atoms: C10_11  and  O11_12 
REMARK    4  A    between atoms: C16_18  and  O17_19 
REMARK    5  A    between atoms: C19_22  and  O20_23 
ROOT
HETATM    1  O1          0      10.101  19.713 -26.070  1.00  0.00    -0.286 OA
HETATM    2  C2          0       9.717  19.740 -27.272  1.00  0.00     0.201 C 
HETATM    3  C3          0       8.770  18.865 -27.777  1.00  0.00     0.067 C 
HETATM    4  C4          0       8.440  18.849 -29.127  1.00  0.00     0.103 C 
HETATM    5  O13         0       9.036  19.707 -29.936  1.00  0.00    -0.307 OA
HETATM    6  C14         0       9.969  20.533 -29.516  1.00  0.00     0.107 C 
HETATM    7  C15         0      10.862  21.134 -30.391  1.00  0.00     0.049 C 
HETATM    8  C16         0      11.992  21.796 -29.927  1.00  0.00     0.093 C 
HETATM    9  C18         0      11.901  22.272 -28.625  1.00  0.00     0.048 C 
HETATM   10  C19         0      10.985  21.725 -27.736  1.00  0.00     0.096 C 
HETATM   11  C21         0      10.155  20.719 -28.150  1.00  0.00     0.084 C 
ENDROOT
BRANCH  10  12
HETATM   12  O20         0      11.187  21.883 -26.368  1.00  0.00    -0.359 OA
HETATM   13  H20         0      10.484  21.629 -25.783  1.00  0.00     0.218 HD
ENDBRANCH  10  12
BRANCH   4  14
HETATM   14  C5          0       7.942  17.588 -29.680  1.00  0.00     0.025 C 
HETATM   15  C6          0       8.083  17.246 -31.017  1.00  0.00     0.004 C 
HETATM   16  C7          0       8.360  15.915 -31.315  1.00  0.00     0.026 C 
HETATM   17  C8          0       8.366  14.933 -30.331  1.00  0.00     0.112 C 
HETATM   18  C10         0       7.617  15.239 -29.202  1.00  0.00     0.112 C 
HETATM   19  C12         0       7.427  16.577 -28.879  1.00  0.00     0.028 C 
BRANCH  17  20
HETATM   20  O9          0       9.226  13.852 -30.413  1.00  0.00    -0.357 OA
HETATM   21  H9          0       8.958  12.952 -30.268  1.00  0.00     0.218 HD
ENDBRANCH  17  20
BRANCH  18  22
HETATM   22  O11         0       7.434  14.222 -28.276  1.00  0.00    -0.357 OA
HETATM   23  H11         0       7.783  14.367 -27.404  1.00  0.00     0.218 HD
ENDBRANCH  18  22
ENDBRANCH   4  14
BRANCH   8  24
HETATM   24  O17         0      13.222  21.688 -30.586  1.00  0.00    -0.359 OA
HETATM   25  H17         0      14.039  21.917 -30.159  1.00  0.00     0.218 HD
ENDBRANCH   8  24
TORSDOF 5
ENDMDL
