MODEL 1
REMARK VINA RESULT:      -5.4      0.000      0.000
REMARK  5 active torsions:
REMARK  status: ('A' for Active; 'I' for Inactive)
REMARK    1  A    between atoms: C4_4  and  C5_5 
REMARK    2  A    between atoms: C8_8  and  O9_9 
REMARK    3  A    between atoms: C10_11  and  O11_12 
REMARK    4  A    between atoms: C16_18  and  O17_19 
REMARK    5  A    between atoms: C19_22  and  O20_23 
ROOT
HETATM    1  O1          0      35.697 111.237  -5.493  1.00  0.00    -0.286 OA
HETATM    2  C2          0      36.573 110.784  -4.706  1.00  0.00     0.201 C 
HETATM    3  C3          0      37.925 111.040  -4.862  1.00  0.00     0.067 C 
HETATM    4  C4          0      38.878 110.445  -4.043  1.00  0.00     0.103 C 
HETATM    5  O13         0      38.472 109.635  -3.082  1.00  0.00    -0.307 OA
HETATM    6  C14         0      37.204 109.329  -2.914  1.00  0.00     0.107 C 
HETATM    7  C15         0      36.811 108.206  -2.200  1.00  0.00     0.049 C 
HETATM    8  C16         0      35.499 107.749  -2.240  1.00  0.00     0.093 C 
HETATM    9  C18         0      34.550 108.714  -2.555  1.00  0.00     0.048 C 
HETATM   10  C19         0      34.917 109.871  -3.228  1.00  0.00     0.096 C 
HETATM   11  C21         0      36.227 110.072  -3.569  1.00  0.00     0.084 C 
ENDROOT
BRANCH  10  12
HETATM   12  O20         0      33.947 110.598  -3.910  1.00  0.00    -0.359 OA
HETATM   13  H20         0      34.051 110.710  -4.847  1.00  0.00     0.218 HD
ENDBRANCH  10  12
BRANCH   4  14
HETATM   14  C5          0      40.220 110.262  -4.599  1.00  0.00     0.025 C 
HETATM   15  C6          0      41.375 110.545  -3.886  1.00  0.00     0.004 C 
HETATM   16  C7          0      42.460 109.690  -4.050  1.00  0.00     0.026 C 
HETATM   17  C8          0      42.446 108.667  -4.991  1.00  0.00     0.112 C 
HETATM   18  C10         0      41.561 108.859  -6.043  1.00  0.00     0.112 C 
HETATM   19  C12         0      40.439 109.650  -5.827  1.00  0.00     0.028 C 
BRANCH  17  20
HETATM   20  O9          0      43.112 107.477  -4.754  1.00  0.00    -0.357 OA
HETATM   21  H9          0      43.443 106.911  -5.443  1.00  0.00     0.218 HD
ENDBRANCH  17  20
BRANCH  18  22
HETATM   22  O11         0      41.641 107.966  -7.103  1.00  0.00    -0.357 OA
HETATM   23  H11         0      42.260 108.173  -7.794  1.00  0.00     0.218 HD
ENDBRANCH  18  22
ENDBRANCH   4  14
BRANCH   8  24
HETATM   24  O17         0      35.205 106.382  -2.295  1.00  0.00    -0.359 OA
HETATM   25  H17         0      34.413 106.058  -2.707  1.00  0.00     0.218 HD
ENDBRANCH   8  24
TORSDOF 5
ENDMDL
MODEL 2
REMARK VINA RESULT:      -5.3      5.052      6.945
REMARK  5 active torsions:
REMARK  status: ('A' for Active; 'I' for Inactive)
REMARK    1  A    between atoms: C4_4  and  C5_5 
REMARK    2  A    between atoms: C8_8  and  O9_9 
REMARK    3  A    between atoms: C10_11  and  O11_12 
REMARK    4  A    between atoms: C16_18  and  O17_19 
REMARK    5  A    between atoms: C19_22  and  O20_23 
ROOT
HETATM    1  O1          0      37.464 115.612  -0.707  1.00  0.00    -0.286 OA
HETATM    2  C2          0      36.460 114.851  -0.777  1.00  0.00     0.201 C 
HETATM    3  C3          0      36.553 113.519  -1.144  1.00  0.00     0.067 C 
HETATM    4  C4          0      35.422 112.729  -1.313  1.00  0.00     0.103 C 
HETATM    5  O13         0      34.235 113.266  -1.094  1.00  0.00    -0.307 OA
HETATM    6  C14         0      34.088 114.535  -0.780  1.00  0.00     0.107 C 
HETATM    7  C15         0      32.877 115.192  -0.941  1.00  0.00     0.049 C 
HETATM    8  C16         0      32.791 116.577  -0.853  1.00  0.00     0.093 C 
HETATM    9  C18         0      33.791 117.181  -0.101  1.00  0.00     0.048 C 
HETATM   10  C19         0      34.998 116.531   0.119  1.00  0.00     0.096 C 
HETATM   11  C21         0      35.198 115.278  -0.395  1.00  0.00     0.084 C 
ENDROOT
BRANCH  10  12
HETATM   12  O20         0      36.118 117.277   0.474  1.00  0.00    -0.359 OA
HETATM   13  H20         0      36.919 116.809   0.676  1.00  0.00     0.218 HD
ENDBRANCH  10  12
BRANCH   4  14
HETATM   14  C5          0      35.525 111.600  -2.239  1.00  0.00     0.025 C 
HETATM   15  C6          0      34.871 111.568  -3.462  1.00  0.00     0.004 C 
HETATM   16  C7          0      35.547 111.005  -4.539  1.00  0.00     0.026 C 
HETATM   17  C8          0      36.776 110.374  -4.381  1.00  0.00     0.112 C 
HETATM   18  C10         0      37.027 109.908  -3.097  1.00  0.00     0.112 C 
HETATM   19  C12         0      36.403 110.544  -2.030  1.00  0.00     0.028 C 
BRANCH  17  20
HETATM   20  O9          0      37.729 110.415  -5.383  1.00  0.00    -0.357 OA
HETATM   21  H9          0      37.854 111.159  -5.962  1.00  0.00     0.218 HD
ENDBRANCH  17  20
BRANCH  18  22
HETATM   22  O11         0      38.148 109.108  -2.927  1.00  0.00    -0.357 OA
HETATM   23  H11         0      38.064 108.371  -2.333  1.00  0.00     0.218 HD
ENDBRANCH  18  22
ENDBRANCH   4  14
BRANCH   8  24
HETATM   24  O17         0      31.976 117.313  -1.720  1.00  0.00    -0.359 OA
HETATM   25  H17         0      31.835 118.245  -1.602  1.00  0.00     0.218 HD
ENDBRANCH   8  24
TORSDOF 5
ENDMDL
MODEL 3
REMARK VINA RESULT:      -5.3      5.072      7.358
REMARK  5 active torsions:
REMARK  status: ('A' for Active; 'I' for Inactive)
REMARK    1  A    between atoms: C4_4  and  C5_5 
REMARK    2  A    between atoms: C8_8  and  O9_9 
REMARK    3  A    between atoms: C10_11  and  O11_12 
REMARK    4  A    between atoms: C16_18  and  O17_19 
REMARK    5  A    between atoms: C19_22  and  O20_23 
ROOT
HETATM    1  O1          0      37.300 115.738  -0.467  1.00  0.00    -0.286 OA
HETATM    2  C2          0      36.337 114.938  -0.625  1.00  0.00     0.201 C 
HETATM    3  C3          0      36.513 113.614  -0.988  1.00  0.00     0.067 C 
HETATM    4  C4          0      35.432 112.782  -1.256  1.00  0.00     0.103 C 
HETATM    5  O13         0      34.210 113.271  -1.137  1.00  0.00    -0.307 OA
HETATM    6  C14         0      33.988 114.531  -0.832  1.00  0.00     0.107 C 
HETATM    7  C15         0      32.770 115.143  -1.092  1.00  0.00     0.049 C 
HETATM    8  C16         0      32.622 116.522  -1.007  1.00  0.00     0.093 C 
HETATM    9  C18         0      33.531 117.158  -0.170  1.00  0.00     0.048 C 
HETATM   10  C19         0      34.739 116.554   0.150  1.00  0.00     0.096 C 
HETATM   11  C21         0      35.031 115.314  -0.350  1.00  0.00     0.084 C 
ENDROOT
BRANCH  10  12
HETATM   12  O20         0      35.794 117.340   0.602  1.00  0.00    -0.359 OA
HETATM   13  H20         0      36.677 117.081   0.364  1.00  0.00     0.218 HD
ENDBRANCH  10  12
BRANCH   4  14
HETATM   14  C5          0      35.658 111.664  -2.174  1.00  0.00     0.025 C 
HETATM   15  C6          0      36.659 110.724  -1.982  1.00  0.00     0.004 C 
HETATM   16  C7          0      36.369 109.400  -2.298  1.00  0.00     0.026 C 
HETATM   17  C8          0      35.173 109.041  -2.910  1.00  0.00     0.112 C 
HETATM   18  C10         0      34.552 110.065  -3.614  1.00  0.00     0.112 C 
HETATM   19  C12         0      34.793 111.376  -3.223  1.00  0.00     0.028 C 
BRANCH  17  20
HETATM   20  O9          0      34.576 107.823  -2.640  1.00  0.00    -0.357 OA
HETATM   21  H9          0      34.427 107.151  -3.295  1.00  0.00     0.218 HD
ENDBRANCH  17  20
BRANCH  18  22
HETATM   22  O11         0      33.460 109.717  -4.396  1.00  0.00    -0.357 OA
HETATM   23  H11         0      32.697 110.280  -4.345  1.00  0.00     0.218 HD
ENDBRANCH  18  22
ENDBRANCH   4  14
BRANCH   8  24
HETATM   24  O17         0      31.856 117.232  -1.937  1.00  0.00    -0.359 OA
HETATM   25  H17         0      30.910 117.285  -1.868  1.00  0.00     0.218 HD
ENDBRANCH   8  24
TORSDOF 5
ENDMDL
MODEL 4
REMARK VINA RESULT:      -5.3      5.050      6.789
REMARK  5 active torsions:
REMARK  status: ('A' for Active; 'I' for Inactive)
REMARK    1  A    between atoms: C4_4  and  C5_5 
REMARK    2  A    between atoms: C8_8  and  O9_9 
REMARK    3  A    between atoms: C10_11  and  O11_12 
REMARK    4  A    between atoms: C16_18  and  O17_19 
REMARK    5  A    between atoms: C19_22  and  O20_23 
ROOT
HETATM    1  O1          0      31.809 114.206  -2.365  1.00  0.00    -0.286 OA
HETATM    2  C2          0      33.063 114.335  -2.306  1.00  0.00     0.201 C 
HETATM    3  C3          0      33.938 113.449  -2.909  1.00  0.00     0.067 C 
HETATM    4  C4          0      35.314 113.556  -2.742  1.00  0.00     0.103 C 
HETATM    5  O13         0      35.789 114.544  -2.004  1.00  0.00    -0.307 OA
HETATM    6  C14         0      35.000 115.391  -1.379  1.00  0.00     0.107 C 
HETATM    7  C15         0      35.449 116.156  -0.312  1.00  0.00     0.049 C 
HETATM    8  C16         0      34.562 116.851   0.501  1.00  0.00     0.093 C 
HETATM    9  C18         0      33.348 117.171  -0.095  1.00  0.00     0.048 C 
HETATM   10  C19         0      32.890 116.456  -1.193  1.00  0.00     0.096 C 
HETATM   11  C21         0      33.649 115.439  -1.705  1.00  0.00     0.084 C 
ENDROOT
BRANCH  10  12
HETATM   12  O20         0      31.534 116.476  -1.502  1.00  0.00    -0.359 OA
HETATM   13  H20         0      31.158 117.295  -1.804  1.00  0.00     0.218 HD
ENDBRANCH  10  12
BRANCH   4  14
HETATM   14  C5          0      36.102 112.328  -2.867  1.00  0.00     0.025 C 
HETATM   15  C6          0      36.111 111.339  -1.894  1.00  0.00     0.004 C 
HETATM   16  C7          0      36.143 110.015  -2.322  1.00  0.00     0.026 C 
HETATM   17  C8          0      36.297 109.686  -3.664  1.00  0.00     0.112 C 
HETATM   18  C10         0      36.899 110.669  -4.438  1.00  0.00     0.112 C 
HETATM   19  C12         0      36.779 111.993  -4.033  1.00  0.00     0.028 C 
BRANCH  17  20
HETATM   20  O9          0      35.696 108.556  -4.190  1.00  0.00    -0.357 OA
HETATM   21  H9          0      35.429 108.474  -5.098  1.00  0.00     0.218 HD
ENDBRANCH  17  20
BRANCH  18  22
HETATM   22  O11         0      37.246 110.323  -5.735  1.00  0.00    -0.357 OA
HETATM   23  H11         0      38.050 109.828  -5.848  1.00  0.00     0.218 HD
ENDBRANCH  18  22
ENDBRANCH   4  14
BRANCH   8  24
HETATM   24  O17         0      34.742 116.918   1.887  1.00  0.00    -0.359 OA
HETATM   25  H17         0      34.628 116.156   2.442  1.00  0.00     0.218 HD
ENDBRANCH   8  24
TORSDOF 5
ENDMDL
MODEL 5
REMARK VINA RESULT:      -5.1      5.126      7.495
REMARK  5 active torsions:
REMARK  status: ('A' for Active; 'I' for Inactive)
REMARK    1  A    between atoms: C4_4  and  C5_5 
REMARK    2  A    between atoms: C8_8  and  O9_9 
REMARK    3  A    between atoms: C10_11  and  O11_12 
REMARK    4  A    between atoms: C16_18  and  O17_19 
REMARK    5  A    between atoms: C19_22  and  O20_23 
ROOT
HETATM    1  O1          0      34.964 114.127   1.463  1.00  0.00    -0.286 OA
HETATM    2  C2          0      34.989 114.165   0.203  1.00  0.00     0.201 C 
HETATM    3  C3          0      34.843 113.036  -0.585  1.00  0.00     0.067 C 
HETATM    4  C4          0      34.978 113.090  -1.968  1.00  0.00     0.103 C 
HETATM    5  O13         0      35.231 114.256  -2.536  1.00  0.00    -0.307 OA
HETATM    6  C14         0      35.416 115.351  -1.832  1.00  0.00     0.107 C 
HETATM    7  C15         0      36.061 116.460  -2.360  1.00  0.00     0.049 C 
HETATM    8  C16         0      36.478 117.507  -1.548  1.00  0.00     0.093 C 
HETATM    9  C18         0      35.778 117.640  -0.355  1.00  0.00     0.048 C 
HETATM   10  C19         0      35.082 116.564   0.178  1.00  0.00     0.096 C 
HETATM   11  C21         0      35.072 115.366  -0.484  1.00  0.00     0.084 C 
ENDROOT
BRANCH  10  12
HETATM   12  O20         0      34.765 116.562   1.533  1.00  0.00    -0.359 OA
HETATM   13  H20         0      35.433 116.279   2.146  1.00  0.00     0.218 HD
ENDBRANCH  10  12
BRANCH   4  14
HETATM   14  C5          0      35.408 111.867  -2.648  1.00  0.00     0.025 C 
HETATM   15  C6          0      36.424 111.055  -2.163  1.00  0.00     0.004 C 
HETATM   16  C7          0      36.266 109.679  -2.293  1.00  0.00     0.026 C 
HETATM   17  C8          0      35.201 109.130  -2.999  1.00  0.00     0.112 C 
HETATM   18  C10         0      34.634 109.975  -3.943  1.00  0.00     0.112 C 
HETATM   19  C12         0      34.732 111.348  -3.745  1.00  0.00     0.028 C 
BRANCH  17  20
HETATM   20  O9          0      34.645 107.922  -2.617  1.00  0.00    -0.357 OA
HETATM   21  H9          0      34.062 107.820  -1.874  1.00  0.00     0.218 HD
ENDBRANCH  17  20
BRANCH  18  22
HETATM   22  O11         0      33.697 109.419  -4.803  1.00  0.00    -0.357 OA
HETATM   23  H11         0      33.080 108.803  -4.425  1.00  0.00     0.218 HD
ENDBRANCH  18  22
ENDBRANCH   4  14
BRANCH   8  24
HETATM   24  O17         0      37.706 118.146  -1.756  1.00  0.00    -0.359 OA
HETATM   25  H17         0      38.242 117.962  -2.517  1.00  0.00     0.218 HD
ENDBRANCH   8  24
TORSDOF 5
ENDMDL
MODEL 6
REMARK VINA RESULT:      -4.9      1.925      2.606
REMARK  5 active torsions:
REMARK  status: ('A' for Active; 'I' for Inactive)
REMARK    1  A    between atoms: C4_4  and  C5_5 
REMARK    2  A    between atoms: C8_8  and  O9_9 
REMARK    3  A    between atoms: C10_11  and  O11_12 
REMARK    4  A    between atoms: C16_18  and  O17_19 
REMARK    5  A    between atoms: C19_22  and  O20_23 
ROOT
HETATM    1  O1          0      34.461 109.453  -4.991  1.00  0.00    -0.286 OA
HETATM    2  C2          0      35.545 109.705  -4.397  1.00  0.00     0.201 C 
HETATM    3  C3          0      36.526 110.519  -4.938  1.00  0.00     0.067 C 
HETATM    4  C4          0      37.752 110.698  -4.309  1.00  0.00     0.103 C 
HETATM    5  O13         0      37.970 110.089  -3.156  1.00  0.00    -0.307 OA
HETATM    6  C14         0      37.087 109.277  -2.618  1.00  0.00     0.107 C 
HETATM    7  C15         0      37.444 108.346  -1.653  1.00  0.00     0.049 C 
HETATM    8  C16         0      36.575 107.329  -1.275  1.00  0.00     0.093 C 
HETATM    9  C18         0      35.228 107.599  -1.486  1.00  0.00     0.048 C 
HETATM   10  C19         0      34.837 108.558  -2.410  1.00  0.00     0.096 C 
HETATM   11  C21         0      35.786 109.255  -3.108  1.00  0.00     0.084 C 
ENDROOT
BRANCH  10  12
HETATM   12  O20         0      33.545 108.519  -2.925  1.00  0.00    -0.359 OA
HETATM   13  H20         0      33.249 107.709  -3.322  1.00  0.00     0.218 HD
ENDBRANCH  10  12
BRANCH   4  14
HETATM   14  C5          0      38.898 111.031  -5.157  1.00  0.00     0.025 C 
HETATM   15  C6          0      40.084 110.311  -5.136  1.00  0.00     0.004 C 
HETATM   16  C7          0      40.733 110.102  -6.348  1.00  0.00     0.026 C 
HETATM   17  C8          0      40.293 110.701  -7.524  1.00  0.00     0.112 C 
HETATM   18  C10         0      39.539 111.852  -7.341  1.00  0.00     0.112 C 
HETATM   19  C12         0      38.831 111.996  -6.154  1.00  0.00     0.028 C 
BRANCH  17  20
HETATM   20  O9          0      40.433 110.058  -8.741  1.00  0.00    -0.357 OA
HETATM   21  H9          0      40.266 110.474  -9.580  1.00  0.00     0.218 HD
ENDBRANCH  17  20
BRANCH  18  22
HETATM   22  O11         0      39.236 112.591  -8.476  1.00  0.00    -0.357 OA
HETATM   23  H11         0      38.452 112.344  -8.953  1.00  0.00     0.218 HD
ENDBRANCH  18  22
ENDBRANCH   4  14
BRANCH   8  24
HETATM   24  O17         0      37.036 106.031  -1.029  1.00  0.00    -0.359 OA
HETATM   25  H17         0      37.931 105.774  -1.217  1.00  0.00     0.218 HD
ENDBRANCH   8  24
TORSDOF 5
ENDMDL
MODEL 7
REMARK VINA RESULT:      -4.8      4.976      7.627
REMARK  5 active torsions:
REMARK  status: ('A' for Active; 'I' for Inactive)
REMARK    1  A    between atoms: C4_4  and  C5_5 
REMARK    2  A    between atoms: C8_8  and  O9_9 
REMARK    3  A    between atoms: C10_11  and  O11_12 
REMARK    4  A    between atoms: C16_18  and  O17_19 
REMARK    5  A    between atoms: C19_22  and  O20_23 
ROOT
HETATM    1  O1          0      34.035 112.789  -5.119  1.00  0.00    -0.286 OA
HETATM    2  C2          0      34.439 112.747  -3.925  1.00  0.00     0.201 C 
HETATM    3  C3          0      34.383 113.839  -3.075  1.00  0.00     0.067 C 
HETATM    4  C4          0      34.929 113.796  -1.797  1.00  0.00     0.103 C 
HETATM    5  O13         0      35.496 112.675  -1.387  1.00  0.00    -0.307 OA
HETATM    6  C14         0      35.610 111.623  -2.166  1.00  0.00     0.107 C 
HETATM    7  C15         0      36.528 110.616  -1.906  1.00  0.00     0.049 C 
HETATM    8  C16         0      36.823 109.644  -2.855  1.00  0.00     0.093 C 
HETATM    9  C18         0      35.823 109.419  -3.794  1.00  0.00     0.048 C 
HETATM   10  C19         0      34.860 110.387  -4.046  1.00  0.00     0.096 C 
HETATM   11  C21         0      34.886 111.566  -3.352  1.00  0.00     0.084 C 
ENDROOT
BRANCH  10  12
HETATM   12  O20         0      34.157 110.351  -5.246  1.00  0.00    -0.359 OA
HETATM   13  H20         0      33.727 111.147  -5.534  1.00  0.00     0.218 HD
ENDBRANCH  10  12
BRANCH   4  14
HETATM   14  C5          0      35.372 115.064  -1.216  1.00  0.00     0.025 C 
HETATM   15  C6          0      35.840 116.121  -1.983  1.00  0.00     0.004 C 
HETATM   16  C7          0      35.487 117.408  -1.592  1.00  0.00     0.026 C 
HETATM   17  C8          0      34.804 117.648  -0.404  1.00  0.00     0.112 C 
HETATM   18  C10         0      34.946 116.656   0.556  1.00  0.00     0.112 C 
HETATM   19  C12         0      35.216 115.360   0.132  1.00  0.00     0.028 C 
BRANCH  17  20
HETATM   20  O9          0      33.900 118.690  -0.305  1.00  0.00    -0.357 OA
HETATM   21  H9          0      34.049 119.470   0.217  1.00  0.00     0.218 HD
ENDBRANCH  17  20
BRANCH  18  22
HETATM   22  O11         0      34.445 116.929   1.821  1.00  0.00    -0.357 OA
HETATM   23  H11         0      34.666 117.774   2.198  1.00  0.00     0.218 HD
ENDBRANCH  18  22
ENDBRANCH   4  14
BRANCH   8  24
HETATM   24  O17         0      38.131 109.187  -3.049  1.00  0.00    -0.359 OA
HETATM   25  H17         0      38.330 108.262  -3.123  1.00  0.00     0.218 HD
ENDBRANCH   8  24
TORSDOF 5
ENDMDL
MODEL 8
REMARK VINA RESULT:      -4.7      4.399      7.520
REMARK  5 active torsions:
REMARK  status: ('A' for Active; 'I' for Inactive)
REMARK    1  A    between atoms: C4_4  and  C5_5 
REMARK    2  A    between atoms: C8_8  and  O9_9 
REMARK    3  A    between atoms: C10_11  and  O11_12 
REMARK    4  A    between atoms: C16_18  and  O17_19 
REMARK    5  A    between atoms: C19_22  and  O20_23 
ROOT
HETATM    1  O1          0      44.984 110.262  -1.293  1.00  0.00    -0.286 OA
HETATM    2  C2          0      44.066 110.780  -1.986  1.00  0.00     0.201 C 
HETATM    3  C3          0      43.724 112.119  -1.899  1.00  0.00     0.067 C 
HETATM    4  C4          0      42.642 112.642  -2.598  1.00  0.00     0.103 C 
HETATM    5  O13         0      41.941 111.838  -3.377  1.00  0.00    -0.307 OA
HETATM    6  C14         0      42.200 110.551  -3.467  1.00  0.00     0.107 C 
HETATM    7  C15         0      41.260 109.649  -3.943  1.00  0.00     0.049 C 
HETATM    8  C16         0      41.439 108.278  -3.800  1.00  0.00     0.093 C 
HETATM    9  C18         0      42.760 107.869  -3.668  1.00  0.00     0.048 C 
HETATM   10  C19         0      43.735 108.759  -3.239  1.00  0.00     0.096 C 
HETATM   11  C21         0      43.395 110.055  -2.959  1.00  0.00     0.084 C 
ENDROOT
BRANCH  10  12
HETATM   12  O20         0      44.919 108.264  -2.700  1.00  0.00    -0.359 OA
HETATM   13  H20         0      44.859 107.686  -1.949  1.00  0.00     0.218 HD
ENDBRANCH  10  12
BRANCH   4  14
HETATM   14  C5          0      41.987 113.822  -2.032  1.00  0.00     0.025 C 
HETATM   15  C6          0      40.844 114.385  -2.583  1.00  0.00     0.004 C 
HETATM   16  C7          0      39.879 114.872  -1.707  1.00  0.00     0.026 C 
HETATM   17  C8          0      40.098 114.923  -0.335  1.00  0.00     0.112 C 
HETATM   18  C10         0      41.435 114.947   0.039  1.00  0.00     0.112 C 
HETATM   19  C12         0      42.370 114.376  -0.817  1.00  0.00     0.028 C 
BRANCH  17  20
HETATM   20  O9          0      39.055 114.746   0.556  1.00  0.00    -0.357 OA
HETATM   21  H9          0      38.398 114.064   0.472  1.00  0.00     0.218 HD
ENDBRANCH  17  20
BRANCH  18  22
HETATM   22  O11         0      41.710 115.187   1.377  1.00  0.00    -0.357 OA
HETATM   23  H11         0      42.555 115.572   1.581  1.00  0.00     0.218 HD
ENDBRANCH  18  22
ENDBRANCH   4  14
BRANCH   8  24
HETATM   24  O17         0      40.371 107.434  -3.475  1.00  0.00    -0.359 OA
HETATM   25  H17         0      40.001 106.831  -4.109  1.00  0.00     0.218 HD
ENDBRANCH   8  24
TORSDOF 5
ENDMDL
MODEL 9
REMARK VINA RESULT:      -4.6      1.907      6.514
REMARK  5 active torsions:
REMARK  status: ('A' for Active; 'I' for Inactive)
REMARK    1  A    between atoms: C4_4  and  C5_5 
REMARK    2  A    between atoms: C8_8  and  O9_9 
REMARK    3  A    between atoms: C10_11  and  O11_12 
REMARK    4  A    between atoms: C16_18  and  O17_19 
REMARK    5  A    between atoms: C19_22  and  O20_23 
ROOT
HETATM    1  O1          0      41.103 113.341  -3.574  1.00  0.00    -0.286 OA
HETATM    2  C2          0      40.575 112.210  -3.756  1.00  0.00     0.201 C 
HETATM    3  C3          0      39.220 111.980  -3.589  1.00  0.00     0.067 C 
HETATM    4  C4          0      38.680 110.703  -3.695  1.00  0.00     0.103 C 
HETATM    5  O13         0      39.484 109.695  -3.982  1.00  0.00    -0.307 OA
HETATM    6  C14         0      40.783 109.853  -4.114  1.00  0.00     0.107 C 
HETATM    7  C15         0      41.663 108.785  -4.015  1.00  0.00     0.049 C 
HETATM    8  C16         0      43.033 108.987  -3.899  1.00  0.00     0.093 C 
HETATM    9  C18         0      43.494 110.195  -4.410  1.00  0.00     0.048 C 
HETATM   10  C19         0      42.630 111.270  -4.567  1.00  0.00     0.096 C 
HETATM   11  C21         0      41.310 111.135  -4.231  1.00  0.00     0.084 C 
ENDROOT
BRANCH  10  12
HETATM   12  O20         0      43.153 112.556  -4.652  1.00  0.00    -0.359 OA
HETATM   13  H20         0      44.079 112.649  -4.840  1.00  0.00     0.218 HD
ENDBRANCH  10  12
BRANCH   4  14
HETATM   14  C5          0      37.450 110.432  -2.948  1.00  0.00     0.025 C 
HETATM   15  C6          0      36.518 111.416  -2.651  1.00  0.00     0.004 C 
HETATM   16  C7          0      35.172 111.070  -2.712  1.00  0.00     0.026 C 
HETATM   17  C8          0      34.766 109.758  -2.930  1.00  0.00     0.112 C 
HETATM   18  C10         0      35.706 108.795  -2.584  1.00  0.00     0.112 C 
HETATM   19  C12         0      37.050 109.144  -2.614  1.00  0.00     0.028 C 
BRANCH  17  20
HETATM   20  O9          0      33.605 109.482  -3.630  1.00  0.00    -0.357 OA
HETATM   21  H9          0      32.793 109.962  -3.516  1.00  0.00     0.218 HD
ENDBRANCH  17  20
BRANCH  18  22
HETATM   22  O11         0      35.286 107.473  -2.602  1.00  0.00    -0.357 OA
HETATM   23  H11         0      34.471 107.286  -3.055  1.00  0.00     0.218 HD
ENDBRANCH  18  22
ENDBRANCH   4  14
BRANCH   8  24
HETATM   24  O17         0      43.816 108.204  -3.044  1.00  0.00    -0.359 OA
HETATM   25  H17         0      44.728 108.411  -2.873  1.00  0.00     0.218 HD
ENDBRANCH   8  24
TORSDOF 5
ENDMDL
