MODEL 1
REMARK VINA RESULT:      -4.7      0.000      0.000
REMARK  5 active torsions:
REMARK  status: ('A' for Active; 'I' for Inactive)
REMARK    1  A    between atoms: C4_4  and  C5_5 
REMARK    2  A    between atoms: C8_8  and  O9_9 
REMARK    3  A    between atoms: C10_11  and  O11_12 
REMARK    4  A    between atoms: C16_18  and  O17_19 
REMARK    5  A    between atoms: C19_22  and  O20_23 
ROOT
HETATM    1  O1          0      64.000   2.253  -0.098  1.00  0.00    -0.286 OA
HETATM    2  C2          0      64.997   1.750  -0.685  1.00  0.00     0.201 C 
HETATM    3  C3          0      66.282   2.243  -0.537  1.00  0.00     0.067 C 
HETATM    4  C4          0      67.346   1.736  -1.275  1.00  0.00     0.103 C 
HETATM    5  O13         0      67.118   0.745  -2.119  1.00  0.00    -0.307 OA
HETATM    6  C14         0      65.911   0.266  -2.324  1.00  0.00     0.107 C 
HETATM    7  C15         0      65.599  -0.467  -3.461  1.00  0.00     0.049 C 
HETATM    8  C16         0      64.281  -0.750  -3.797  1.00  0.00     0.093 C 
HETATM    9  C18         0      63.389  -0.747  -2.732  1.00  0.00     0.048 C 
HETATM   10  C19         0      63.690  -0.063  -1.562  1.00  0.00     0.096 C 
HETATM   11  C21         0      64.882   0.600  -1.451  1.00  0.00     0.084 C 
ENDROOT
BRANCH  10  12
HETATM   12  O20         0      62.659   0.301  -0.702  1.00  0.00    -0.359 OA
HETATM   13  H20         0      62.301  -0.366  -0.128  1.00  0.00     0.218 HD
ENDBRANCH  10  12
BRANCH   4  14
HETATM   14  C5          0      68.473   2.635  -1.531  1.00  0.00     0.025 C 
HETATM   15  C6          0      69.335   2.473  -2.606  1.00  0.00     0.004 C 
HETATM   16  C7          0      69.784   3.621  -3.250  1.00  0.00     0.026 C 
HETATM   17  C8          0      69.496   4.891  -2.762  1.00  0.00     0.112 C 
HETATM   18  C10         0      69.202   4.938  -1.406  1.00  0.00     0.112 C 
HETATM   19  C12         0      68.673   3.802  -0.805  1.00  0.00     0.028 C 
BRANCH  17  20
HETATM   20  O9          0      69.318   5.958  -3.625  1.00  0.00    -0.357 OA
HETATM   21  H9          0      68.595   6.027  -4.237  1.00  0.00     0.218 HD
ENDBRANCH  17  20
BRANCH  18  22
HETATM   22  O11         0      69.093   6.196  -0.830  1.00  0.00    -0.357 OA
HETATM   23  H11         0      69.668   6.385  -0.097  1.00  0.00     0.218 HD
ENDBRANCH  18  22
ENDBRANCH   4  14
BRANCH   8  24
HETATM   24  O17         0      63.841  -0.703  -5.125  1.00  0.00    -0.359 OA
HETATM   25  H17         0      63.105  -0.163  -5.388  1.00  0.00     0.218 HD
ENDBRANCH   8  24
TORSDOF 5
ENDMDL
MODEL 2
REMARK VINA RESULT:      -4.5      6.026      9.802
REMARK  5 active torsions:
REMARK  status: ('A' for Active; 'I' for Inactive)
REMARK    1  A    between atoms: C4_4  and  C5_5 
REMARK    2  A    between atoms: C8_8  and  O9_9 
REMARK    3  A    between atoms: C10_11  and  O11_12 
REMARK    4  A    between atoms: C16_18  and  O17_19 
REMARK    5  A    between atoms: C19_22  and  O20_23 
ROOT
HETATM    1  O1          0      59.906  -5.252  -9.161  1.00  0.00    -0.286 OA
HETATM    2  C2          0      61.032  -5.091  -8.615  1.00  0.00     0.201 C 
HETATM    3  C3          0      61.178  -4.774  -7.275  1.00  0.00     0.067 C 
HETATM    4  C4          0      62.424  -4.501  -6.723  1.00  0.00     0.103 C 
HETATM    5  O13         0      63.491  -4.567  -7.500  1.00  0.00    -0.307 OA
HETATM    6  C14         0      63.404  -4.826  -8.786  1.00  0.00     0.107 C 
HETATM    7  C15         0      64.429  -4.509  -9.666  1.00  0.00     0.049 C 
HETATM    8  C16         0      64.237  -4.547 -11.042  1.00  0.00     0.093 C 
HETATM    9  C18         0      63.218  -5.391 -11.469  1.00  0.00     0.048 C 
HETATM   10  C19         0      62.201  -5.765 -10.600  1.00  0.00     0.096 C 
HETATM   11  C21         0      62.212  -5.314  -9.309  1.00  0.00     0.084 C 
ENDROOT
BRANCH  10  12
HETATM   12  O20         0      60.996  -6.224 -11.122  1.00  0.00    -0.359 OA
HETATM   13  H20         0      60.289  -5.598 -11.225  1.00  0.00     0.218 HD
ENDBRANCH  10  12
BRANCH   4  14
HETATM   14  C5          0      62.459  -3.625  -5.550  1.00  0.00     0.025 C 
HETATM   15  C6          0      63.535  -3.583  -4.675  1.00  0.00     0.004 C 
HETATM   16  C7          0      63.898  -2.343  -4.159  1.00  0.00     0.026 C 
HETATM   17  C8          0      63.137  -1.204  -4.396  1.00  0.00     0.112 C 
HETATM   18  C10         0      61.808  -1.450  -4.716  1.00  0.00     0.112 C 
HETATM   19  C12         0      61.486  -2.664  -5.309  1.00  0.00     0.028 C 
BRANCH  17  20
HETATM   20  O9          0      63.737   0.038  -4.506  1.00  0.00    -0.357 OA
HETATM   21  H9          0      63.820   0.650  -3.784  1.00  0.00     0.218 HD
ENDBRANCH  17  20
BRANCH  18  22
HETATM   22  O11         0      60.963  -0.351  -4.776  1.00  0.00    -0.357 OA
HETATM   23  H11         0      60.872   0.166  -3.984  1.00  0.00     0.218 HD
ENDBRANCH  18  22
ENDBRANCH   4  14
BRANCH   8  24
HETATM   24  O17         0      64.785  -3.572 -11.882  1.00  0.00    -0.359 OA
HETATM   25  H17         0      65.190  -3.799 -12.711  1.00  0.00     0.218 HD
ENDBRANCH   8  24
TORSDOF 5
ENDMDL
MODEL 3
REMARK VINA RESULT:      -4.2      7.715     10.076
REMARK  5 active torsions:
REMARK  status: ('A' for Active; 'I' for Inactive)
REMARK    1  A    between atoms: C4_4  and  C5_5 
REMARK    2  A    between atoms: C8_8  and  O9_9 
REMARK    3  A    between atoms: C10_11  and  O11_12 
REMARK    4  A    between atoms: C16_18  and  O17_19 
REMARK    5  A    between atoms: C19_22  and  O20_23 
ROOT
HETATM    1  O1          0      70.823   5.316  -7.865  1.00  0.00    -0.286 OA
HETATM    2  C2          0      70.765   4.406  -8.737  1.00  0.00     0.201 C 
HETATM    3  C3          0      70.658   4.670 -10.092  1.00  0.00     0.067 C 
HETATM    4  C4          0      70.492   3.651 -11.022  1.00  0.00     0.103 C 
HETATM    5  O13         0      70.456   2.401 -10.595  1.00  0.00    -0.307 OA
HETATM    6  C14         0      70.515   2.097  -9.317  1.00  0.00     0.107 C 
HETATM    7  C15         0      70.085   0.869  -8.837  1.00  0.00     0.049 C 
HETATM    8  C16         0      69.910   0.647  -7.476  1.00  0.00     0.093 C 
HETATM    9  C18         0      70.662   1.469  -6.646  1.00  0.00     0.048 C 
HETATM   10  C19         0      71.148   2.684  -7.108  1.00  0.00     0.096 C 
HETATM   11  C21         0      70.899   3.068  -8.398  1.00  0.00     0.084 C 
ENDROOT
BRANCH  10  12
HETATM   12  O20         0      71.502   3.669  -6.191  1.00  0.00    -0.359 OA
HETATM   13  H20         0      71.774   4.514  -6.528  1.00  0.00     0.218 HD
ENDBRANCH  10  12
BRANCH   4  14
HETATM   14  C5          0      69.806   3.989 -12.271  1.00  0.00     0.025 C 
HETATM   15  C6          0      69.095   3.058 -13.013  1.00  0.00     0.004 C 
HETATM   16  C7          0      67.913   3.480 -13.615  1.00  0.00     0.026 C 
HETATM   17  C8          0      67.519   4.813 -13.592  1.00  0.00     0.112 C 
HETATM   18  C10         0      68.554   5.720 -13.405  1.00  0.00     0.112 C 
HETATM   19  C12         0      69.690   5.296 -12.726  1.00  0.00     0.028 C 
BRANCH  17  20
HETATM   20  O9          0      66.180   5.156 -13.548  1.00  0.00    -0.357 OA
HETATM   21  H9          0      65.806   5.889 -14.023  1.00  0.00     0.218 HD
ENDBRANCH  17  20
BRANCH  18  22
HETATM   22  O11         0      68.247   7.064 -13.563  1.00  0.00    -0.357 OA
HETATM   23  H11         0      67.567   7.280 -14.190  1.00  0.00     0.218 HD
ENDBRANCH  18  22
ENDBRANCH   4  14
BRANCH   8  24
HETATM   24  O17         0      68.827  -0.096  -6.992  1.00  0.00    -0.359 OA
HETATM   25  H17         0      68.199   0.276  -6.384  1.00  0.00     0.218 HD
ENDBRANCH   8  24
TORSDOF 5
ENDMDL
MODEL 4
REMARK VINA RESULT:      -4.2      5.871      8.614
REMARK  5 active torsions:
REMARK  status: ('A' for Active; 'I' for Inactive)
REMARK    1  A    between atoms: C4_4  and  C5_5 
REMARK    2  A    between atoms: C8_8  and  O9_9 
REMARK    3  A    between atoms: C10_11  and  O11_12 
REMARK    4  A    between atoms: C16_18  and  O17_19 
REMARK    5  A    between atoms: C19_22  and  O20_23 
ROOT
HETATM    1  O1          0      65.970  -2.206  -3.930  1.00  0.00    -0.286 OA
HETATM    2  C2          0      65.038  -2.766  -4.569  1.00  0.00     0.201 C 
HETATM    3  C3          0      65.268  -3.683  -5.581  1.00  0.00     0.067 C 
HETATM    4  C4          0      64.226  -4.208  -6.338  1.00  0.00     0.103 C 
HETATM    5  O13         0      62.990  -3.831  -6.064  1.00  0.00    -0.307 OA
HETATM    6  C14         0      62.720  -2.936  -5.139  1.00  0.00     0.107 C 
HETATM    7  C15         0      61.514  -2.251  -5.115  1.00  0.00     0.049 C 
HETATM    8  C16         0      61.333  -1.138  -4.303  1.00  0.00     0.093 C 
HETATM    9  C18         0      62.162  -1.083  -3.189  1.00  0.00     0.048 C 
HETATM   10  C19         0      63.354  -1.793  -3.161  1.00  0.00     0.096 C 
HETATM   11  C21         0      63.708  -2.568  -4.232  1.00  0.00     0.084 C 
ENDROOT
BRANCH  10  12
HETATM   12  O20         0      64.356  -1.407  -2.277  1.00  0.00    -0.359 OA
HETATM   13  H20         0      64.594  -2.010  -1.583  1.00  0.00     0.218 HD
ENDBRANCH  10  12
BRANCH   4  14
HETATM   14  C5          0      64.544  -4.650  -7.698  1.00  0.00     0.025 C 
HETATM   15  C6          0      63.579  -5.102  -8.586  1.00  0.00     0.004 C 
HETATM   16  C7          0      63.716  -4.745  -9.923  1.00  0.00     0.026 C 
HETATM   17  C8          0      64.843  -4.076 -10.388  1.00  0.00     0.112 C 
HETATM   18  C10         0      65.977  -4.236  -9.602  1.00  0.00     0.112 C 
HETATM   19  C12         0      65.810  -4.509  -8.250  1.00  0.00     0.028 C 
BRANCH  17  20
HETATM   20  O9          0      64.750  -3.167 -11.426  1.00  0.00    -0.357 OA
HETATM   21  H9          0      64.253  -3.322 -12.221  1.00  0.00     0.218 HD
ENDBRANCH  17  20
BRANCH  18  22
HETATM   22  O11         0      67.171  -3.750 -10.116  1.00  0.00    -0.357 OA
HETATM   23  H11         0      67.781  -4.389 -10.465  1.00  0.00     0.218 HD
ENDBRANCH  18  22
ENDBRANCH   4  14
BRANCH   8  24
HETATM   24  O17         0      60.625  -0.017  -4.750  1.00  0.00    -0.359 OA
HETATM   25  H17         0      60.268   0.622  -4.145  1.00  0.00     0.218 HD
ENDBRANCH   8  24
TORSDOF 5
ENDMDL
MODEL 5
REMARK VINA RESULT:      -4.1     10.306     12.215
REMARK  5 active torsions:
REMARK  status: ('A' for Active; 'I' for Inactive)
REMARK    1  A    between atoms: C4_4  and  C5_5 
REMARK    2  A    between atoms: C8_8  and  O9_9 
REMARK    3  A    between atoms: C10_11  and  O11_12 
REMARK    4  A    between atoms: C16_18  and  O17_19 
REMARK    5  A    between atoms: C19_22  and  O20_23 
ROOT
HETATM    1  O1          0      68.868  -1.879 -14.847  1.00  0.00    -0.286 OA
HETATM    2  C2          0      68.174  -0.826 -14.824  1.00  0.00     0.201 C 
HETATM    3  C3          0      68.728   0.434 -14.676  1.00  0.00     0.067 C 
HETATM    4  C4          0      67.935   1.569 -14.551  1.00  0.00     0.103 C 
HETATM    5  O13         0      66.621   1.433 -14.596  1.00  0.00    -0.307 OA
HETATM    6  C14         0      66.043   0.256 -14.697  1.00  0.00     0.107 C 
HETATM    7  C15         0      64.714   0.062 -14.349  1.00  0.00     0.049 C 
HETATM    8  C16         0      64.183  -1.215 -14.214  1.00  0.00     0.093 C 
HETATM    9  C18         0      64.842  -2.204 -14.933  1.00  0.00     0.048 C 
HETATM   10  C19         0      66.158  -2.023 -15.339  1.00  0.00     0.096 C 
HETATM   11  C21         0      66.805  -0.855 -15.042  1.00  0.00     0.084 C 
ENDROOT
BRANCH  10  12
HETATM   12  O20         0      66.932  -3.136 -15.654  1.00  0.00    -0.359 OA
HETATM   13  H20         0      66.537  -3.994 -15.558  1.00  0.00     0.218 HD
ENDBRANCH  10  12
BRANCH   4  14
HETATM   14  C5          0      68.501   2.705 -13.822  1.00  0.00     0.025 C 
HETATM   15  C6          0      67.863   3.933 -13.730  1.00  0.00     0.004 C 
HETATM   16  C7          0      67.946   4.614 -12.520  1.00  0.00     0.026 C 
HETATM   17  C8          0      68.748   4.157 -11.479  1.00  0.00     0.112 C 
HETATM   18  C10         0      69.790   3.329 -11.871  1.00  0.00     0.112 C 
HETATM   19  C12         0      69.645   2.594 -13.042  1.00  0.00     0.028 C 
BRANCH  17  20
HETATM   20  O9          0      68.379   4.356 -10.160  1.00  0.00    -0.357 OA
HETATM   21  H9          0      68.380   3.671  -9.503  1.00  0.00     0.218 HD
ENDBRANCH  17  20
BRANCH  18  22
HETATM   22  O11         0      70.728   2.998 -10.904  1.00  0.00    -0.357 OA
HETATM   23  H11         0      71.408   3.638 -10.728  1.00  0.00     0.218 HD
ENDBRANCH  18  22
ENDBRANCH   4  14
BRANCH   8  24
HETATM   24  O17         0      63.286  -1.527 -13.186  1.00  0.00    -0.359 OA
HETATM   25  H17         0      62.912  -0.855 -12.629  1.00  0.00     0.218 HD
ENDBRANCH   8  24
TORSDOF 5
ENDMDL
MODEL 6
REMARK VINA RESULT:      -4.1     12.132     13.851
REMARK  5 active torsions:
REMARK  status: ('A' for Active; 'I' for Inactive)
REMARK    1  A    between atoms: C4_4  and  C5_5 
REMARK    2  A    between atoms: C8_8  and  O9_9 
REMARK    3  A    between atoms: C10_11  and  O11_12 
REMARK    4  A    between atoms: C16_18  and  O17_19 
REMARK    5  A    between atoms: C19_22  and  O20_23 
ROOT
HETATM    1  O1          0      64.033  -0.382 -13.914  1.00  0.00    -0.286 OA
HETATM    2  C2          0      64.996  -0.226 -14.713  1.00  0.00     0.201 C 
HETATM    3  C3          0      66.108   0.540 -14.408  1.00  0.00     0.067 C 
HETATM    4  C4          0      67.108   0.780 -15.344  1.00  0.00     0.103 C 
HETATM    5  O13         0      66.994   0.243 -16.546  1.00  0.00    -0.307 OA
HETATM    6  C14         0      65.941  -0.461 -16.900  1.00  0.00     0.107 C 
HETATM    7  C15         0      65.624  -0.682 -18.232  1.00  0.00     0.049 C 
HETATM    8  C16         0      64.389  -1.200 -18.604  1.00  0.00     0.093 C 
HETATM    9  C18         0      63.749  -1.951 -17.625  1.00  0.00     0.048 C 
HETATM   10  C19         0      64.075  -1.789 -16.286  1.00  0.00     0.096 C 
HETATM   11  C21         0      65.047  -0.895 -15.927  1.00  0.00     0.084 C 
ENDROOT
BRANCH  10  12
HETATM   12  O20         0      63.168  -2.193 -15.311  1.00  0.00    -0.359 OA
HETATM   13  H20         0      63.128  -1.692 -14.505  1.00  0.00     0.218 HD
ENDBRANCH  10  12
BRANCH   4  14
HETATM   14  C5          0      67.885   2.012 -15.194  1.00  0.00     0.025 C 
HETATM   15  C6          0      68.251   2.806 -16.270  1.00  0.00     0.004 C 
HETATM   16  C7          0      68.223   4.186 -16.093  1.00  0.00     0.026 C 
HETATM   17  C8          0      67.970   4.756 -14.850  1.00  0.00     0.112 C 
HETATM   18  C10         0      68.246   3.932 -13.767  1.00  0.00     0.112 C 
HETATM   19  C12         0      68.184   2.556 -13.951  1.00  0.00     0.028 C 
BRANCH  17  20
HETATM   20  O9          0      67.299   5.962 -14.747  1.00  0.00    -0.357 OA
HETATM   21  H9          0      67.391   6.672 -15.372  1.00  0.00     0.218 HD
ENDBRANCH  17  20
BRANCH  18  22
HETATM   22  O11         0      68.192   4.512 -12.507  1.00  0.00    -0.357 OA
HETATM   23  H11         0      68.641   5.342 -12.396  1.00  0.00     0.218 HD
ENDBRANCH  18  22
ENDBRANCH   4  14
BRANCH   8  24
HETATM   24  O17         0      63.707  -0.724 -19.729  1.00  0.00    -0.359 OA
HETATM   25  H17         0      64.145  -0.213 -20.399  1.00  0.00     0.218 HD
ENDBRANCH   8  24
TORSDOF 5
ENDMDL
MODEL 7
REMARK VINA RESULT:      -4.0      8.636     10.856
REMARK  5 active torsions:
REMARK  status: ('A' for Active; 'I' for Inactive)
REMARK    1  A    between atoms: C4_4  and  C5_5 
REMARK    2  A    between atoms: C8_8  and  O9_9 
REMARK    3  A    between atoms: C10_11  and  O11_12 
REMARK    4  A    between atoms: C16_18  and  O17_19 
REMARK    5  A    between atoms: C19_22  and  O20_23 
ROOT
HETATM    1  O1          0      66.656   5.303 -11.328  1.00  0.00    -0.286 OA
HETATM    2  C2          0      67.806   4.847 -11.576  1.00  0.00     0.201 C 
HETATM    3  C3          0      68.662   4.392 -10.587  1.00  0.00     0.067 C 
HETATM    4  C4          0      69.961   3.990 -10.876  1.00  0.00     0.103 C 
HETATM    5  O13         0      70.372   4.027 -12.131  1.00  0.00    -0.307 OA
HETATM    6  C14         0      69.613   4.486 -13.102  1.00  0.00     0.107 C 
HETATM    7  C15         0      70.147   4.900 -14.314  1.00  0.00     0.049 C 
HETATM    8  C16         0      69.386   5.613 -15.232  1.00  0.00     0.093 C 
HETATM    9  C18         0      68.013   5.422 -15.130  1.00  0.00     0.048 C 
HETATM   10  C19         0      67.450   4.964 -13.947  1.00  0.00     0.096 C 
HETATM   11  C21         0      68.255   4.682 -12.877  1.00  0.00     0.084 C 
ENDROOT
BRANCH  10  12
HETATM   12  O20         0      66.098   5.188 -13.705  1.00  0.00    -0.359 OA
HETATM   13  H20         0      65.498   4.462 -13.827  1.00  0.00     0.218 HD
ENDBRANCH  10  12
BRANCH   4  14
HETATM   14  C5          0      70.953   4.108  -9.806  1.00  0.00     0.025 C 
HETATM   15  C6          0      71.840   5.170  -9.716  1.00  0.00     0.004 C 
HETATM   16  C7          0      72.131   5.663  -8.448  1.00  0.00     0.026 C 
HETATM   17  C8          0      71.662   5.037  -7.298  1.00  0.00     0.112 C 
HETATM   18  C10         0      71.349   3.694  -7.455  1.00  0.00     0.112 C 
HETATM   19  C12         0      70.979   3.245  -8.717  1.00  0.00     0.028 C 
BRANCH  17  20
HETATM   20  O9          0      71.344   5.773  -6.170  1.00  0.00    -0.357 OA
HETATM   21  H9          0      71.976   6.286  -5.679  1.00  0.00     0.218 HD
ENDBRANCH  17  20
BRANCH  18  22
HETATM   22  O11         0      71.058   2.977  -6.303  1.00  0.00    -0.357 OA
HETATM   23  H11         0      71.797   2.660  -5.796  1.00  0.00     0.218 HD
ENDBRANCH  18  22
ENDBRANCH   4  14
BRANCH   8  24
HETATM   24  O17         0      69.928   6.680 -15.958  1.00  0.00    -0.359 OA
HETATM   25  H17         0      69.507   7.530 -15.985  1.00  0.00     0.218 HD
ENDBRANCH   8  24
TORSDOF 5
ENDMDL
MODEL 8
REMARK VINA RESULT:      -3.9     13.829     15.748
REMARK  5 active torsions:
REMARK  status: ('A' for Active; 'I' for Inactive)
REMARK    1  A    between atoms: C4_4  and  C5_5 
REMARK    2  A    between atoms: C8_8  and  O9_9 
REMARK    3  A    between atoms: C10_11  and  O11_12 
REMARK    4  A    between atoms: C16_18  and  O17_19 
REMARK    5  A    between atoms: C19_22  and  O20_23 
ROOT
HETATM    1  O1          0      63.151  -4.477 -14.972  1.00  0.00    -0.286 OA
HETATM    2  C2          0      63.573  -3.895 -16.009  1.00  0.00     0.201 C 
HETATM    3  C3          0      64.890  -3.497 -16.163  1.00  0.00     0.067 C 
HETATM    4  C4          0      65.306  -2.767 -17.270  1.00  0.00     0.103 C 
HETATM    5  O13         0      64.419  -2.468 -18.203  1.00  0.00    -0.307 OA
HETATM    6  C14         0      63.149  -2.789 -18.089  1.00  0.00     0.107 C 
HETATM    7  C15         0      62.165  -2.154 -18.832  1.00  0.00     0.049 C 
HETATM    8  C16         0      60.817  -2.311 -18.529  1.00  0.00     0.093 C 
HETATM    9  C18         0      60.501  -3.484 -17.854  1.00  0.00     0.048 C 
HETATM   10  C19         0      61.472  -4.170 -17.139  1.00  0.00     0.096 C 
HETATM   11  C21         0      62.756  -3.698 -17.112  1.00  0.00     0.084 C 
ENDROOT
BRANCH  10  12
HETATM   12  O20         0      61.083  -5.057 -16.140  1.00  0.00    -0.359 OA
HETATM   13  H20         0      60.895  -5.954 -16.389  1.00  0.00     0.218 HD
ENDBRANCH  10  12
BRANCH   4  14
HETATM   14  C5          0      66.470  -1.896 -17.099  1.00  0.00     0.025 C 
HETATM   15  C6          0      66.925  -1.044 -18.096  1.00  0.00     0.004 C 
HETATM   16  C7          0      67.395   0.207 -17.710  1.00  0.00     0.026 C 
HETATM   17  C8          0      67.536   0.552 -16.370  1.00  0.00     0.112 C 
HETATM   18  C10         0      67.668  -0.526 -15.505  1.00  0.00     0.112 C 
HETATM   19  C12         0      67.114  -1.745 -15.878  1.00  0.00     0.028 C 
BRANCH  17  20
HETATM   20  O9          0      67.339   1.855 -15.949  1.00  0.00    -0.357 OA
HETATM   21  H9          0      66.762   2.470 -16.387  1.00  0.00     0.218 HD
ENDBRANCH  17  20
BRANCH  18  22
HETATM   22  O11         0      67.999  -0.238 -14.188  1.00  0.00    -0.357 OA
HETATM   23  H11         0      67.631   0.555 -13.816  1.00  0.00     0.218 HD
ENDBRANCH  18  22
ENDBRANCH   4  14
BRANCH   8  24
HETATM   24  O17         0      59.925  -1.235 -18.594  1.00  0.00    -0.359 OA
HETATM   25  H17         0      59.939  -0.618 -19.316  1.00  0.00     0.218 HD
ENDBRANCH   8  24
TORSDOF 5
ENDMDL
MODEL 9
REMARK VINA RESULT:      -3.9      2.707      7.445
REMARK  5 active torsions:
REMARK  status: ('A' for Active; 'I' for Inactive)
REMARK    1  A    between atoms: C4_4  and  C5_5 
REMARK    2  A    between atoms: C8_8  and  O9_9 
REMARK    3  A    between atoms: C10_11  and  O11_12 
REMARK    4  A    between atoms: C16_18  and  O17_19 
REMARK    5  A    between atoms: C19_22  and  O20_23 
ROOT
HETATM    1  O1          0      70.122   0.740  -6.873  1.00  0.00    -0.286 OA
HETATM    2  C2          0      69.336   0.496  -5.917  1.00  0.00     0.201 C 
HETATM    3  C3          0      68.317  -0.437  -6.003  1.00  0.00     0.067 C 
HETATM    4  C4          0      67.402  -0.614  -4.972  1.00  0.00     0.103 C 
HETATM    5  O13         0      67.529   0.117  -3.878  1.00  0.00    -0.307 OA
HETATM    6  C14         0      68.455   1.042  -3.760  1.00  0.00     0.107 C 
HETATM    7  C15         0      68.356   2.061  -2.823  1.00  0.00     0.049 C 
HETATM    8  C16         0      69.194   3.168  -2.869  1.00  0.00     0.093 C 
HETATM    9  C18         0      70.409   2.958  -3.510  1.00  0.00     0.048 C 
HETATM   10  C19         0      70.557   1.919  -4.418  1.00  0.00     0.096 C 
HETATM   11  C21         0      69.504   1.085  -4.673  1.00  0.00     0.084 C 
ENDROOT
BRANCH  10  12
HETATM   12  O20         0      71.586   1.975  -5.354  1.00  0.00    -0.359 OA
HETATM   13  H20         0      71.539   1.394  -6.103  1.00  0.00     0.218 HD
ENDBRANCH  10  12
BRANCH   4  14
HETATM   14  C5          0      66.075  -1.118  -5.332  1.00  0.00     0.025 C 
HETATM   15  C6          0      65.853  -2.425  -5.740  1.00  0.00     0.004 C 
HETATM   16  C7          0      64.687  -3.047  -5.306  1.00  0.00     0.026 C 
HETATM   17  C8          0      63.709  -2.352  -4.602  1.00  0.00     0.112 C 
HETATM   18  C10         0      63.720  -0.978  -4.798  1.00  0.00     0.112 C 
HETATM   19  C12         0      64.919  -0.370  -5.149  1.00  0.00     0.028 C 
BRANCH  17  20
HETATM   20  O9          0      62.948  -2.985  -3.635  1.00  0.00    -0.357 OA
HETATM   21  H9          0      62.046  -2.756  -3.440  1.00  0.00     0.218 HD
ENDBRANCH  17  20
BRANCH  18  22
HETATM   22  O11         0      62.655  -0.260  -4.273  1.00  0.00    -0.357 OA
HETATM   23  H11         0      62.868   0.484  -3.721  1.00  0.00     0.218 HD
ENDBRANCH  18  22
ENDBRANCH   4  14
BRANCH   8  24
HETATM   24  O17         0      68.717   4.456  -2.601  1.00  0.00    -0.359 OA
HETATM   25  H17         0      69.246   5.100  -2.146  1.00  0.00     0.218 HD
ENDBRANCH   8  24
TORSDOF 5
ENDMDL
