MODEL 1
REMARK VINA RESULT:      -6.1      0.000      0.000
REMARK  5 active torsions:
REMARK  status: ('A' for Active; 'I' for Inactive)
REMARK    1  A    between atoms: C4_4  and  C5_5 
REMARK    2  A    between atoms: C8_8  and  O9_9 
REMARK    3  A    between atoms: C10_11  and  O11_12 
REMARK    4  A    between atoms: C16_18  and  O17_19 
REMARK    5  A    between atoms: C19_22  and  O20_23 
ROOT
HETATM    1  O1          0      43.607  43.465  -9.575  1.00  0.00    -0.286 OA
HETATM    2  C2          0      43.281  44.106  -8.538  1.00  0.00     0.201 C 
HETATM    3  C3          0      44.104  45.052  -7.951  1.00  0.00     0.067 C 
HETATM    4  C4          0      43.765  45.669  -6.752  1.00  0.00     0.103 C 
HETATM    5  O13         0      42.618  45.353  -6.178  1.00  0.00    -0.307 OA
HETATM    6  C14         0      41.817  44.434  -6.674  1.00  0.00     0.107 C 
HETATM    7  C15         0      40.843  43.819  -5.901  1.00  0.00     0.049 C 
HETATM    8  C16         0      40.178  42.684  -6.347  1.00  0.00     0.093 C 
HETATM    9  C18         0      40.139  42.531  -7.728  1.00  0.00     0.048 C 
HETATM   10  C19         0      41.070  43.170  -8.535  1.00  0.00     0.096 C 
HETATM   11  C21         0      42.025  43.970  -7.968  1.00  0.00     0.084 C 
ENDROOT
BRANCH  10  12
HETATM   12  O20         0      41.302  42.688  -9.819  1.00  0.00    -0.359 OA
HETATM   13  H20         0      40.594  42.741 -10.450  1.00  0.00     0.218 HD
ENDBRANCH  10  12
BRANCH   4  14
HETATM   14  C5          0      44.863  46.152  -5.913  1.00  0.00     0.025 C 
HETATM   15  C6          0      44.753  47.272  -5.101  1.00  0.00     0.004 C 
HETATM   16  C7          0      45.373  47.228  -3.857  1.00  0.00     0.026 C 
HETATM   17  C8          0      46.187  46.164  -3.483  1.00  0.00     0.112 C 
HETATM   18  C10         0      46.730  45.451  -4.543  1.00  0.00     0.112 C 
HETATM   19  C12         0      46.046  45.441  -5.753  1.00  0.00     0.028 C 
BRANCH  17  20
HETATM   20  O9          0      46.253  45.751  -2.165  1.00  0.00    -0.357 OA
HETATM   21  H9          0      46.252  46.347  -1.424  1.00  0.00     0.218 HD
ENDBRANCH  17  20
BRANCH  18  22
HETATM   22  O11         0      47.695  44.503  -4.234  1.00  0.00    -0.357 OA
HETATM   23  H11         0      47.500  43.601  -4.462  1.00  0.00     0.218 HD
ENDBRANCH  18  22
ENDBRANCH   4  14
BRANCH   8  24
HETATM   24  O17         0      39.880  41.626  -5.481  1.00  0.00    -0.359 OA
HETATM   25  H17         0      40.283  40.771  -5.580  1.00  0.00     0.218 HD
ENDBRANCH   8  24
TORSDOF 5
ENDMDL
MODEL 2
REMARK VINA RESULT:      -5.7      9.387     11.772
REMARK  5 active torsions:
REMARK  status: ('A' for Active; 'I' for Inactive)
REMARK    1  A    between atoms: C4_4  and  C5_5 
REMARK    2  A    between atoms: C8_8  and  O9_9 
REMARK    3  A    between atoms: C10_11  and  O11_12 
REMARK    4  A    between atoms: C16_18  and  O17_19 
REMARK    5  A    between atoms: C19_22  and  O20_23 
ROOT
HETATM    1  O1          0      42.658  36.964  -6.127  1.00  0.00    -0.286 OA
HETATM    2  C2          0      43.559  36.277  -6.681  1.00  0.00     0.201 C 
HETATM    3  C3          0      43.393  34.941  -7.003  1.00  0.00     0.067 C 
HETATM    4  C4          0      44.436  34.180  -7.519  1.00  0.00     0.103 C 
HETATM    5  O13         0      45.606  34.762  -7.721  1.00  0.00    -0.307 OA
HETATM    6  C14         0      45.828  36.017  -7.398  1.00  0.00     0.107 C 
HETATM    7  C15         0      47.113  36.512  -7.229  1.00  0.00     0.049 C 
HETATM    8  C16         0      47.337  37.753  -6.645  1.00  0.00     0.093 C 
HETATM    9  C18         0      46.278  38.647  -6.741  1.00  0.00     0.048 C 
HETATM   10  C19         0      44.985  38.189  -6.957  1.00  0.00     0.096 C 
HETATM   11  C21         0      44.754  36.847  -7.092  1.00  0.00     0.084 C 
ENDROOT
BRANCH  10  12
HETATM   12  O20         0      43.909  39.005  -6.622  1.00  0.00    -0.359 OA
HETATM   13  H20         0      43.997  39.568  -5.863  1.00  0.00     0.218 HD
ENDBRANCH  10  12
BRANCH   4  14
HETATM   14  C5          0      44.400  32.738  -7.271  1.00  0.00     0.025 C 
HETATM   15  C6          0      44.975  32.152  -6.153  1.00  0.00     0.004 C 
HETATM   16  C7          0      44.299  31.090  -5.562  1.00  0.00     0.026 C 
HETATM   17  C8          0      43.159  30.539  -6.138  1.00  0.00     0.112 C 
HETATM   18  C10         0      43.043  30.749  -7.506  1.00  0.00     0.112 C 
HETATM   19  C12         0      43.658  31.866  -8.058  1.00  0.00     0.028 C 
BRANCH  17  20
HETATM   20  O9          0      42.146  30.021  -5.351  1.00  0.00    -0.357 OA
HETATM   21  H9          0      41.686  29.213  -5.548  1.00  0.00     0.218 HD
ENDBRANCH  17  20
BRANCH  18  22
HETATM   22  O11         0      42.029  30.065  -8.162  1.00  0.00    -0.357 OA
HETATM   23  H11         0      41.972  29.129  -8.007  1.00  0.00     0.218 HD
ENDBRANCH  18  22
ENDBRANCH   4  14
BRANCH   8  24
HETATM   24  O17         0      48.394  37.958  -5.751  1.00  0.00    -0.359 OA
HETATM   25  H17         0      48.479  38.763  -5.255  1.00  0.00     0.218 HD
ENDBRANCH   8  24
TORSDOF 5
ENDMDL
MODEL 3
REMARK VINA RESULT:      -5.1      9.510     10.860
REMARK  5 active torsions:
REMARK  status: ('A' for Active; 'I' for Inactive)
REMARK    1  A    between atoms: C4_4  and  C5_5 
REMARK    2  A    between atoms: C8_8  and  O9_9 
REMARK    3  A    between atoms: C10_11  and  O11_12 
REMARK    4  A    between atoms: C16_18  and  O17_19 
REMARK    5  A    between atoms: C19_22  and  O20_23 
ROOT
HETATM    1  O1          0      45.497  32.463  -5.059  1.00  0.00    -0.286 OA
HETATM    2  C2          0      45.159  32.915  -6.188  1.00  0.00     0.201 C 
HETATM    3  C3          0      45.640  34.110  -6.693  1.00  0.00     0.067 C 
HETATM    4  C4          0      45.172  34.635  -7.893  1.00  0.00     0.103 C 
HETATM    5  O13         0      44.261  33.958  -8.569  1.00  0.00    -0.307 OA
HETATM    6  C14         0      43.744  32.837  -8.117  1.00  0.00     0.107 C 
HETATM    7  C15         0      42.539  32.343  -8.595  1.00  0.00     0.049 C 
HETATM    8  C16         0      41.875  31.309  -7.946  1.00  0.00     0.093 C 
HETATM    9  C18         0      42.684  30.483  -7.176  1.00  0.00     0.048 C 
HETATM   10  C19         0      43.917  30.930  -6.719  1.00  0.00     0.096 C 
HETATM   11  C21         0      44.346  32.188  -7.044  1.00  0.00     0.084 C 
ENDROOT
BRANCH  10  12
HETATM   12  O20         0      44.506  30.302  -5.626  1.00  0.00    -0.359 OA
HETATM   13  H20         0      45.044  30.828  -5.048  1.00  0.00     0.218 HD
ENDBRANCH  10  12
BRANCH   4  14
HETATM   14  C5          0      45.239  36.088  -8.059  1.00  0.00     0.025 C 
HETATM   15  C6          0      44.271  36.812  -8.740  1.00  0.00     0.004 C 
HETATM   16  C7          0      43.922  38.059  -8.231  1.00  0.00     0.026 C 
HETATM   17  C8          0      44.603  38.627  -7.161  1.00  0.00     0.112 C 
HETATM   18  C10         0      45.895  38.151  -6.977  1.00  0.00     0.112 C 
HETATM   19  C12         0      46.194  36.868  -7.420  1.00  0.00     0.028 C 
BRANCH  17  20
HETATM   20  O9          0      43.946  39.436  -6.250  1.00  0.00    -0.357 OA
HETATM   21  H9          0      44.156  39.467  -5.324  1.00  0.00     0.218 HD
ENDBRANCH  17  20
BRANCH  18  22
HETATM   22  O11         0      46.683  38.814  -6.048  1.00  0.00    -0.357 OA
HETATM   23  H11         0      46.311  38.944  -5.183  1.00  0.00     0.218 HD
ENDBRANCH  18  22
ENDBRANCH   4  14
BRANCH   8  24
HETATM   24  O17         0      40.482  31.311  -7.808  1.00  0.00    -0.359 OA
HETATM   25  H17         0      39.954  32.050  -8.087  1.00  0.00     0.218 HD
ENDBRANCH   8  24
TORSDOF 5
ENDMDL
MODEL 4
REMARK VINA RESULT:      -5.0      2.606      6.556
REMARK  5 active torsions:
REMARK  status: ('A' for Active; 'I' for Inactive)
REMARK    1  A    between atoms: C4_4  and  C5_5 
REMARK    2  A    between atoms: C8_8  and  O9_9 
REMARK    3  A    between atoms: C10_11  and  O11_12 
REMARK    4  A    between atoms: C16_18  and  O17_19 
REMARK    5  A    between atoms: C19_22  and  O20_23 
ROOT
HETATM    1  O1          0      44.182  45.394  -4.868  1.00  0.00    -0.286 OA
HETATM    2  C2          0      43.747  45.449  -6.051  1.00  0.00     0.201 C 
HETATM    3  C3          0      42.938  44.467  -6.599  1.00  0.00     0.067 C 
HETATM    4  C4          0      42.557  44.501  -7.936  1.00  0.00     0.103 C 
HETATM    5  O13         0      42.964  45.509  -8.687  1.00  0.00    -0.307 OA
HETATM    6  C14         0      43.762  46.446  -8.226  1.00  0.00     0.107 C 
HETATM    7  C15         0      44.503  47.257  -9.074  1.00  0.00     0.049 C 
HETATM    8  C16         0      45.526  48.064  -8.590  1.00  0.00     0.093 C 
HETATM    9  C18         0      45.413  48.415  -7.250  1.00  0.00     0.048 C 
HETATM   10  C19         0      44.642  47.651  -6.384  1.00  0.00     0.096 C 
HETATM   11  C21         0      43.975  46.554  -6.856  1.00  0.00     0.084 C 
ENDROOT
BRANCH  10  12
HETATM   12  O20         0      44.875  47.734  -5.014  1.00  0.00    -0.359 OA
HETATM   13  H20         0      45.615  48.249  -4.719  1.00  0.00     0.218 HD
ENDBRANCH  10  12
BRANCH   4  14
HETATM   14  C5          0      42.253  43.221  -8.578  1.00  0.00     0.025 C 
HETATM   15  C6          0      42.656  42.913  -9.869  1.00  0.00     0.004 C 
HETATM   16  C7          0      43.072  41.610 -10.121  1.00  0.00     0.026 C 
HETATM   17  C8          0      42.967  40.611  -9.159  1.00  0.00     0.112 C 
HETATM   18  C10         0      42.008  40.846  -8.182  1.00  0.00     0.112 C 
HETATM   19  C12         0      41.672  42.163  -7.891  1.00  0.00     0.028 C 
BRANCH  17  20
HETATM   20  O9          0      43.899  39.591  -9.091  1.00  0.00    -0.357 OA
HETATM   21  H9          0      44.693  39.635  -8.571  1.00  0.00     0.218 HD
ENDBRANCH  17  20
BRANCH  18  22
HETATM   22  O11         0      41.730  39.803  -7.311  1.00  0.00    -0.357 OA
HETATM   23  H11         0      42.162  39.822  -6.465  1.00  0.00     0.218 HD
ENDBRANCH  18  22
ENDBRANCH   4  14
BRANCH   8  24
HETATM   24  O17         0      46.726  48.220  -9.293  1.00  0.00    -0.359 OA
HETATM   25  H17         0      46.738  48.425 -10.221  1.00  0.00     0.218 HD
ENDBRANCH   8  24
TORSDOF 5
ENDMDL
MODEL 5
REMARK VINA RESULT:      -5.0      6.247      8.427
REMARK  5 active torsions:
REMARK  status: ('A' for Active; 'I' for Inactive)
REMARK    1  A    between atoms: C4_4  and  C5_5 
REMARK    2  A    between atoms: C8_8  and  O9_9 
REMARK    3  A    between atoms: C10_11  and  O11_12 
REMARK    4  A    between atoms: C16_18  and  O17_19 
REMARK    5  A    between atoms: C19_22  and  O20_23 
ROOT
HETATM    1  O1          0      45.875  38.542  -6.981  1.00  0.00    -0.286 OA
HETATM    2  C2          0      44.751  37.989  -7.133  1.00  0.00     0.201 C 
HETATM    3  C3          0      43.585  38.704  -7.345  1.00  0.00     0.067 C 
HETATM    4  C4          0      42.346  38.077  -7.407  1.00  0.00     0.103 C 
HETATM    5  O13         0      42.293  36.763  -7.278  1.00  0.00    -0.307 OA
HETATM    6  C14         0      43.365  36.040  -7.037  1.00  0.00     0.107 C 
HETATM    7  C15         0      43.280  34.759  -6.512  1.00  0.00     0.049 C 
HETATM    8  C16         0      44.404  34.103  -6.024  1.00  0.00     0.093 C 
HETATM    9  C18         0      45.613  34.534  -6.557  1.00  0.00     0.048 C 
HETATM   10  C19         0      45.721  35.793  -7.132  1.00  0.00     0.096 C 
HETATM   11  C21         0      44.625  36.609  -7.190  1.00  0.00     0.084 C 
ENDROOT
BRANCH  10  12
HETATM   12  O20         0      46.978  36.378  -7.257  1.00  0.00    -0.359 OA
HETATM   13  H20         0      47.161  37.154  -6.742  1.00  0.00     0.218 HD
ENDBRANCH  10  12
BRANCH   4  14
HETATM   14  C5          0      41.175  38.870  -7.030  1.00  0.00     0.025 C 
HETATM   15  C6          0      40.597  38.807  -5.771  1.00  0.00     0.004 C 
HETATM   16  C7          0      40.123  39.993  -5.219  1.00  0.00     0.026 C 
HETATM   17  C8          0      40.100  41.178  -5.947  1.00  0.00     0.112 C 
HETATM   18  C10         0      40.088  41.011  -7.325  1.00  0.00     0.112 C 
HETATM   19  C12         0      40.646  39.854  -7.855  1.00  0.00     0.028 C 
BRANCH  17  20
HETATM   20  O9          0      40.290  42.397  -5.322  1.00  0.00    -0.357 OA
HETATM   21  H9          0      41.099  42.894  -5.368  1.00  0.00     0.218 HD
ENDBRANCH  17  20
BRANCH  18  22
HETATM   22  O11         0      39.875  42.147  -8.093  1.00  0.00    -0.357 OA
HETATM   23  H11         0      40.370  42.924  -7.859  1.00  0.00     0.218 HD
ENDBRANCH  18  22
ENDBRANCH   4  14
BRANCH   8  24
HETATM   24  O17         0      44.348  33.326  -4.862  1.00  0.00    -0.359 OA
HETATM   25  H17         0      44.712  33.631  -4.039  1.00  0.00     0.218 HD
ENDBRANCH   8  24
TORSDOF 5
ENDMDL
MODEL 6
REMARK VINA RESULT:      -4.8      7.376      9.343
REMARK  5 active torsions:
REMARK  status: ('A' for Active; 'I' for Inactive)
REMARK    1  A    between atoms: C4_4  and  C5_5 
REMARK    2  A    between atoms: C8_8  and  O9_9 
REMARK    3  A    between atoms: C10_11  and  O11_12 
REMARK    4  A    between atoms: C16_18  and  O17_19 
REMARK    5  A    between atoms: C19_22  and  O20_23 
ROOT
HETATM    1  O1          0      42.724  38.273  -9.725  1.00  0.00    -0.286 OA
HETATM    2  C2          0      43.044  37.862  -8.575  1.00  0.00     0.201 C 
HETATM    3  C3          0      43.686  36.654  -8.361  1.00  0.00     0.067 C 
HETATM    4  C4          0      43.935  36.178  -7.079  1.00  0.00     0.103 C 
HETATM    5  O13         0      43.563  36.913  -6.046  1.00  0.00    -0.307 OA
HETATM    6  C14         0      42.917  38.049  -6.193  1.00  0.00     0.107 C 
HETATM    7  C15         0      42.186  38.613  -5.157  1.00  0.00     0.049 C 
HETATM    8  C16         0      41.306  39.665  -5.384  1.00  0.00     0.093 C 
HETATM    9  C18         0      41.587  40.434  -6.507  1.00  0.00     0.048 C 
HETATM   10  C19         0      42.356  39.917  -7.541  1.00  0.00     0.096 C 
HETATM   11  C21         0      42.854  38.646  -7.447  1.00  0.00     0.084 C 
ENDROOT
BRANCH  10  12
HETATM   12  O20         0      42.271  40.492  -8.805  1.00  0.00    -0.359 OA
HETATM   13  H20         0      43.073  40.796  -9.211  1.00  0.00     0.218 HD
ENDBRANCH  10  12
BRANCH   4  14
HETATM   14  C5          0      44.037  34.727  -6.911  1.00  0.00     0.025 C 
HETATM   15  C6          0      45.111  33.989  -7.386  1.00  0.00     0.004 C 
HETATM   16  C7          0      45.570  32.938  -6.598  1.00  0.00     0.026 C 
HETATM   17  C8          0      44.901  32.547  -5.443  1.00  0.00     0.112 C 
HETATM   18  C10         0      43.558  32.896  -5.404  1.00  0.00     0.112 C 
HETATM   19  C12         0      43.142  34.003  -6.135  1.00  0.00     0.028 C 
BRANCH  17  20
HETATM   20  O9          0      45.596  32.047  -4.356  1.00  0.00    -0.357 OA
HETATM   21  H9          0      46.434  32.386  -4.064  1.00  0.00     0.218 HD
ENDBRANCH  17  20
BRANCH  18  22
HETATM   22  O11         0      42.801  32.369  -4.367  1.00  0.00    -0.357 OA
HETATM   23  H11         0      41.942  32.031  -4.591  1.00  0.00     0.218 HD
ENDBRANCH  18  22
ENDBRANCH   4  14
BRANCH   8  24
HETATM   24  O17         0      40.065  39.730  -4.740  1.00  0.00    -0.359 OA
HETATM   25  H17         0      39.336  40.215  -5.109  1.00  0.00     0.218 HD
ENDBRANCH   8  24
TORSDOF 5
ENDMDL
MODEL 7
REMARK VINA RESULT:      -4.8      3.893      5.799
REMARK  5 active torsions:
REMARK  status: ('A' for Active; 'I' for Inactive)
REMARK    1  A    between atoms: C4_4  and  C5_5 
REMARK    2  A    between atoms: C8_8  and  O9_9 
REMARK    3  A    between atoms: C10_11  and  O11_12 
REMARK    4  A    between atoms: C16_18  and  O17_19 
REMARK    5  A    between atoms: C19_22  and  O20_23 
ROOT
HETATM    1  O1          0      43.878  38.171  -7.085  1.00  0.00    -0.286 OA
HETATM    2  C2          0      42.815  38.788  -6.797  1.00  0.00     0.201 C 
HETATM    3  C3          0      42.457  39.984  -7.395  1.00  0.00     0.067 C 
HETATM    4  C4          0      41.334  40.695  -6.987  1.00  0.00     0.103 C 
HETATM    5  O13         0      40.586  40.197  -6.018  1.00  0.00    -0.307 OA
HETATM    6  C14         0      40.901  39.085  -5.392  1.00  0.00     0.107 C 
HETATM    7  C15         0      40.373  38.771  -4.148  1.00  0.00     0.049 C 
HETATM    8  C16         0      40.896  37.735  -3.383  1.00  0.00     0.093 C 
HETATM    9  C18         0      41.553  36.746  -4.104  1.00  0.00     0.048 C 
HETATM   10  C19         0      42.053  37.013  -5.372  1.00  0.00     0.096 C 
HETATM   11  C21         0      41.882  38.253  -5.923  1.00  0.00     0.084 C 
ENDROOT
BRANCH  10  12
HETATM   12  O20         0      43.057  36.201  -5.892  1.00  0.00    -0.359 OA
HETATM   13  H20         0      43.800  36.000  -5.335  1.00  0.00     0.218 HD
ENDBRANCH  10  12
BRANCH   4  14
HETATM   14  C5          0      41.347  42.144  -7.194  1.00  0.00     0.025 C 
HETATM   15  C6          0      40.533  43.013  -6.482  1.00  0.00     0.004 C 
HETATM   16  C7          0      41.072  44.238  -6.104  1.00  0.00     0.026 C 
HETATM   17  C8          0      42.331  44.644  -6.533  1.00  0.00     0.112 C 
HETATM   18  C10         0      42.771  44.033  -7.700  1.00  0.00     0.112 C 
HETATM   19  C12         0      42.279  42.771  -8.010  1.00  0.00     0.028 C 
BRANCH  17  20
HETATM   20  O9          0      43.136  45.428  -5.726  1.00  0.00    -0.357 OA
HETATM   21  H9          0      43.912  45.881  -6.035  1.00  0.00     0.218 HD
ENDBRANCH  17  20
BRANCH  18  22
HETATM   22  O11         0      43.931  44.535  -8.273  1.00  0.00    -0.357 OA
HETATM   23  H11         0      44.734  44.439  -7.774  1.00  0.00     0.218 HD
ENDBRANCH  18  22
ENDBRANCH   4  14
BRANCH   8  24
HETATM   24  O17         0      41.042  37.855  -1.996  1.00  0.00    -0.359 OA
HETATM   25  H17         0      41.321  37.123  -1.459  1.00  0.00     0.218 HD
ENDBRANCH   8  24
TORSDOF 5
ENDMDL
MODEL 8
REMARK VINA RESULT:      -4.7      6.645      8.860
REMARK  5 active torsions:
REMARK  status: ('A' for Active; 'I' for Inactive)
REMARK    1  A    between atoms: C4_4  and  C5_5 
REMARK    2  A    between atoms: C8_8  and  O9_9 
REMARK    3  A    between atoms: C10_11  and  O11_12 
REMARK    4  A    between atoms: C16_18  and  O17_19 
REMARK    5  A    between atoms: C19_22  and  O20_23 
ROOT
HETATM    1  O1          0      41.252  34.550  -4.821  1.00  0.00    -0.286 OA
HETATM    2  C2          0      41.975  35.472  -5.288  1.00  0.00     0.201 C 
HETATM    3  C3          0      41.545  36.784  -5.389  1.00  0.00     0.067 C 
HETATM    4  C4          0      42.323  37.760  -6.001  1.00  0.00     0.103 C 
HETATM    5  O13         0      43.509  37.421  -6.476  1.00  0.00    -0.307 OA
HETATM    6  C14         0      43.949  36.183  -6.439  1.00  0.00     0.107 C 
HETATM    7  C15         0      44.974  35.746  -7.266  1.00  0.00     0.049 C 
HETATM    8  C16         0      45.261  34.394  -7.407  1.00  0.00     0.093 C 
HETATM    9  C18         0      44.872  33.597  -6.338  1.00  0.00     0.048 C 
HETATM   10  C19         0      43.881  34.023  -5.463  1.00  0.00     0.096 C 
HETATM   11  C21         0      43.295  35.246  -5.646  1.00  0.00     0.084 C 
ENDROOT
BRANCH  10  12
HETATM   12  O20         0      43.204  33.084  -4.692  1.00  0.00    -0.359 OA
HETATM   13  H20         0      43.668  32.687  -3.964  1.00  0.00     0.218 HD
ENDBRANCH  10  12
BRANCH   4  14
HETATM   14  C5          0      41.622  38.897  -6.601  1.00  0.00     0.025 C 
HETATM   15  C6          0      40.431  39.397  -6.096  1.00  0.00     0.004 C 
HETATM   16  C7          0      40.252  40.777  -6.113  1.00  0.00     0.026 C 
HETATM   17  C8          0      41.165  41.623  -6.733  1.00  0.00     0.112 C 
HETATM   18  C10         0      41.939  41.020  -7.716  1.00  0.00     0.112 C 
HETATM   19  C12         0      42.172  39.653  -7.628  1.00  0.00     0.028 C 
BRANCH  17  20
HETATM   20  O9          0      41.404  42.893  -6.238  1.00  0.00    -0.357 OA
HETATM   21  H9          0      41.794  43.593  -6.748  1.00  0.00     0.218 HD
ENDBRANCH  17  20
BRANCH  18  22
HETATM   22  O11         0      42.729  41.855  -8.493  1.00  0.00    -0.357 OA
HETATM   23  H11         0      42.632  41.785  -9.436  1.00  0.00     0.218 HD
ENDBRANCH  18  22
ENDBRANCH   4  14
BRANCH   8  24
HETATM   24  O17         0      45.596  33.845  -8.650  1.00  0.00    -0.359 OA
HETATM   25  H17         0      44.999  33.277  -9.122  1.00  0.00     0.218 HD
ENDBRANCH   8  24
TORSDOF 5
ENDMDL
MODEL 9
REMARK VINA RESULT:      -4.7      8.057      9.919
REMARK  5 active torsions:
REMARK  status: ('A' for Active; 'I' for Inactive)
REMARK    1  A    between atoms: C4_4  and  C5_5 
REMARK    2  A    between atoms: C8_8  and  O9_9 
REMARK    3  A    between atoms: C10_11  and  O11_12 
REMARK    4  A    between atoms: C16_18  and  O17_19 
REMARK    5  A    between atoms: C19_22  and  O20_23 
ROOT
HETATM    1  O1          0      46.221  34.891  -6.355  1.00  0.00    -0.286 OA
HETATM    2  C2          0      44.985  34.899  -6.604  1.00  0.00     0.201 C 
HETATM    3  C3          0      44.339  35.987  -7.167  1.00  0.00     0.067 C 
HETATM    4  C4          0      42.960  36.008  -7.335  1.00  0.00     0.103 C 
HETATM    5  O13         0      42.258  34.952  -6.964  1.00  0.00    -0.307 OA
HETATM    6  C14         0      42.816  33.908  -6.390  1.00  0.00     0.107 C 
HETATM    7  C15         0      42.076  32.997  -5.651  1.00  0.00     0.049 C 
HETATM    8  C16         0      42.694  32.051  -4.843  1.00  0.00     0.093 C 
HETATM    9  C18         0      43.993  31.722  -5.213  1.00  0.00     0.048 C 
HETATM   10  C19         0      44.746  32.589  -5.992  1.00  0.00     0.096 C 
HETATM   11  C21         0      44.200  33.771  -6.413  1.00  0.00     0.084 C 
ENDROOT
BRANCH  10  12
HETATM   12  O20         0      46.133  32.475  -5.991  1.00  0.00    -0.359 OA
HETATM   13  H20         0      46.522  31.781  -5.472  1.00  0.00     0.218 HD
ENDBRANCH  10  12
BRANCH   4  14
HETATM   14  C5          0      42.307  37.319  -7.348  1.00  0.00     0.025 C 
HETATM   15  C6          0      40.930  37.472  -7.418  1.00  0.00     0.004 C 
HETATM   16  C7          0      40.356  38.493  -6.667  1.00  0.00     0.026 C 
HETATM   17  C8          0      41.134  39.416  -5.976  1.00  0.00     0.112 C 
HETATM   18  C10         0      42.424  39.568  -6.466  1.00  0.00     0.112 C 
HETATM   19  C12         0      43.006  38.500  -7.139  1.00  0.00     0.028 C 
BRANCH  17  20
HETATM   20  O9          0      40.697  39.957  -4.780  1.00  0.00    -0.357 OA
HETATM   21  H9          0      40.469  39.438  -4.018  1.00  0.00     0.218 HD
ENDBRANCH  17  20
BRANCH  18  22
HETATM   22  O11         0      43.179  40.606  -5.937  1.00  0.00    -0.357 OA
HETATM   23  H11         0      43.024  41.474  -6.292  1.00  0.00     0.218 HD
ENDBRANCH  18  22
ENDBRANCH   4  14
BRANCH   8  24
HETATM   24  O17         0      42.183  31.722  -3.582  1.00  0.00    -0.359 OA
HETATM   25  H17         0      42.582  32.044  -2.782  1.00  0.00     0.218 HD
ENDBRANCH   8  24
TORSDOF 5
ENDMDL
