MODEL 1
REMARK VINA RESULT:      -4.8      0.000      0.000
REMARK  5 active torsions:
REMARK  status: ('A' for Active; 'I' for Inactive)
REMARK    1  A    between atoms: C4_4  and  C5_5 
REMARK    2  A    between atoms: C8_8  and  O9_9 
REMARK    3  A    between atoms: C10_11  and  O11_12 
REMARK    4  A    between atoms: C16_18  and  O17_19 
REMARK    5  A    between atoms: C19_22  and  O20_23 
ROOT
HETATM    1  O1          0      44.390  48.987 -25.345  1.00  0.00    -0.286 OA
HETATM    2  C2          0      44.948  48.346 -24.413  1.00  0.00     0.201 C 
HETATM    3  C3          0      44.675  47.014 -24.149  1.00  0.00     0.067 C 
HETATM    4  C4          0      45.227  46.361 -23.053  1.00  0.00     0.103 C 
HETATM    5  O13         0      46.047  47.029 -22.262  1.00  0.00    -0.307 OA
HETATM    6  C14         0      46.311  48.305 -22.446  1.00  0.00     0.107 C 
HETATM    7  C15         0      46.826  49.098 -21.431  1.00  0.00     0.049 C 
HETATM    8  C16         0      46.863  50.483 -21.545  1.00  0.00     0.093 C 
HETATM    9  C18         0      46.875  50.963 -22.849  1.00  0.00     0.048 C 
HETATM   10  C19         0      46.411  50.178 -23.895  1.00  0.00     0.096 C 
HETATM   11  C21         0      45.952  48.914 -23.643  1.00  0.00     0.084 C 
ENDROOT
BRANCH  10  12
HETATM   12  O20         0      46.021  50.789 -25.083  1.00  0.00    -0.359 OA
HETATM   13  H20         0      45.101  50.763 -25.316  1.00  0.00     0.218 HD
ENDBRANCH  10  12
BRANCH   4  14
HETATM   14  C5          0      44.477  45.232 -22.499  1.00  0.00     0.025 C 
HETATM   15  C6          0      43.657  45.348 -21.386  1.00  0.00     0.004 C 
HETATM   16  C7          0      42.465  44.631 -21.387  1.00  0.00     0.026 C 
HETATM   17  C8          0      42.160  43.724 -22.396  1.00  0.00     0.112 C 
HETATM   18  C10         0      43.261  43.222 -23.077  1.00  0.00     0.112 C 
HETATM   19  C12         0      44.412  43.998 -23.133  1.00  0.00     0.028 C 
BRANCH  17  20
HETATM   20  O9          0      40.851  43.527 -22.800  1.00  0.00    -0.357 OA
HETATM   21  H9          0      40.412  42.685 -22.775  1.00  0.00     0.218 HD
ENDBRANCH  17  20
BRANCH  18  22
HETATM   22  O11         0      43.031  42.178 -23.961  1.00  0.00    -0.357 OA
HETATM   23  H11         0      43.043  41.298 -23.601  1.00  0.00     0.218 HD
ENDBRANCH  18  22
ENDBRANCH   4  14
BRANCH   8  24
HETATM   24  O17         0      46.568  51.313 -20.458  1.00  0.00    -0.359 OA
HETATM   25  H17         0      47.240  51.593 -19.848  1.00  0.00     0.218 HD
ENDBRANCH   8  24
TORSDOF 5
ENDMDL
MODEL 2
REMARK VINA RESULT:      -4.7      2.425      6.927
REMARK  5 active torsions:
REMARK  status: ('A' for Active; 'I' for Inactive)
REMARK    1  A    between atoms: C4_4  and  C5_5 
REMARK    2  A    between atoms: C8_8  and  O9_9 
REMARK    3  A    between atoms: C10_11  and  O11_12 
REMARK    4  A    between atoms: C16_18  and  O17_19 
REMARK    5  A    between atoms: C19_22  and  O20_23 
ROOT
HETATM    1  O1          0      44.475  46.354 -22.736  1.00  0.00    -0.286 OA
HETATM    2  C2          0      44.990  47.264 -23.443  1.00  0.00     0.201 C 
HETATM    3  C3          0      45.885  48.191 -22.938  1.00  0.00     0.067 C 
HETATM    4  C4          0      46.358  49.244 -23.712  1.00  0.00     0.103 C 
HETATM    5  O13         0      45.952  49.343 -24.966  1.00  0.00    -0.307 OA
HETATM    6  C14         0      45.074  48.512 -25.483  1.00  0.00     0.107 C 
HETATM    7  C15         0      44.353  48.828 -26.626  1.00  0.00     0.049 C 
HETATM    8  C16         0      43.257  48.070 -27.021  1.00  0.00     0.093 C 
HETATM    9  C18         0      43.257  46.757 -26.566  1.00  0.00     0.048 C 
HETATM   10  C19         0      44.004  46.396 -25.453  1.00  0.00     0.096 C 
HETATM   11  C21         0      44.760  47.337 -24.808  1.00  0.00     0.084 C 
ENDROOT
BRANCH  10  12
HETATM   12  O20         0      43.672  45.238 -24.757  1.00  0.00    -0.359 OA
HETATM   13  H20         0      44.380  44.696 -24.431  1.00  0.00     0.218 HD
ENDBRANCH  10  12
BRANCH   4  14
HETATM   14  C5          0      46.773  50.459 -23.008  1.00  0.00     0.025 C 
HETATM   15  C6          0      47.487  51.477 -23.623  1.00  0.00     0.004 C 
HETATM   16  C7          0      47.171  52.787 -23.276  1.00  0.00     0.026 C 
HETATM   17  C8          0      46.271  53.074 -22.255  1.00  0.00     0.112 C 
HETATM   18  C10         0      46.114  52.060 -21.319  1.00  0.00     0.112 C 
HETATM   19  C12         0      46.355  50.751 -21.716  1.00  0.00     0.028 C 
BRANCH  17  20
HETATM   20  O9          0      45.461  54.194 -22.318  1.00  0.00    -0.357 OA
HETATM   21  H9          0      45.656  55.012 -21.877  1.00  0.00     0.218 HD
ENDBRANCH  17  20
BRANCH  18  22
HETATM   22  O11         0      45.377  52.363 -20.183  1.00  0.00    -0.357 OA
HETATM   23  H11         0      45.770  52.968 -19.564  1.00  0.00     0.218 HD
ENDBRANCH  18  22
ENDBRANCH   4  14
BRANCH   8  24
HETATM   24  O17         0      42.103  48.671 -27.537  1.00  0.00    -0.359 OA
HETATM   25  H17         0      41.247  48.515 -27.156  1.00  0.00     0.218 HD
ENDBRANCH   8  24
TORSDOF 5
ENDMDL
MODEL 3
REMARK VINA RESULT:      -4.6      1.881      6.925
REMARK  5 active torsions:
REMARK  status: ('A' for Active; 'I' for Inactive)
REMARK    1  A    between atoms: C4_4  and  C5_5 
REMARK    2  A    between atoms: C8_8  and  O9_9 
REMARK    3  A    between atoms: C10_11  and  O11_12 
REMARK    4  A    between atoms: C16_18  and  O17_19 
REMARK    5  A    between atoms: C19_22  and  O20_23 
ROOT
HETATM    1  O1          0      42.197  44.855 -21.035  1.00  0.00    -0.286 OA
HETATM    2  C2          0      43.052  44.813 -21.962  1.00  0.00     0.201 C 
HETATM    3  C3          0      44.259  45.489 -21.901  1.00  0.00     0.067 C 
HETATM    4  C4          0      45.137  45.509 -22.978  1.00  0.00     0.103 C 
HETATM    5  O13         0      44.813  44.847 -24.075  1.00  0.00    -0.307 OA
HETATM    6  C14         0      43.663  44.220 -24.198  1.00  0.00     0.107 C 
HETATM    7  C15         0      43.148  43.876 -25.440  1.00  0.00     0.049 C 
HETATM    8  C16         0      41.833  43.450 -25.583  1.00  0.00     0.093 C 
HETATM    9  C18         0      41.270  42.893 -24.441  1.00  0.00     0.048 C 
HETATM   10  C19         0      41.789  43.179 -23.186  1.00  0.00     0.096 C 
HETATM   11  C21         0      42.876  44.002 -23.073  1.00  0.00     0.084 C 
ENDROOT
BRANCH  10  12
HETATM   12  O20         0      40.992  42.992 -22.061  1.00  0.00    -0.359 OA
HETATM   13  H20         0      40.276  43.598 -21.918  1.00  0.00     0.218 HD
ENDBRANCH  10  12
BRANCH   4  14
HETATM   14  C5          0      46.034  46.661 -23.090  1.00  0.00     0.025 C 
HETATM   15  C6          0      46.158  47.408 -24.253  1.00  0.00     0.004 C 
HETATM   16  C7          0      46.304  48.785 -24.122  1.00  0.00     0.026 C 
HETATM   17  C8          0      46.458  49.387 -22.878  1.00  0.00     0.112 C 
HETATM   18  C10         0      46.948  48.550 -21.885  1.00  0.00     0.112 C 
HETATM   19  C12         0      46.713  47.184 -21.997  1.00  0.00     0.028 C 
BRANCH  17  20
HETATM   20  O9          0      45.954  50.653 -22.636  1.00  0.00    -0.357 OA
HETATM   21  H9          0      46.256  51.436 -23.083  1.00  0.00     0.218 HD
ENDBRANCH  17  20
BRANCH  18  22
HETATM   22  O11         0      47.298  49.142 -20.680  1.00  0.00    -0.357 OA
HETATM   23  H11         0      47.679  50.011 -20.722  1.00  0.00     0.218 HD
ENDBRANCH  18  22
ENDBRANCH   4  14
BRANCH   8  24
HETATM   24  O17         0      41.048  43.858 -26.667  1.00  0.00    -0.359 OA
HETATM   25  H17         0      40.923  43.304 -27.429  1.00  0.00     0.218 HD
ENDBRANCH   8  24
TORSDOF 5
ENDMDL
MODEL 4
REMARK VINA RESULT:      -4.5      2.384      3.780
REMARK  5 active torsions:
REMARK  status: ('A' for Active; 'I' for Inactive)
REMARK    1  A    between atoms: C4_4  and  C5_5 
REMARK    2  A    between atoms: C8_8  and  O9_9 
REMARK    3  A    between atoms: C10_11  and  O11_12 
REMARK    4  A    between atoms: C16_18  and  O17_19 
REMARK    5  A    between atoms: C19_22  and  O20_23 
ROOT
HETATM    1  O1          0      50.152  50.341 -23.001  1.00  0.00    -0.286 OA
HETATM    2  C2          0      49.093  50.067 -22.373  1.00  0.00     0.201 C 
HETATM    3  C3          0      48.634  48.772 -22.205  1.00  0.00     0.067 C 
HETATM    4  C4          0      47.412  48.505 -21.598  1.00  0.00     0.103 C 
HETATM    5  O13         0      46.688  49.518 -21.156  1.00  0.00    -0.307 OA
HETATM    6  C14         0      47.060  50.768 -21.323  1.00  0.00     0.107 C 
HETATM    7  C15         0      46.157  51.818 -21.234  1.00  0.00     0.049 C 
HETATM    8  C16         0      46.494  53.098 -21.658  1.00  0.00     0.093 C 
HETATM    9  C18         0      47.855  53.378 -21.654  1.00  0.00     0.048 C 
HETATM   10  C19         0      48.787  52.350 -21.695  1.00  0.00     0.096 C 
HETATM   11  C21         0      48.362  51.049 -21.722  1.00  0.00     0.084 C 
ENDROOT
BRANCH  10  12
HETATM   12  O20         0      50.082  52.622 -22.125  1.00  0.00    -0.359 OA
HETATM   13  H20         0      50.399  53.514 -22.046  1.00  0.00     0.218 HD
ENDBRANCH  10  12
BRANCH   4  14
HETATM   14  C5          0      46.731  47.266 -21.979  1.00  0.00     0.025 C 
HETATM   15  C6          0      46.670  46.156 -21.150  1.00  0.00     0.004 C 
HETATM   16  C7          0      45.485  45.427 -21.134  1.00  0.00     0.026 C 
HETATM   17  C8          0      44.443  45.710 -22.011  1.00  0.00     0.112 C 
HETATM   18  C10         0      44.825  46.371 -23.171  1.00  0.00     0.112 C 
HETATM   19  C12         0      45.968  47.161 -23.135  1.00  0.00     0.028 C 
BRANCH  17  20
HETATM   20  O9          0      43.126  45.526 -21.630  1.00  0.00    -0.357 OA
HETATM   21  H9          0      42.640  46.143 -21.095  1.00  0.00     0.218 HD
ENDBRANCH  17  20
BRANCH  18  22
HETATM   22  O11         0      43.863  46.509 -24.162  1.00  0.00    -0.357 OA
HETATM   23  H11         0      44.019  46.050 -24.979  1.00  0.00     0.218 HD
ENDBRANCH  18  22
ENDBRANCH   4  14
BRANCH   8  24
HETATM   24  O17         0      45.579  53.903 -22.345  1.00  0.00    -0.359 OA
HETATM   25  H17         0      45.472  53.845 -23.287  1.00  0.00     0.218 HD
ENDBRANCH   8  24
TORSDOF 5
ENDMDL
MODEL 5
REMARK VINA RESULT:      -4.2      3.772      5.781
REMARK  5 active torsions:
REMARK  status: ('A' for Active; 'I' for Inactive)
REMARK    1  A    between atoms: C4_4  and  C5_5 
REMARK    2  A    between atoms: C8_8  and  O9_9 
REMARK    3  A    between atoms: C10_11  and  O11_12 
REMARK    4  A    between atoms: C16_18  and  O17_19 
REMARK    5  A    between atoms: C19_22  and  O20_23 
ROOT
HETATM    1  O1          0      49.972  52.882 -22.874  1.00  0.00    -0.286 OA
HETATM    2  C2          0      48.774  52.601 -22.597  1.00  0.00     0.201 C 
HETATM    3  C3          0      48.360  51.323 -22.263  1.00  0.00     0.067 C 
HETATM    4  C4          0      47.018  51.020 -22.062  1.00  0.00     0.103 C 
HETATM    5  O13         0      46.126  51.988 -22.176  1.00  0.00    -0.307 OA
HETATM    6  C14         0      46.460  53.210 -22.528  1.00  0.00     0.107 C 
HETATM    7  C15         0      45.529  54.106 -23.032  1.00  0.00     0.049 C 
HETATM    8  C16         0      45.924  55.294 -23.635  1.00  0.00     0.093 C 
HETATM    9  C18         0      47.170  55.767 -23.241  1.00  0.00     0.048 C 
HETATM   10  C19         0      48.109  54.906 -22.689  1.00  0.00     0.096 C 
HETATM   11  C21         0      47.800  53.585 -22.517  1.00  0.00     0.084 C 
ENDROOT
BRANCH  10  12
HETATM   12  O20         0      49.453  55.265 -22.706  1.00  0.00    -0.359 OA
HETATM   13  H20         0      49.832  55.608 -21.906  1.00  0.00     0.218 HD
ENDBRANCH  10  12
BRANCH   4  14
HETATM   14  C5          0      46.598  49.641 -22.313  1.00  0.00     0.025 C 
HETATM   15  C6          0      45.942  49.253 -23.472  1.00  0.00     0.004 C 
HETATM   16  C7          0      46.273  48.017 -24.018  1.00  0.00     0.026 C 
HETATM   17  C8          0      47.127  47.136 -23.363  1.00  0.00     0.112 C 
HETATM   18  C10         0      47.210  47.322 -21.990  1.00  0.00     0.112 C 
HETATM   19  C12         0      46.957  48.590 -21.479  1.00  0.00     0.028 C 
BRANCH  17  20
HETATM   20  O9          0      47.966  46.300 -24.078  1.00  0.00    -0.357 OA
HETATM   21  H9          0      47.765  45.393 -24.277  1.00  0.00     0.218 HD
ENDBRANCH  17  20
BRANCH  18  22
HETATM   22  O11         0      47.896  46.358 -21.266  1.00  0.00    -0.357 OA
HETATM   23  H11         0      48.461  46.666 -20.566  1.00  0.00     0.218 HD
ENDBRANCH  18  22
ENDBRANCH   4  14
BRANCH   8  24
HETATM   24  O17         0      45.281  55.780 -24.779  1.00  0.00    -0.359 OA
HETATM   25  H17         0      45.673  55.707 -25.641  1.00  0.00     0.218 HD
ENDBRANCH   8  24
TORSDOF 5
ENDMDL
MODEL 6
REMARK VINA RESULT:      -4.0      6.539     10.980
REMARK  5 active torsions:
REMARK  status: ('A' for Active; 'I' for Inactive)
REMARK    1  A    between atoms: C4_4  and  C5_5 
REMARK    2  A    between atoms: C8_8  and  O9_9 
REMARK    3  A    between atoms: C10_11  and  O11_12 
REMARK    4  A    between atoms: C16_18  and  O17_19 
REMARK    5  A    between atoms: C19_22  and  O20_23 
ROOT
HETATM    1  O1          0      50.811  53.950 -22.210  1.00  0.00    -0.286 OA
HETATM    2  C2          0      49.645  54.310 -22.533  1.00  0.00     0.201 C 
HETATM    3  C3          0      49.366  55.554 -23.071  1.00  0.00     0.067 C 
HETATM    4  C4          0      48.061  55.964 -23.322  1.00  0.00     0.103 C 
HETATM    5  O13         0      47.072  55.129 -23.056  1.00  0.00    -0.307 OA
HETATM    6  C14         0      47.279  53.951 -22.509  1.00  0.00     0.107 C 
HETATM    7  C15         0      46.265  53.253 -21.870  1.00  0.00     0.049 C 
HETATM    8  C16         0      46.539  52.142 -21.081  1.00  0.00     0.093 C 
HETATM    9  C18         0      47.721  51.481 -21.390  1.00  0.00     0.048 C 
HETATM   10  C19         0      48.739  52.135 -22.071  1.00  0.00     0.096 C 
HETATM   11  C21         0      48.570  53.437 -22.455  1.00  0.00     0.084 C 
ENDROOT
BRANCH  10  12
HETATM   12  O20         0      50.037  51.641 -21.992  1.00  0.00    -0.359 OA
HETATM   13  H20         0      50.472  51.401 -22.801  1.00  0.00     0.218 HD
ENDBRANCH  10  12
BRANCH   4  14
HETATM   14  C5          0      47.794  57.403 -23.299  1.00  0.00     0.025 C 
HETATM   15  C6          0      46.654  57.965 -23.853  1.00  0.00     0.004 C 
HETATM   16  C7          0      46.065  59.029 -23.177  1.00  0.00     0.026 C 
HETATM   17  C8          0      46.663  59.603 -22.060  1.00  0.00     0.112 C 
HETATM   18  C10         0      48.036  59.414 -21.975  1.00  0.00     0.112 C 
HETATM   19  C12         0      48.587  58.296 -22.589  1.00  0.00     0.028 C 
BRANCH  17  20
HETATM   20  O9          0      45.895  60.125 -21.034  1.00  0.00    -0.357 OA
HETATM   21  H9          0      45.258  59.620 -20.542  1.00  0.00     0.218 HD
ENDBRANCH  17  20
BRANCH  18  22
HETATM   22  O11         0      48.708  60.121 -20.988  1.00  0.00    -0.357 OA
HETATM   23  H11         0      49.133  60.929 -21.252  1.00  0.00     0.218 HD
ENDBRANCH  18  22
ENDBRANCH   4  14
BRANCH   8  24
HETATM   24  O17         0      45.865  51.920 -19.875  1.00  0.00    -0.359 OA
HETATM   25  H17         0      45.551  51.057 -19.631  1.00  0.00     0.218 HD
ENDBRANCH   8  24
TORSDOF 5
ENDMDL
MODEL 7
REMARK VINA RESULT:      -3.9      6.098      7.709
REMARK  5 active torsions:
REMARK  status: ('A' for Active; 'I' for Inactive)
REMARK    1  A    between atoms: C4_4  and  C5_5 
REMARK    2  A    between atoms: C8_8  and  O9_9 
REMARK    3  A    between atoms: C10_11  and  O11_12 
REMARK    4  A    between atoms: C16_18  and  O17_19 
REMARK    5  A    between atoms: C19_22  and  O20_23 
ROOT
HETATM    1  O1          0      49.935  55.338 -23.106  1.00  0.00    -0.286 OA
HETATM    2  C2          0      49.454  54.255 -22.673  1.00  0.00     0.201 C 
HETATM    3  C3          0      50.243  53.189 -22.277  1.00  0.00     0.067 C 
HETATM    4  C4          0      49.688  51.971 -21.901  1.00  0.00     0.103 C 
HETATM    5  O13         0      48.372  51.845 -21.906  1.00  0.00    -0.307 OA
HETATM    6  C14         0      47.579  52.814 -22.308  1.00  0.00     0.107 C 
HETATM    7  C15         0      46.268  52.572 -22.694  1.00  0.00     0.049 C 
HETATM    8  C16         0      45.520  53.539 -23.354  1.00  0.00     0.093 C 
HETATM    9  C18         0      45.926  54.849 -23.129  1.00  0.00     0.048 C 
HETATM   10  C19         0      47.216  55.124 -22.697  1.00  0.00     0.096 C 
HETATM   11  C21         0      48.091  54.096 -22.475  1.00  0.00     0.084 C 
ENDROOT
BRANCH  10  12
HETATM   12  O20         0      47.742  56.398 -22.891  1.00  0.00    -0.359 OA
HETATM   13  H20         0      48.152  56.587 -23.726  1.00  0.00     0.218 HD
ENDBRANCH  10  12
BRANCH   4  14
HETATM   14  C5          0      50.511  50.775 -22.084  1.00  0.00     0.025 C 
HETATM   15  C6          0      51.882  50.765 -21.869  1.00  0.00     0.004 C 
HETATM   16  C7          0      52.434  49.631 -21.281  1.00  0.00     0.026 C 
HETATM   17  C8          0      51.674  48.492 -21.038  1.00  0.00     0.112 C 
HETATM   18  C10         0      50.544  48.368 -21.834  1.00  0.00     0.112 C 
HETATM   19  C12         0      49.962  49.525 -22.339  1.00  0.00     0.028 C 
BRANCH  17  20
HETATM   20  O9          0      51.936  47.687 -19.944  1.00  0.00    -0.357 OA
HETATM   21  H9          0      51.261  47.323 -19.382  1.00  0.00     0.218 HD
ENDBRANCH  17  20
BRANCH  18  22
HETATM   22  O11         0      49.856  47.165 -21.766  1.00  0.00    -0.357 OA
HETATM   23  H11         0      50.041  46.605 -21.020  1.00  0.00     0.218 HD
ENDBRANCH  18  22
ENDBRANCH   4  14
BRANCH   8  24
HETATM   24  O17         0      44.663  53.205 -24.409  1.00  0.00    -0.359 OA
HETATM   25  H17         0      44.946  53.249 -25.314  1.00  0.00     0.218 HD
ENDBRANCH   8  24
TORSDOF 5
ENDMDL
MODEL 8
REMARK VINA RESULT:      -3.9      2.810      4.299
REMARK  5 active torsions:
REMARK  status: ('A' for Active; 'I' for Inactive)
REMARK    1  A    between atoms: C4_4  and  C5_5 
REMARK    2  A    between atoms: C8_8  and  O9_9 
REMARK    3  A    between atoms: C10_11  and  O11_12 
REMARK    4  A    between atoms: C16_18  and  O17_19 
REMARK    5  A    between atoms: C19_22  and  O20_23 
ROOT
HETATM    1  O1          0      46.730  51.686 -20.580  1.00  0.00    -0.286 OA
HETATM    2  C2          0      47.286  50.865 -21.360  1.00  0.00     0.201 C 
HETATM    3  C3          0      46.672  49.699 -21.784  1.00  0.00     0.067 C 
HETATM    4  C4          0      47.345  48.762 -22.560  1.00  0.00     0.103 C 
HETATM    5  O13         0      48.594  49.009 -22.912  1.00  0.00    -0.307 OA
HETATM    6  C14         0      49.236  50.082 -22.506  1.00  0.00     0.107 C 
HETATM    7  C15         0      50.621  50.157 -22.525  1.00  0.00     0.049 C 
HETATM    8  C16         0      51.299  51.176 -21.866  1.00  0.00     0.093 C 
HETATM    9  C18         0      50.564  52.339 -21.671  1.00  0.00     0.048 C 
HETATM   10  C19         0      49.176  52.308 -21.691  1.00  0.00     0.096 C 
HETATM   11  C21         0      48.526  51.126 -21.922  1.00  0.00     0.084 C 
ENDROOT
BRANCH  10  12
HETATM   12  O20         0      48.463  53.335 -21.081  1.00  0.00    -0.359 OA
HETATM   13  H20         0      48.115  54.025 -21.633  1.00  0.00     0.218 HD
ENDBRANCH  10  12
BRANCH   4  14
HETATM   14  C5          0      46.903  47.369 -22.463  1.00  0.00     0.025 C 
HETATM   15  C6          0      47.679  46.372 -21.892  1.00  0.00     0.004 C 
HETATM   16  C7          0      47.030  45.408 -21.127  1.00  0.00     0.026 C 
HETATM   17  C8          0      45.643  45.357 -21.041  1.00  0.00     0.112 C 
HETATM   18  C10         0      44.975  45.953 -22.102  1.00  0.00     0.112 C 
HETATM   19  C12         0      45.614  46.973 -22.797  1.00  0.00     0.028 C 
BRANCH  17  20
HETATM   20  O9          0      45.020  44.933 -19.881  1.00  0.00    -0.357 OA
HETATM   21  H9          0      44.083  44.796 -19.805  1.00  0.00     0.218 HD
ENDBRANCH  17  20
BRANCH  18  22
HETATM   22  O11         0      43.601  45.766 -22.164  1.00  0.00    -0.357 OA
HETATM   23  H11         0      43.223  45.630 -23.025  1.00  0.00     0.218 HD
ENDBRANCH  18  22
ENDBRANCH   4  14
BRANCH   8  24
HETATM   24  O17         0      52.485  50.929 -21.166  1.00  0.00    -0.359 OA
HETATM   25  H17         0      52.611  51.233 -20.275  1.00  0.00     0.218 HD
ENDBRANCH   8  24
TORSDOF 5
ENDMDL
MODEL 9
REMARK VINA RESULT:      -3.9      3.003      3.969
REMARK  5 active torsions:
REMARK  status: ('A' for Active; 'I' for Inactive)
REMARK    1  A    between atoms: C4_4  and  C5_5 
REMARK    2  A    between atoms: C8_8  and  O9_9 
REMARK    3  A    between atoms: C10_11  and  O11_12 
REMARK    4  A    between atoms: C16_18  and  O17_19 
REMARK    5  A    between atoms: C19_22  and  O20_23 
ROOT
HETATM    1  O1          0      49.868  50.150 -23.386  1.00  0.00    -0.286 OA
HETATM    2  C2          0      48.889  49.935 -22.620  1.00  0.00     0.201 C 
HETATM    3  C3          0      48.406  48.664 -22.358  1.00  0.00     0.067 C 
HETATM    4  C4          0      47.263  48.463 -21.592  1.00  0.00     0.103 C 
HETATM    5  O13         0      46.641  49.516 -21.091  1.00  0.00    -0.307 OA
HETATM    6  C14         0      47.036  50.745 -21.340  1.00  0.00     0.107 C 
HETATM    7  C15         0      46.192  51.833 -21.168  1.00  0.00     0.049 C 
HETATM    8  C16         0      46.520  53.087 -21.668  1.00  0.00     0.093 C 
HETATM    9  C18         0      47.880  53.311 -21.846  1.00  0.00     0.048 C 
HETATM   10  C19         0      48.759  52.244 -21.975  1.00  0.00     0.096 C 
HETATM   11  C21         0      48.286  50.962 -21.910  1.00  0.00     0.084 C 
ENDROOT
BRANCH  10  12
HETATM   12  O20         0      49.998  52.452 -22.574  1.00  0.00    -0.359 OA
HETATM   13  H20         0      50.735  51.940 -22.262  1.00  0.00     0.218 HD
ENDBRANCH  10  12
BRANCH   4  14
HETATM   14  C5          0      46.492  47.245 -21.847  1.00  0.00     0.025 C 
HETATM   15  C6          0      45.614  47.120 -22.914  1.00  0.00     0.004 C 
HETATM   16  C7          0      45.561  45.891 -23.565  1.00  0.00     0.026 C 
HETATM   17  C8          0      46.255  44.784 -23.090  1.00  0.00     0.112 C 
HETATM   18  C10         0      46.563  44.829 -21.737  1.00  0.00     0.112 C 
HETATM   19  C12         0      46.694  46.072 -21.130  1.00  0.00     0.028 C 
BRANCH  17  20
HETATM   20  O9          0      46.766  43.839 -23.963  1.00  0.00    -0.357 OA
HETATM   21  H9          0      46.683  42.902 -23.834  1.00  0.00     0.218 HD
ENDBRANCH  17  20
BRANCH  18  22
HETATM   22  O11         0      47.085  43.674 -21.172  1.00  0.00    -0.357 OA
HETATM   23  H11         0      47.014  43.586 -20.228  1.00  0.00     0.218 HD
ENDBRANCH  18  22
ENDBRANCH   4  14
BRANCH   8  24
HETATM   24  O17         0      45.556  53.913 -22.256  1.00  0.00    -0.359 OA
HETATM   25  H17         0      45.417  54.806 -21.963  1.00  0.00     0.218 HD
ENDBRANCH   8  24
TORSDOF 5
ENDMDL
