MODEL 1
REMARK VINA RESULT:      -6.2      0.000      0.000
REMARK  5 active torsions:
REMARK  status: ('A' for Active; 'I' for Inactive)
REMARK    1  A    between atoms: C4_4  and  C5_5 
REMARK    2  A    between atoms: C8_8  and  O9_9 
REMARK    3  A    between atoms: C10_11  and  O11_12 
REMARK    4  A    between atoms: C16_18  and  O17_19 
REMARK    5  A    between atoms: C19_22  and  O20_23 
ROOT
HETATM    1  O1          0      14.041  94.293 -15.087  1.00  0.00    -0.286 OA
HETATM    2  C2          0      14.479  93.145 -14.802  1.00  0.00     0.201 C 
HETATM    3  C3          0      15.548  92.564 -15.463  1.00  0.00     0.067 C 
HETATM    4  C4          0      15.945  91.258 -15.200  1.00  0.00     0.103 C 
HETATM    5  O13         0      15.293  90.570 -14.280  1.00  0.00    -0.307 OA
HETATM    6  C14         0      14.248  91.061 -13.649  1.00  0.00     0.107 C 
HETATM    7  C15         0      13.335  90.242 -13.001  1.00  0.00     0.049 C 
HETATM    8  C16         0      12.111  90.732 -12.561  1.00  0.00     0.093 C 
HETATM    9  C18         0      12.080  92.100 -12.320  1.00  0.00     0.048 C 
HETATM   10  C19         0      13.008  92.943 -12.916  1.00  0.00     0.096 C 
HETATM   11  C21         0      13.972  92.421 -13.734  1.00  0.00     0.084 C 
ENDROOT
BRANCH  10  12
HETATM   12  O20         0      12.720  94.300 -13.030  1.00  0.00    -0.359 OA
HETATM   13  H20         0      13.035  94.881 -12.348  1.00  0.00     0.218 HD
ENDBRANCH  10  12
BRANCH   4  14
HETATM   14  C5          0      16.618  90.532 -16.278  1.00  0.00     0.025 C 
HETATM   15  C6          0      17.480  91.146 -17.175  1.00  0.00     0.004 C 
HETATM   16  C7          0      18.609  90.436 -17.573  1.00  0.00     0.026 C 
HETATM   17  C8          0      18.806  89.111 -17.200  1.00  0.00     0.112 C 
HETATM   18  C10         0      17.646  88.423 -16.870  1.00  0.00     0.112 C 
HETATM   19  C12         0      16.560  89.149 -16.393  1.00  0.00     0.028 C 
BRANCH  17  20
HETATM   20  O9          0      20.080  88.618 -16.982  1.00  0.00    -0.357 OA
HETATM   21  H9          0      20.577  88.774 -16.187  1.00  0.00     0.218 HD
ENDBRANCH  17  20
BRANCH  18  22
HETATM   22  O11         0      17.761  87.054 -16.674  1.00  0.00    -0.357 OA
HETATM   23  H11         0      18.585  86.652 -16.924  1.00  0.00     0.218 HD
ENDBRANCH  18  22
ENDBRANCH   4  14
BRANCH   8  24
HETATM   24  O17         0      10.938  89.979 -12.680  1.00  0.00    -0.359 OA
HETATM   25  H17         0      10.341  89.866 -11.950  1.00  0.00     0.218 HD
ENDBRANCH   8  24
TORSDOF 5
ENDMDL
MODEL 2
REMARK VINA RESULT:      -6.2      9.861     12.914
REMARK  5 active torsions:
REMARK  status: ('A' for Active; 'I' for Inactive)
REMARK    1  A    between atoms: C4_4  and  C5_5 
REMARK    2  A    between atoms: C8_8  and  O9_9 
REMARK    3  A    between atoms: C10_11  and  O11_12 
REMARK    4  A    between atoms: C16_18  and  O17_19 
REMARK    5  A    between atoms: C19_22  and  O20_23 
ROOT
HETATM    1  O1          0      18.124  86.319 -22.919  1.00  0.00    -0.286 OA
HETATM    2  C2          0      17.356  85.774 -23.760  1.00  0.00     0.201 C 
HETATM    3  C3          0      15.977  85.805 -23.647  1.00  0.00     0.067 C 
HETATM    4  C4          0      15.158  85.110 -24.529  1.00  0.00     0.103 C 
HETATM    5  O13         0      15.719  84.422 -25.508  1.00  0.00    -0.307 OA
HETATM    6  C14         0      17.024  84.329 -25.638  1.00  0.00     0.107 C 
HETATM    7  C15         0      17.614  83.319 -26.384  1.00  0.00     0.049 C 
HETATM    8  C16         0      18.980  83.072 -26.312  1.00  0.00     0.093 C 
HETATM    9  C18         0      19.752  84.158 -25.917  1.00  0.00     0.048 C 
HETATM   10  C19         0      19.184  85.208 -25.209  1.00  0.00     0.096 C 
HETATM   11  C21         0      17.849  85.183 -24.913  1.00  0.00     0.084 C 
ENDROOT
BRANCH  10  12
HETATM   12  O20         0      20.004  86.044 -24.458  1.00  0.00    -0.359 OA
HETATM   13  H20         0      20.713  85.648 -23.967  1.00  0.00     0.218 HD
ENDBRANCH  10  12
BRANCH   4  14
HETATM   14  C5          0      13.845  84.691 -24.036  1.00  0.00     0.025 C 
HETATM   15  C6          0      13.453  83.361 -23.979  1.00  0.00     0.004 C 
HETATM   16  C7          0      12.696  82.959 -22.884  1.00  0.00     0.026 C 
HETATM   17  C8          0      12.229  83.872 -21.944  1.00  0.00     0.112 C 
HETATM   18  C10         0      12.123  85.176 -22.406  1.00  0.00     0.112 C 
HETATM   19  C12         0      12.953  85.578 -23.447  1.00  0.00     0.028 C 
BRANCH  17  20
HETATM   20  O9          0      12.098  83.515 -20.614  1.00  0.00    -0.357 OA
HETATM   21  H9          0      12.793  83.116 -20.103  1.00  0.00     0.218 HD
ENDBRANCH  17  20
BRANCH  18  22
HETATM   22  O11         0      11.489  86.088 -21.575  1.00  0.00    -0.357 OA
HETATM   23  H11         0      11.587  87.008 -21.791  1.00  0.00     0.218 HD
ENDBRANCH  18  22
ENDBRANCH   4  14
BRANCH   8  24
HETATM   24  O17         0      19.485  81.767 -26.305  1.00  0.00    -0.359 OA
HETATM   25  H17         0      20.081  81.459 -26.978  1.00  0.00     0.218 HD
ENDBRANCH   8  24
TORSDOF 5
ENDMDL
MODEL 3
REMARK VINA RESULT:      -6.1     11.496     14.160
REMARK  5 active torsions:
REMARK  status: ('A' for Active; 'I' for Inactive)
REMARK    1  A    between atoms: C4_4  and  C5_5 
REMARK    2  A    between atoms: C8_8  and  O9_9 
REMARK    3  A    between atoms: C10_11  and  O11_12 
REMARK    4  A    between atoms: C16_18  and  O17_19 
REMARK    5  A    between atoms: C19_22  and  O20_23 
ROOT
HETATM    1  O1          0      18.618  82.830 -27.974  1.00  0.00    -0.286 OA
HETATM    2  C2          0      18.216  83.209 -26.840  1.00  0.00     0.201 C 
HETATM    3  C3          0      16.977  82.861 -26.329  1.00  0.00     0.067 C 
HETATM    4  C4          0      16.516  83.374 -25.122  1.00  0.00     0.103 C 
HETATM    5  O13         0      17.295  84.199 -24.444  1.00  0.00    -0.307 OA
HETATM    6  C14         0      18.464  84.591 -24.902  1.00  0.00     0.107 C 
HETATM    7  C15         0      19.094  85.729 -24.419  1.00  0.00     0.049 C 
HETATM    8  C16         0      20.190  86.279 -25.072  1.00  0.00     0.093 C 
HETATM    9  C18         0      20.915  85.388 -25.854  1.00  0.00     0.048 C 
HETATM   10  C19         0      20.330  84.217 -26.315  1.00  0.00     0.096 C 
HETATM   11  C21         0      19.035  83.929 -25.983  1.00  0.00     0.084 C 
ENDROOT
BRANCH  10  12
HETATM   12  O20         0      20.881  83.570 -27.417  1.00  0.00    -0.359 OA
HETATM   13  H20         0      21.768  83.796 -27.669  1.00  0.00     0.218 HD
ENDBRANCH  10  12
BRANCH   4  14
HETATM   14  C5          0      15.066  83.470 -24.945  1.00  0.00     0.025 C 
HETATM   15  C6          0      14.166  83.254 -25.978  1.00  0.00     0.004 C 
HETATM   16  C7          0      12.985  82.585 -25.676  1.00  0.00     0.026 C 
HETATM   17  C8          0      12.645  82.260 -24.367  1.00  0.00     0.112 C 
HETATM   18  C10         0      13.255  83.046 -23.398  1.00  0.00     0.112 C 
HETATM   19  C12         0      14.478  83.634 -23.697  1.00  0.00     0.028 C 
BRANCH  17  20
HETATM   20  O9          0      11.929  81.110 -24.085  1.00  0.00    -0.357 OA
HETATM   21  H9          0      11.924  80.686 -23.234  1.00  0.00     0.218 HD
ENDBRANCH  17  20
BRANCH  18  22
HETATM   22  O11         0      12.810  82.891 -22.092  1.00  0.00    -0.357 OA
HETATM   23  H11         0      13.143  82.142 -21.611  1.00  0.00     0.218 HD
ENDBRANCH  18  22
ENDBRANCH   4  14
BRANCH   8  24
HETATM   24  O17         0      20.344  87.664 -25.200  1.00  0.00    -0.359 OA
HETATM   25  H17         0      19.595  88.249 -25.222  1.00  0.00     0.218 HD
ENDBRANCH   8  24
TORSDOF 5
ENDMDL
MODEL 4
REMARK VINA RESULT:      -5.9      2.210      6.636
REMARK  5 active torsions:
REMARK  status: ('A' for Active; 'I' for Inactive)
REMARK    1  A    between atoms: C4_4  and  C5_5 
REMARK    2  A    between atoms: C8_8  and  O9_9 
REMARK    3  A    between atoms: C10_11  and  O11_12 
REMARK    4  A    between atoms: C16_18  and  O17_19 
REMARK    5  A    between atoms: C19_22  and  O20_23 
ROOT
HETATM    1  O1          0      17.173  88.660 -17.038  1.00  0.00    -0.286 OA
HETATM    2  C2          0      16.730  89.648 -16.391  1.00  0.00     0.201 C 
HETATM    3  C3          0      15.481  89.654 -15.795  1.00  0.00     0.067 C 
HETATM    4  C4          0      14.975  90.792 -15.176  1.00  0.00     0.103 C 
HETATM    5  O13         0      15.721  91.882 -15.144  1.00  0.00    -0.307 OA
HETATM    6  C14         0      16.898  91.941 -15.728  1.00  0.00     0.107 C 
HETATM    7  C15         0      17.496  93.151 -16.046  1.00  0.00     0.049 C 
HETATM    8  C16         0      18.606  93.211 -16.881  1.00  0.00     0.093 C 
HETATM    9  C18         0      19.367  92.049 -16.929  1.00  0.00     0.048 C 
HETATM   10  C19         0      18.813  90.827 -16.572  1.00  0.00     0.096 C 
HETATM   11  C21         0      17.511  90.768 -16.154  1.00  0.00     0.084 C 
ENDROOT
BRANCH  10  12
HETATM   12  O20         0      19.407  89.653 -17.024  1.00  0.00    -0.359 OA
HETATM   13  H20         0      19.114  89.296 -17.854  1.00  0.00     0.218 HD
ENDBRANCH  10  12
BRANCH   4  14
HETATM   14  C5          0      13.518  90.933 -15.120  1.00  0.00     0.025 C 
HETATM   15  C6          0      12.721  90.959 -16.255  1.00  0.00     0.004 C 
HETATM   16  C7          0      11.491  90.312 -16.194  1.00  0.00     0.026 C 
HETATM   17  C8          0      11.009  89.772 -15.007  1.00  0.00     0.112 C 
HETATM   18  C10         0      11.545  90.334 -13.855  1.00  0.00     0.112 C 
HETATM   19  C12         0      12.813  90.899 -13.924  1.00  0.00     0.028 C 
BRANCH  17  20
HETATM   20  O9          0      10.226  88.632 -15.013  1.00  0.00    -0.357 OA
HETATM   21  H9          0       9.316  88.615 -14.741  1.00  0.00     0.218 HD
ENDBRANCH  17  20
BRANCH  18  22
HETATM   22  O11         0      10.965  89.967 -12.649  1.00  0.00    -0.357 OA
HETATM   23  H11         0      10.812  89.040 -12.509  1.00  0.00     0.218 HD
ENDBRANCH  18  22
ENDBRANCH   4  14
BRANCH   8  24
HETATM   24  O17         0      18.744  94.221 -17.839  1.00  0.00    -0.359 OA
HETATM   25  H17         0      19.231  95.016 -17.660  1.00  0.00     0.218 HD
ENDBRANCH   8  24
TORSDOF 5
ENDMDL
MODEL 5
REMARK VINA RESULT:      -5.7     10.665     12.465
REMARK  5 active torsions:
REMARK  status: ('A' for Active; 'I' for Inactive)
REMARK    1  A    between atoms: C4_4  and  C5_5 
REMARK    2  A    between atoms: C8_8  and  O9_9 
REMARK    3  A    between atoms: C10_11  and  O11_12 
REMARK    4  A    between atoms: C16_18  and  O17_19 
REMARK    5  A    between atoms: C19_22  and  O20_23 
ROOT
HETATM    1  O1          0      14.711  87.248 -25.229  1.00  0.00    -0.286 OA
HETATM    2  C2          0      15.344  86.174 -25.035  1.00  0.00     0.201 C 
HETATM    3  C3          0      16.568  85.908 -25.624  1.00  0.00     0.067 C 
HETATM    4  C4          0      17.195  84.676 -25.476  1.00  0.00     0.103 C 
HETATM    5  O13         0      16.610  83.750 -24.736  1.00  0.00    -0.307 OA
HETATM    6  C14         0      15.431  83.938 -24.186  1.00  0.00     0.107 C 
HETATM    7  C15         0      14.644  82.876 -23.762  1.00  0.00     0.049 C 
HETATM    8  C16         0      13.309  83.057 -23.422  1.00  0.00     0.093 C 
HETATM    9  C18         0      12.976  84.345 -23.020  1.00  0.00     0.048 C 
HETATM   10  C19         0      13.767  85.426 -23.387  1.00  0.00     0.096 C 
HETATM   11  C21         0      14.893  85.219 -24.136  1.00  0.00     0.084 C 
ENDROOT
BRANCH  10  12
HETATM   12  O20         0      13.221  86.706 -23.368  1.00  0.00    -0.359 OA
HETATM   13  H20         0      12.907  87.043 -22.538  1.00  0.00     0.218 HD
ENDBRANCH  10  12
BRANCH   4  14
HETATM   14  C5          0      18.104  84.254 -26.543  1.00  0.00     0.025 C 
HETATM   15  C6          0      18.719  85.151 -27.405  1.00  0.00     0.004 C 
HETATM   16  C7          0      20.033  84.888 -27.779  1.00  0.00     0.026 C 
HETATM   17  C8          0      20.672  83.707 -27.417  1.00  0.00     0.112 C 
HETATM   18  C10         0      19.818  82.650 -27.131  1.00  0.00     0.112 C 
HETATM   19  C12         0      18.537  82.941 -26.678  1.00  0.00     0.028 C 
BRANCH  17  20
HETATM   20  O9          0      22.033  83.685 -27.167  1.00  0.00    -0.357 OA
HETATM   21  H9          0      22.528  84.440 -26.872  1.00  0.00     0.218 HD
ENDBRANCH  17  20
BRANCH  18  22
HETATM   22  O11         0      20.400  81.404 -26.950  1.00  0.00    -0.357 OA
HETATM   23  H11         0      20.381  81.044 -26.070  1.00  0.00     0.218 HD
ENDBRANCH  18  22
ENDBRANCH   4  14
BRANCH   8  24
HETATM   24  O17         0      12.332  82.122 -23.778  1.00  0.00    -0.359 OA
HETATM   25  H17         0      12.057  81.435 -23.183  1.00  0.00     0.218 HD
ENDBRANCH   8  24
TORSDOF 5
ENDMDL
MODEL 6
REMARK VINA RESULT:      -5.5     10.298     11.783
REMARK  5 active torsions:
REMARK  status: ('A' for Active; 'I' for Inactive)
REMARK    1  A    between atoms: C4_4  and  C5_5 
REMARK    2  A    between atoms: C8_8  and  O9_9 
REMARK    3  A    between atoms: C10_11  and  O11_12 
REMARK    4  A    between atoms: C16_18  and  O17_19 
REMARK    5  A    between atoms: C19_22  and  O20_23 
ROOT
HETATM    1  O1          0      13.276  87.341 -24.013  1.00  0.00    -0.286 OA
HETATM    2  C2          0      13.837  86.217 -23.905  1.00  0.00     0.201 C 
HETATM    3  C3          0      15.098  85.956 -24.413  1.00  0.00     0.067 C 
HETATM    4  C4          0      15.651  84.681 -24.371  1.00  0.00     0.103 C 
HETATM    5  O13         0      14.956  83.706 -23.812  1.00  0.00    -0.307 OA
HETATM    6  C14         0      13.740  83.891 -23.348  1.00  0.00     0.107 C 
HETATM    7  C15         0      12.869  82.832 -23.137  1.00  0.00     0.049 C 
HETATM    8  C16         0      11.517  83.047 -22.895  1.00  0.00     0.093 C 
HETATM    9  C18         0      11.207  84.291 -22.360  1.00  0.00     0.048 C 
HETATM   10  C19         0      12.078  85.362 -22.513  1.00  0.00     0.096 C 
HETATM   11  C21         0      13.259  85.185 -23.180  1.00  0.00     0.084 C 
ENDROOT
BRANCH  10  12
HETATM   12  O20         0      11.593  86.658 -22.377  1.00  0.00    -0.359 OA
HETATM   13  H20         0      12.224  87.366 -22.315  1.00  0.00     0.218 HD
ENDBRANCH  10  12
BRANCH   4  14
HETATM   14  C5          0      16.637  84.344 -25.400  1.00  0.00     0.025 C 
HETATM   15  C6          0      17.950  84.790 -25.359  1.00  0.00     0.004 C 
HETATM   16  C7          0      18.943  83.909 -25.774  1.00  0.00     0.026 C 
HETATM   17  C8          0      18.635  82.676 -26.339  1.00  0.00     0.112 C 
HETATM   18  C10         0      17.370  82.598 -26.906  1.00  0.00     0.112 C 
HETATM   19  C12         0      16.373  83.431 -26.413  1.00  0.00     0.028 C 
BRANCH  17  20
HETATM   20  O9          0      19.459  81.582 -26.143  1.00  0.00    -0.357 OA
HETATM   21  H9          0      20.362  81.542 -26.436  1.00  0.00     0.218 HD
ENDBRANCH  17  20
BRANCH  18  22
HETATM   22  O11         0      17.083  81.459 -27.645  1.00  0.00    -0.357 OA
HETATM   23  H11         0      16.179  81.336 -27.912  1.00  0.00     0.218 HD
ENDBRANCH  18  22
ENDBRANCH   4  14
BRANCH   8  24
HETATM   24  O17         0      10.536  82.221 -23.454  1.00  0.00    -0.359 OA
HETATM   25  H17         0       9.971  82.522 -24.156  1.00  0.00     0.218 HD
ENDBRANCH   8  24
TORSDOF 5
ENDMDL
MODEL 7
REMARK VINA RESULT:      -5.4      3.822      6.203
REMARK  5 active torsions:
REMARK  status: ('A' for Active; 'I' for Inactive)
REMARK    1  A    between atoms: C4_4  and  C5_5 
REMARK    2  A    between atoms: C8_8  and  O9_9 
REMARK    3  A    between atoms: C10_11  and  O11_12 
REMARK    4  A    between atoms: C16_18  and  O17_19 
REMARK    5  A    between atoms: C19_22  and  O20_23 
ROOT
HETATM    1  O1          0      17.286  93.773 -16.442  1.00  0.00    -0.286 OA
HETATM    2  C2          0      18.240  93.023 -16.787  1.00  0.00     0.201 C 
HETATM    3  C3          0      19.375  93.496 -17.422  1.00  0.00     0.067 C 
HETATM    4  C4          0      20.364  92.635 -17.884  1.00  0.00     0.103 C 
HETATM    5  O13         0      20.217  91.337 -17.689  1.00  0.00    -0.307 OA
HETATM    6  C14         0      19.142  90.832 -17.125  1.00  0.00     0.107 C 
HETATM    7  C15         0      18.797  89.496 -17.274  1.00  0.00     0.049 C 
HETATM    8  C16         0      17.544  89.028 -16.897  1.00  0.00     0.093 C 
HETATM    9  C18         0      16.902  89.786 -15.925  1.00  0.00     0.048 C 
HETATM   10  C19         0      17.254  91.113 -15.718  1.00  0.00     0.096 C 
HETATM   11  C21         0      18.253  91.674 -16.465  1.00  0.00     0.084 C 
ENDROOT
BRANCH  10  12
HETATM   12  O20         0      16.354  91.965 -15.086  1.00  0.00    -0.359 OA
HETATM   13  H20         0      15.517  91.608 -14.817  1.00  0.00     0.218 HD
ENDBRANCH  10  12
BRANCH   4  14
HETATM   14  C5          0      21.174  93.091 -19.016  1.00  0.00     0.025 C 
HETATM   15  C6          0      22.552  93.232 -18.946  1.00  0.00     0.004 C 
HETATM   16  C7          0      23.295  92.870 -20.065  1.00  0.00     0.026 C 
HETATM   17  C8          0      22.683  92.509 -21.261  1.00  0.00     0.112 C 
HETATM   18  C10         0      21.394  92.998 -21.423  1.00  0.00     0.112 C 
HETATM   19  C12         0      20.643  93.271 -20.286  1.00  0.00     0.028 C 
BRANCH  17  20
HETATM   20  O9          0      23.258  91.566 -22.094  1.00  0.00    -0.357 OA
HETATM   21  H9          0      23.661  90.763 -21.785  1.00  0.00     0.218 HD
ENDBRANCH  17  20
BRANCH  18  22
HETATM   22  O11         0      20.810  92.828 -22.671  1.00  0.00    -0.357 OA
HETATM   23  H11         0      19.863  92.749 -22.695  1.00  0.00     0.218 HD
ENDBRANCH  18  22
ENDBRANCH   4  14
BRANCH   8  24
HETATM   24  O17         0      16.855  88.086 -17.670  1.00  0.00    -0.359 OA
HETATM   25  H17         0      15.936  88.194 -17.885  1.00  0.00     0.218 HD
ENDBRANCH   8  24
TORSDOF 5
ENDMDL
MODEL 8
REMARK VINA RESULT:      -5.4     10.698     12.283
REMARK  5 active torsions:
REMARK  status: ('A' for Active; 'I' for Inactive)
REMARK    1  A    between atoms: C4_4  and  C5_5 
REMARK    2  A    between atoms: C8_8  and  O9_9 
REMARK    3  A    between atoms: C10_11  and  O11_12 
REMARK    4  A    between atoms: C16_18  and  O17_19 
REMARK    5  A    between atoms: C19_22  and  O20_23 
ROOT
HETATM    1  O1          0      14.460  87.258 -24.213  1.00  0.00    -0.286 OA
HETATM    2  C2          0      15.375  86.390 -24.214  1.00  0.00     0.201 C 
HETATM    3  C3          0      16.697  86.694 -24.496  1.00  0.00     0.067 C 
HETATM    4  C4          0      17.667  85.703 -24.591  1.00  0.00     0.103 C 
HETATM    5  O13         0      17.314  84.447 -24.385  1.00  0.00    -0.307 OA
HETATM    6  C14         0      16.068  84.100 -24.151  1.00  0.00     0.107 C 
HETATM    7  C15         0      15.625  82.798 -24.331  1.00  0.00     0.049 C 
HETATM    8  C16         0      14.270  82.490 -24.332  1.00  0.00     0.093 C 
HETATM    9  C18         0      13.464  83.386 -23.640  1.00  0.00     0.048 C 
HETATM   10  C19         0      13.895  84.684 -23.402  1.00  0.00     0.096 C 
HETATM   11  C21         0      15.131  85.079 -23.836  1.00  0.00     0.084 C 
ENDROOT
BRANCH  10  12
HETATM   12  O20         0      12.957  85.671 -23.117  1.00  0.00    -0.359 OA
HETATM   13  H20         0      13.101  86.539 -23.476  1.00  0.00     0.218 HD
ENDBRANCH  10  12
BRANCH   4  14
HETATM   14  C5          0      18.825  85.980 -25.443  1.00  0.00     0.025 C 
HETATM   15  C6          0      20.061  85.380 -25.250  1.00  0.00     0.004 C 
HETATM   16  C7          0      20.786  85.019 -26.382  1.00  0.00     0.026 C 
HETATM   17  C8          0      20.361  85.363 -27.661  1.00  0.00     0.112 C 
HETATM   18  C10         0      19.510  86.459 -27.714  1.00  0.00     0.112 C 
HETATM   19  C12         0      18.733  86.746 -26.598  1.00  0.00     0.028 C 
BRANCH  17  20
HETATM   20  O9          0      20.611  84.532 -28.738  1.00  0.00    -0.357 OA
HETATM   21  H9          0      20.502  83.588 -28.714  1.00  0.00     0.218 HD
ENDBRANCH  17  20
BRANCH  18  22
HETATM   22  O11         0      19.207  86.959 -28.972  1.00  0.00    -0.357 OA
HETATM   23  H11         0      19.846  87.540 -29.369  1.00  0.00     0.218 HD
ENDBRANCH  18  22
ENDBRANCH   4  14
BRANCH   8  24
HETATM   24  O17         0      13.734  81.559 -25.229  1.00  0.00    -0.359 OA
HETATM   25  H17         0      12.802  81.376 -25.261  1.00  0.00     0.218 HD
ENDBRANCH   8  24
TORSDOF 5
ENDMDL
MODEL 9
REMARK VINA RESULT:      -5.3      2.471      6.632
REMARK  5 active torsions:
REMARK  status: ('A' for Active; 'I' for Inactive)
REMARK    1  A    between atoms: C4_4  and  C5_5 
REMARK    2  A    between atoms: C8_8  and  O9_9 
REMARK    3  A    between atoms: C10_11  and  O11_12 
REMARK    4  A    between atoms: C16_18  and  O17_19 
REMARK    5  A    between atoms: C19_22  and  O20_23 
ROOT
HETATM    1  O1          0      15.430  92.116 -18.992  1.00  0.00    -0.286 OA
HETATM    2  C2          0      15.700  91.879 -17.782  1.00  0.00     0.201 C 
HETATM    3  C3          0      14.728  91.609 -16.835  1.00  0.00     0.067 C 
HETATM    4  C4          0      15.044  91.453 -15.490  1.00  0.00     0.103 C 
HETATM    5  O13         0      16.309  91.546 -15.121  1.00  0.00    -0.307 OA
HETATM    6  C14         0      17.267  91.838 -15.974  1.00  0.00     0.107 C 
HETATM    7  C15         0      18.497  92.325 -15.554  1.00  0.00     0.049 C 
HETATM    8  C16         0      19.404  92.868 -16.456  1.00  0.00     0.093 C 
HETATM    9  C18         0      19.266  92.425 -17.766  1.00  0.00     0.048 C 
HETATM   10  C19         0      18.063  91.889 -18.206  1.00  0.00     0.096 C 
HETATM   11  C21         0      17.010  91.780 -17.339  1.00  0.00     0.084 C 
ENDROOT
BRANCH  10  12
HETATM   12  O20         0      17.791  91.859 -19.570  1.00  0.00    -0.359 OA
HETATM   13  H20         0      18.474  92.140 -20.167  1.00  0.00     0.218 HD
ENDBRANCH  10  12
BRANCH   4  14
HETATM   14  C5          0      14.000  91.772 -14.515  1.00  0.00     0.025 C 
HETATM   15  C6          0      12.741  92.225 -14.882  1.00  0.00     0.004 C 
HETATM   16  C7          0      11.651  91.763 -14.150  1.00  0.00     0.026 C 
HETATM   17  C8          0      11.816  90.985 -13.009  1.00  0.00     0.112 C 
HETATM   18  C10         0      13.049  91.123 -12.387  1.00  0.00     0.112 C 
HETATM   19  C12         0      14.140  91.504 -13.159  1.00  0.00     0.028 C 
BRANCH  17  20
HETATM   20  O9          0      10.891  90.011 -12.676  1.00  0.00    -0.357 OA
HETATM   21  H9          0      10.068  90.193 -12.237  1.00  0.00     0.218 HD
ENDBRANCH  17  20
BRANCH  18  22
HETATM   22  O11         0      13.198  90.518 -11.147  1.00  0.00    -0.357 OA
HETATM   23  H11         0      14.087  90.361 -10.849  1.00  0.00     0.218 HD
ENDBRANCH  18  22
ENDBRANCH   4  14
BRANCH   8  24
HETATM   24  O17         0      20.155  94.005 -16.139  1.00  0.00    -0.359 OA
HETATM   25  H17         0      20.882  94.289 -16.680  1.00  0.00     0.218 HD
ENDBRANCH   8  24
TORSDOF 5
ENDMDL
