MODEL 1
REMARK VINA RESULT:      -7.0      0.000      0.000
REMARK  5 active torsions:
REMARK  status: ('A' for Active; 'I' for Inactive)
REMARK    1  A    between atoms: C4_4  and  C5_5 
REMARK    2  A    between atoms: C8_8  and  O9_9 
REMARK    3  A    between atoms: C10_11  and  O11_12 
REMARK    4  A    between atoms: C16_18  and  O17_19 
REMARK    5  A    between atoms: C19_22  and  O20_23 
ROOT
HETATM    1  O1          0      28.366  29.514  23.030  1.00  0.00    -0.286 OA
HETATM    2  C2          0      27.621  28.688  23.626  1.00  0.00     0.201 C 
HETATM    3  C3          0      27.839  27.321  23.591  1.00  0.00     0.067 C 
HETATM    4  C4          0      26.946  26.426  24.170  1.00  0.00     0.103 C 
HETATM    5  O13         0      25.877  26.903  24.783  1.00  0.00    -0.307 OA
HETATM    6  C14         0      25.603  28.189  24.813  1.00  0.00     0.107 C 
HETATM    7  C15         0      24.327  28.659  25.086  1.00  0.00     0.049 C 
HETATM    8  C16         0      23.985  29.988  24.867  1.00  0.00     0.093 C 
HETATM    9  C18         0      25.051  30.880  24.890  1.00  0.00     0.048 C 
HETATM   10  C19         0      26.347  30.436  24.667  1.00  0.00     0.096 C 
HETATM   11  C21         0      26.580  29.107  24.439  1.00  0.00     0.084 C 
ENDROOT
BRANCH  10  12
HETATM   12  O20         0      27.318  31.347  24.263  1.00  0.00    -0.359 OA
HETATM   13  H20         0      27.863  31.116  23.520  1.00  0.00     0.218 HD
ENDBRANCH  10  12
BRANCH   4  14
HETATM   14  C5          0      26.892  25.076  23.608  1.00  0.00     0.025 C 
HETATM   15  C6          0      27.145  24.807  22.271  1.00  0.00     0.004 C 
HETATM   16  C7          0      27.846  23.644  21.969  1.00  0.00     0.026 C 
HETATM   17  C8          0      28.166  22.710  22.948  1.00  0.00     0.112 C 
HETATM   18  C10         0      27.351  22.746  24.072  1.00  0.00     0.112 C 
HETATM   19  C12         0      26.731  23.946  24.399  1.00  0.00     0.028 C 
BRANCH  17  20
HETATM   20  O9          0      29.333  21.971  22.869  1.00  0.00    -0.357 OA
HETATM   21  H9          0      29.741  21.714  22.049  1.00  0.00     0.218 HD
ENDBRANCH  17  20
BRANCH  18  22
HETATM   22  O11         0      27.505  21.719  24.993  1.00  0.00    -0.357 OA
HETATM   23  H11         0      27.108  21.844  25.847  1.00  0.00     0.218 HD
ENDBRANCH  18  22
ENDBRANCH   4  14
BRANCH   8  24
HETATM   24  O17         0      22.740  30.343  24.335  1.00  0.00    -0.359 OA
HETATM   25  H17         0      21.931  29.973  24.668  1.00  0.00     0.218 HD
ENDBRANCH   8  24
TORSDOF 5
ENDMDL
MODEL 2
REMARK VINA RESULT:      -7.0      2.176      3.178
REMARK  5 active torsions:
REMARK  status: ('A' for Active; 'I' for Inactive)
REMARK    1  A    between atoms: C4_4  and  C5_5 
REMARK    2  A    between atoms: C8_8  and  O9_9 
REMARK    3  A    between atoms: C10_11  and  O11_12 
REMARK    4  A    between atoms: C16_18  and  O17_19 
REMARK    5  A    between atoms: C19_22  and  O20_23 
ROOT
HETATM    1  O1          0      23.892  29.365  25.975  1.00  0.00    -0.286 OA
HETATM    2  C2          0      25.028  28.993  25.573  1.00  0.00     0.201 C 
HETATM    3  C3          0      25.205  27.925  24.709  1.00  0.00     0.067 C 
HETATM    4  C4          0      26.473  27.471  24.363  1.00  0.00     0.103 C 
HETATM    5  O13         0      27.528  28.094  24.859  1.00  0.00    -0.307 OA
HETATM    6  C14         0      27.415  29.089  25.711  1.00  0.00     0.107 C 
HETATM    7  C15         0      28.469  29.474  26.527  1.00  0.00     0.049 C 
HETATM    8  C16         0      28.275  30.344  27.594  1.00  0.00     0.093 C 
HETATM    9  C18         0      27.173  31.182  27.475  1.00  0.00     0.048 C 
HETATM   10  C19         0      26.122  30.850  26.631  1.00  0.00     0.096 C 
HETATM   11  C21         0      26.178  29.696  25.898  1.00  0.00     0.084 C 
ENDROOT
BRANCH  10  12
HETATM   12  O20         0      24.874  31.432  26.837  1.00  0.00    -0.359 OA
HETATM   13  H20         0      24.220  31.334  26.156  1.00  0.00     0.218 HD
ENDBRANCH  10  12
BRANCH   4  14
HETATM   14  C5          0      26.599  26.063  23.984  1.00  0.00     0.025 C 
HETATM   15  C6          0      27.411  25.634  22.943  1.00  0.00     0.004 C 
HETATM   16  C7          0      28.104  24.440  23.116  1.00  0.00     0.026 C 
HETATM   17  C8          0      27.896  23.631  24.227  1.00  0.00     0.112 C 
HETATM   18  C10         0      26.667  23.805  24.850  1.00  0.00     0.112 C 
HETATM   19  C12         0      26.036  25.037  24.731  1.00  0.00     0.028 C 
BRANCH  17  20
HETATM   20  O9          0      28.930  22.884  24.763  1.00  0.00    -0.357 OA
HETATM   21  H9          0      29.631  22.505  24.246  1.00  0.00     0.218 HD
ENDBRANCH  17  20
BRANCH  18  22
HETATM   22  O11         0      26.332  22.896  25.843  1.00  0.00    -0.357 OA
HETATM   23  H11         0      25.583  22.335  25.678  1.00  0.00     0.218 HD
ENDBRANCH  18  22
ENDBRANCH   4  14
BRANCH   8  24
HETATM   24  O17         0      28.925  30.153  28.818  1.00  0.00    -0.359 OA
HETATM   25  H17         0      28.479  30.284  29.646  1.00  0.00     0.218 HD
ENDBRANCH   8  24
TORSDOF 5
ENDMDL
MODEL 3
REMARK VINA RESULT:      -6.9      2.597      3.744
REMARK  5 active torsions:
REMARK  status: ('A' for Active; 'I' for Inactive)
REMARK    1  A    between atoms: C4_4  and  C5_5 
REMARK    2  A    between atoms: C8_8  and  O9_9 
REMARK    3  A    between atoms: C10_11  and  O11_12 
REMARK    4  A    between atoms: C16_18  and  O17_19 
REMARK    5  A    between atoms: C19_22  and  O20_23 
ROOT
HETATM    1  O1          0      23.981  29.436  26.085  1.00  0.00    -0.286 OA
HETATM    2  C2          0      25.119  29.085  25.671  1.00  0.00     0.201 C 
HETATM    3  C3          0      25.303  28.059  24.760  1.00  0.00     0.067 C 
HETATM    4  C4          0      26.573  27.624  24.397  1.00  0.00     0.103 C 
HETATM    5  O13         0      27.624  28.226  24.926  1.00  0.00    -0.307 OA
HETATM    6  C14         0      27.506  29.180  25.824  1.00  0.00     0.107 C 
HETATM    7  C15         0      28.555  29.529  26.661  1.00  0.00     0.049 C 
HETATM    8  C16         0      28.355  30.348  27.766  1.00  0.00     0.093 C 
HETATM    9  C18         0      27.251  31.188  27.682  1.00  0.00     0.048 C 
HETATM   10  C19         0      26.204  30.893  26.819  1.00  0.00     0.096 C 
HETATM   11  C21         0      26.266  29.774  26.034  1.00  0.00     0.084 C 
ENDROOT
BRANCH  10  12
HETATM   12  O20         0      24.955  31.462  27.046  1.00  0.00    -0.359 OA
HETATM   13  H20         0      24.333  30.975  27.574  1.00  0.00     0.218 HD
ENDBRANCH  10  12
BRANCH   4  14
HETATM   14  C5          0      26.705  26.235  23.954  1.00  0.00     0.025 C 
HETATM   15  C6          0      26.011  25.189  24.543  1.00  0.00     0.004 C 
HETATM   16  C7          0      25.532  24.183  23.710  1.00  0.00     0.026 C 
HETATM   17  C8          0      25.846  24.146  22.356  1.00  0.00     0.112 C 
HETATM   18  C10         0      27.007  24.825  22.011  1.00  0.00     0.112 C 
HETATM   19  C12         0      27.417  25.882  22.815  1.00  0.00     0.028 C 
BRANCH  17  20
HETATM   20  O9          0      24.943  23.651  21.432  1.00  0.00    -0.357 OA
HETATM   21  H9          0      25.105  22.885  20.893  1.00  0.00     0.218 HD
ENDBRANCH  17  20
BRANCH  18  22
HETATM   22  O11         0      27.467  24.664  20.712  1.00  0.00    -0.357 OA
HETATM   23  H11         0      26.881  24.237  20.098  1.00  0.00     0.218 HD
ENDBRANCH  18  22
ENDBRANCH   4  14
BRANCH   8  24
HETATM   24  O17         0      29.000  30.102  28.983  1.00  0.00    -0.359 OA
HETATM   25  H17         0      29.483  30.781  29.438  1.00  0.00     0.218 HD
ENDBRANCH   8  24
TORSDOF 5
ENDMDL
MODEL 4
REMARK VINA RESULT:      -6.7      2.243      6.939
REMARK  5 active torsions:
REMARK  status: ('A' for Active; 'I' for Inactive)
REMARK    1  A    between atoms: C4_4  and  C5_5 
REMARK    2  A    between atoms: C8_8  and  O9_9 
REMARK    3  A    between atoms: C10_11  and  O11_12 
REMARK    4  A    between atoms: C16_18  and  O17_19 
REMARK    5  A    between atoms: C19_22  and  O20_23 
ROOT
HETATM    1  O1          0      22.940  25.310  24.133  1.00  0.00    -0.286 OA
HETATM    2  C2          0      24.036  25.901  24.334  1.00  0.00     0.201 C 
HETATM    3  C3          0      24.140  27.049  25.102  1.00  0.00     0.067 C 
HETATM    4  C4          0      25.341  27.738  25.224  1.00  0.00     0.103 C 
HETATM    5  O13         0      26.409  27.266  24.605  1.00  0.00    -0.307 OA
HETATM    6  C14         0      26.357  26.202  23.834  1.00  0.00     0.107 C 
HETATM    7  C15         0      27.336  25.937  22.886  1.00  0.00     0.049 C 
HETATM    8  C16         0      27.151  24.965  21.911  1.00  0.00     0.093 C 
HETATM    9  C18         0      26.247  23.964  22.243  1.00  0.00     0.048 C 
HETATM   10  C19         0      25.284  24.179  23.220  1.00  0.00     0.096 C 
HETATM   11  C21         0      25.236  25.381  23.873  1.00  0.00     0.084 C 
ENDROOT
BRANCH  10  12
HETATM   12  O20         0      24.146  23.379  23.241  1.00  0.00    -0.359 OA
HETATM   13  H20         0      23.519  23.477  22.535  1.00  0.00     0.218 HD
ENDBRANCH  10  12
BRANCH   4  14
HETATM   14  C5          0      25.265  29.173  25.503  1.00  0.00     0.025 C 
HETATM   15  C6          0      24.824  29.680  26.717  1.00  0.00     0.004 C 
HETATM   16  C7          0      25.473  30.804  27.219  1.00  0.00     0.026 C 
HETATM   17  C8          0      26.435  31.482  26.479  1.00  0.00     0.112 C 
HETATM   18  C10         0      26.345  31.301  25.105  1.00  0.00     0.112 C 
HETATM   19  C12         0      25.768  30.129  24.630  1.00  0.00     0.028 C 
BRANCH  17  20
HETATM   20  O9          0      27.504  32.100  27.103  1.00  0.00    -0.357 OA
HETATM   21  H9          0      27.411  32.779  27.762  1.00  0.00     0.218 HD
ENDBRANCH  17  20
BRANCH  18  22
HETATM   22  O11         0      27.156  32.099  24.311  1.00  0.00    -0.357 OA
HETATM   23  H11         0      27.013  32.059  23.373  1.00  0.00     0.218 HD
ENDBRANCH  18  22
ENDBRANCH   4  14
BRANCH   8  24
HETATM   24  O17         0      27.575  25.166  20.592  1.00  0.00    -0.359 OA
HETATM   25  H17         0      28.216  24.597  20.182  1.00  0.00     0.218 HD
ENDBRANCH   8  24
TORSDOF 5
ENDMDL
MODEL 5
REMARK VINA RESULT:      -6.6      1.994      6.503
REMARK  5 active torsions:
REMARK  status: ('A' for Active; 'I' for Inactive)
REMARK    1  A    between atoms: C4_4  and  C5_5 
REMARK    2  A    between atoms: C8_8  and  O9_9 
REMARK    3  A    between atoms: C10_11  and  O11_12 
REMARK    4  A    between atoms: C16_18  and  O17_19 
REMARK    5  A    between atoms: C19_22  and  O20_23 
ROOT
HETATM    1  O1          0      28.608  24.444  23.156  1.00  0.00    -0.286 OA
HETATM    2  C2          0      27.580  24.994  23.639  1.00  0.00     0.201 C 
HETATM    3  C3          0      27.389  26.365  23.631  1.00  0.00     0.067 C 
HETATM    4  C4          0      26.297  26.952  24.260  1.00  0.00     0.103 C 
HETATM    5  O13         0      25.416  26.172  24.861  1.00  0.00    -0.307 OA
HETATM    6  C14         0      25.569  24.868  24.931  1.00  0.00     0.107 C 
HETATM    7  C15         0      24.896  24.102  25.871  1.00  0.00     0.049 C 
HETATM    8  C16         0      25.248  22.778  26.110  1.00  0.00     0.093 C 
HETATM    9  C18         0      25.885  22.141  25.052  1.00  0.00     0.048 C 
HETATM   10  C19         0      26.529  22.879  24.068  1.00  0.00     0.096 C 
HETATM   11  C21         0      26.522  24.246  24.131  1.00  0.00     0.084 C 
ENDROOT
BRANCH  10  12
HETATM   12  O20         0      27.505  22.267  23.288  1.00  0.00    -0.359 OA
HETATM   13  H20         0      27.575  22.528  22.377  1.00  0.00     0.218 HD
ENDBRANCH  10  12
BRANCH   4  14
HETATM   14  C5          0      26.456  28.329  24.731  1.00  0.00     0.025 C 
HETATM   15  C6          0      25.397  29.088  25.209  1.00  0.00     0.004 C 
HETATM   16  C7          0      25.641  29.926  26.292  1.00  0.00     0.026 C 
HETATM   17  C8          0      26.923  30.108  26.799  1.00  0.00     0.112 C 
HETATM   18  C10         0      27.946  29.834  25.901  1.00  0.00     0.112 C 
HETATM   19  C12         0      27.701  28.927  24.877  1.00  0.00     0.028 C 
BRANCH  17  20
HETATM   20  O9          0      27.126  30.334  28.149  1.00  0.00    -0.357 OA
HETATM   21  H9          0      27.406  29.662  28.760  1.00  0.00     0.218 HD
ENDBRANCH  17  20
BRANCH  18  22
HETATM   22  O11         0      29.233  30.178  26.290  1.00  0.00    -0.357 OA
HETATM   23  H11         0      29.918  30.090  25.637  1.00  0.00     0.218 HD
ENDBRANCH  18  22
ENDBRANCH   4  14
BRANCH   8  24
HETATM   24  O17         0      25.266  22.251  27.406  1.00  0.00    -0.359 OA
HETATM   25  H17         0      25.809  22.625  28.089  1.00  0.00     0.218 HD
ENDBRANCH   8  24
TORSDOF 5
ENDMDL
MODEL 6
REMARK VINA RESULT:      -6.6      2.372      6.873
REMARK  5 active torsions:
REMARK  status: ('A' for Active; 'I' for Inactive)
REMARK    1  A    between atoms: C4_4  and  C5_5 
REMARK    2  A    between atoms: C8_8  and  O9_9 
REMARK    3  A    between atoms: C10_11  and  O11_12 
REMARK    4  A    between atoms: C16_18  and  O17_19 
REMARK    5  A    between atoms: C19_22  and  O20_23 
ROOT
HETATM    1  O1          0      23.135  26.652  24.278  1.00  0.00    -0.286 OA
HETATM    2  C2          0      24.372  26.837  24.445  1.00  0.00     0.201 C 
HETATM    3  C3          0      24.882  27.919  25.141  1.00  0.00     0.067 C 
HETATM    4  C4          0      26.250  28.155  25.222  1.00  0.00     0.103 C 
HETATM    5  O13         0      27.076  27.307  24.635  1.00  0.00    -0.307 OA
HETATM    6  C14         0      26.643  26.284  23.930  1.00  0.00     0.107 C 
HETATM    7  C15         0      27.450  25.642  23.003  1.00  0.00     0.049 C 
HETATM    8  C16         0      26.922  24.740  22.087  1.00  0.00     0.093 C 
HETATM    9  C18         0      25.733  24.136  22.479  1.00  0.00     0.048 C 
HETATM   10  C19         0      24.924  24.727  23.440  1.00  0.00     0.096 C 
HETATM   11  C21         0      25.308  25.907  24.018  1.00  0.00     0.084 C 
ENDROOT
BRANCH  10  12
HETATM   12  O20         0      23.580  24.374  23.508  1.00  0.00    -0.359 OA
HETATM   13  H20         0      23.280  23.654  22.966  1.00  0.00     0.218 HD
ENDBRANCH  10  12
BRANCH   4  14
HETATM   14  C5          0      26.681  29.541  25.414  1.00  0.00     0.025 C 
HETATM   15  C6          0      26.003  30.621  24.868  1.00  0.00     0.004 C 
HETATM   16  C7          0      25.902  31.775  25.639  1.00  0.00     0.026 C 
HETATM   17  C8          0      26.567  31.901  26.854  1.00  0.00     0.112 C 
HETATM   18  C10         0      27.676  31.077  26.996  1.00  0.00     0.112 C 
HETATM   19  C12         0      27.711  29.887  26.278  1.00  0.00     0.028 C 
BRANCH  17  20
HETATM   20  O9          0      26.018  32.635  27.890  1.00  0.00    -0.357 OA
HETATM   21  H9          0      25.786  33.554  27.820  1.00  0.00     0.218 HD
ENDBRANCH  17  20
BRANCH  18  22
HETATM   22  O11         0      28.482  31.295  28.104  1.00  0.00    -0.357 OA
HETATM   23  H11         0      28.875  30.529  28.507  1.00  0.00     0.218 HD
ENDBRANCH  18  22
ENDBRANCH   4  14
BRANCH   8  24
HETATM   24  O17         0      27.362  24.705  20.760  1.00  0.00    -0.359 OA
HETATM   25  H17         0      26.754  24.736  20.031  1.00  0.00     0.218 HD
ENDBRANCH   8  24
TORSDOF 5
ENDMDL
MODEL 7
REMARK VINA RESULT:      -6.2      3.758      9.224
REMARK  5 active torsions:
REMARK  status: ('A' for Active; 'I' for Inactive)
REMARK    1  A    between atoms: C4_4  and  C5_5 
REMARK    2  A    between atoms: C8_8  and  O9_9 
REMARK    3  A    between atoms: C10_11  and  O11_12 
REMARK    4  A    between atoms: C16_18  and  O17_19 
REMARK    5  A    between atoms: C19_22  and  O20_23 
ROOT
HETATM    1  O1          0      23.238  30.221  25.551  1.00  0.00    -0.286 OA
HETATM    2  C2          0      24.314  30.856  25.728  1.00  0.00     0.201 C 
HETATM    3  C3          0      24.346  32.180  26.131  1.00  0.00     0.067 C 
HETATM    4  C4          0      25.541  32.885  26.219  1.00  0.00     0.103 C 
HETATM    5  O13         0      26.669  32.262  25.928  1.00  0.00    -0.307 OA
HETATM    6  C14         0      26.691  31.017  25.504  1.00  0.00     0.107 C 
HETATM    7  C15         0      27.784  30.494  24.828  1.00  0.00     0.049 C 
HETATM    8  C16         0      27.707  29.276  24.164  1.00  0.00     0.093 C 
HETATM    9  C18         0      26.731  28.409  24.641  1.00  0.00     0.048 C 
HETATM   10  C19         0      25.647  28.893  25.361  1.00  0.00     0.096 C 
HETATM   11  C21         0      25.548  30.233  25.618  1.00  0.00     0.084 C 
ENDROOT
BRANCH  10  12
HETATM   12  O20         0      24.491  28.124  25.450  1.00  0.00    -0.359 OA
HETATM   13  H20         0      24.582  27.179  25.432  1.00  0.00     0.218 HD
ENDBRANCH  10  12
BRANCH   4  14
HETATM   14  C5          0      25.475  34.338  26.051  1.00  0.00     0.025 C 
HETATM   15  C6          0      24.295  35.009  25.766  1.00  0.00     0.004 C 
HETATM   16  C7          0      24.091  36.243  26.375  1.00  0.00     0.026 C 
HETATM   17  C8          0      25.082  36.853  27.137  1.00  0.00     0.112 C 
HETATM   18  C10         0      26.375  36.440  26.844  1.00  0.00     0.112 C 
HETATM   19  C12         0      26.557  35.168  26.313  1.00  0.00     0.028 C 
BRANCH  17  20
HETATM   20  O9          0      24.756  37.638  28.228  1.00  0.00    -0.357 OA
HETATM   21  H9          0      24.119  37.387  28.888  1.00  0.00     0.218 HD
ENDBRANCH  17  20
BRANCH  18  22
HETATM   22  O11         0      27.411  37.148  27.436  1.00  0.00    -0.357 OA
HETATM   23  H11         0      27.285  37.421  28.338  1.00  0.00     0.218 HD
ENDBRANCH  18  22
ENDBRANCH   4  14
BRANCH   8  24
HETATM   24  O17         0      28.319  29.082  22.921  1.00  0.00    -0.359 OA
HETATM   25  H17         0      27.813  29.012  22.121  1.00  0.00     0.218 HD
ENDBRANCH   8  24
TORSDOF 5
ENDMDL
MODEL 8
REMARK VINA RESULT:      -6.1      4.646      7.669
REMARK  5 active torsions:
REMARK  status: ('A' for Active; 'I' for Inactive)
REMARK    1  A    between atoms: C4_4  and  C5_5 
REMARK    2  A    between atoms: C8_8  and  O9_9 
REMARK    3  A    between atoms: C10_11  and  O11_12 
REMARK    4  A    between atoms: C16_18  and  O17_19 
REMARK    5  A    between atoms: C19_22  and  O20_23 
ROOT
HETATM    1  O1          0      23.045  34.474  28.408  1.00  0.00    -0.286 OA
HETATM    2  C2          0      23.872  34.330  27.466  1.00  0.00     0.201 C 
HETATM    3  C3          0      24.092  33.115  26.840  1.00  0.00     0.067 C 
HETATM    4  C4          0      25.082  32.961  25.876  1.00  0.00     0.103 C 
HETATM    5  O13         0      25.811  34.011  25.542  1.00  0.00    -0.307 OA
HETATM    6  C14         0      25.670  35.177  26.132  1.00  0.00     0.107 C 
HETATM    7  C15         0      26.662  36.145  26.086  1.00  0.00     0.049 C 
HETATM    8  C16         0      26.620  37.262  26.912  1.00  0.00     0.093 C 
HETATM    9  C18         0      25.351  37.618  27.353  1.00  0.00     0.048 C 
HETATM   10  C19         0      24.322  36.686  27.369  1.00  0.00     0.096 C 
HETATM   11  C21         0      24.555  35.411  26.930  1.00  0.00     0.084 C 
ENDROOT
BRANCH  10  12
HETATM   12  O20         0      23.220  36.903  28.190  1.00  0.00    -0.359 OA
HETATM   13  H20         0      22.399  36.491  27.951  1.00  0.00     0.218 HD
ENDBRANCH  10  12
BRANCH   4  14
HETATM   14  C5          0      25.654  31.624  25.711  1.00  0.00     0.025 C 
HETATM   15  C6          0      25.181  30.713  24.777  1.00  0.00     0.004 C 
HETATM   16  C7          0      26.116  29.920  24.120  1.00  0.00     0.026 C 
HETATM   17  C8          0      27.461  29.934  24.472  1.00  0.00     0.112 C 
HETATM   18  C10         0      27.716  30.360  25.768  1.00  0.00     0.112 C 
HETATM   19  C12         0      26.807  31.221  26.372  1.00  0.00     0.028 C 
BRANCH  17  20
HETATM   20  O9          0      28.445  29.740  23.519  1.00  0.00    -0.357 OA
HETATM   21  H9          0      28.331  29.932  22.595  1.00  0.00     0.218 HD
ENDBRANCH  17  20
BRANCH  18  22
HETATM   22  O11         0      29.016  30.215  26.233  1.00  0.00    -0.357 OA
HETATM   23  H11         0      29.592  29.651  25.730  1.00  0.00     0.218 HD
ENDBRANCH  18  22
ENDBRANCH   4  14
BRANCH   8  24
HETATM   24  O17         0      27.777  37.767  27.515  1.00  0.00    -0.359 OA
HETATM   25  H17         0      28.110  38.633  27.309  1.00  0.00     0.218 HD
ENDBRANCH   8  24
TORSDOF 5
ENDMDL
MODEL 9
REMARK VINA RESULT:      -6.1      4.746      9.806
REMARK  5 active torsions:
REMARK  status: ('A' for Active; 'I' for Inactive)
REMARK    1  A    between atoms: C4_4  and  C5_5 
REMARK    2  A    between atoms: C8_8  and  O9_9 
REMARK    3  A    between atoms: C10_11  and  O11_12 
REMARK    4  A    between atoms: C16_18  and  O17_19 
REMARK    5  A    between atoms: C19_22  and  O20_23 
ROOT
HETATM    1  O1          0      26.101  32.386  23.358  1.00  0.00    -0.286 OA
HETATM    2  C2          0      26.088  32.485  24.616  1.00  0.00     0.201 C 
HETATM    3  C3          0      25.563  33.583  25.276  1.00  0.00     0.067 C 
HETATM    4  C4          0      25.653  33.714  26.657  1.00  0.00     0.103 C 
HETATM    5  O13         0      26.238  32.752  27.349  1.00  0.00    -0.307 OA
HETATM    6  C14         0      26.786  31.707  26.768  1.00  0.00     0.107 C 
HETATM    7  C15         0      27.727  30.920  27.417  1.00  0.00     0.049 C 
HETATM    8  C16         0      28.484  29.983  26.725  1.00  0.00     0.093 C 
HETATM    9  C18         0      27.908  29.515  25.550  1.00  0.00     0.048 C 
HETATM   10  C19         0      26.931  30.255  24.900  1.00  0.00     0.096 C 
HETATM   11  C21         0      26.518  31.448  25.429  1.00  0.00     0.084 C 
ENDROOT
BRANCH  10  12
HETATM   12  O20         0      26.683  30.019  23.551  1.00  0.00    -0.359 OA
HETATM   13  H20         0      26.558  29.120  23.272  1.00  0.00     0.218 HD
ENDBRANCH  10  12
BRANCH   4  14
HETATM   14  C5          0      25.650  35.073  27.203  1.00  0.00     0.025 C 
HETATM   15  C6          0      26.712  35.950  27.043  1.00  0.00     0.004 C 
HETATM   16  C7          0      26.413  37.291  26.824  1.00  0.00     0.026 C 
HETATM   17  C8          0      25.109  37.769  26.896  1.00  0.00     0.112 C 
HETATM   18  C10         0      24.248  36.991  27.659  1.00  0.00     0.112 C 
HETATM   19  C12         0      24.524  35.636  27.791  1.00  0.00     0.028 C 
BRANCH  17  20
HETATM   20  O9          0      24.691  38.812  26.089  1.00  0.00    -0.357 OA
HETATM   21  H9          0      23.790  39.110  26.036  1.00  0.00     0.218 HD
ENDBRANCH  17  20
BRANCH  18  22
HETATM   22  O11         0      22.990  37.517  27.919  1.00  0.00    -0.357 OA
HETATM   23  H11         0      22.949  38.436  28.156  1.00  0.00     0.218 HD
ENDBRANCH  18  22
ENDBRANCH   4  14
BRANCH   8  24
HETATM   24  O17         0      29.842  29.791  27.006  1.00  0.00    -0.359 OA
HETATM   25  H17         0      30.276  28.965  26.829  1.00  0.00     0.218 HD
ENDBRANCH   8  24
TORSDOF 5
ENDMDL
