MODEL 1
REMARK VINA RESULT:      -2.7      0.000      0.000
REMARK  5 active torsions:
REMARK  status: ('A' for Active; 'I' for Inactive)
REMARK    1  A    between atoms: C4_4  and  C5_5 
REMARK    2  A    between atoms: C8_8  and  O9_9 
REMARK    3  A    between atoms: C10_11  and  O11_12 
REMARK    4  A    between atoms: C16_18  and  O17_19 
REMARK    5  A    between atoms: C19_22  and  O20_23 
ROOT
HETATM    1  O1          0      64.724  61.599  -2.060  1.00  0.00    -0.286 OA
HETATM    2  C2          0      63.591  61.413  -2.583  1.00  0.00     0.201 C 
HETATM    3  C3          0      63.427  60.876  -3.848  1.00  0.00     0.067 C 
HETATM    4  C4          0      62.173  60.777  -4.441  1.00  0.00     0.103 C 
HETATM    5  O13         0      61.117  61.189  -3.764  1.00  0.00    -0.307 OA
HETATM    6  C14         0      61.220  61.741  -2.574  1.00  0.00     0.107 C 
HETATM    7  C15         0      60.206  62.522  -2.040  1.00  0.00     0.049 C 
HETATM    8  C16         0      60.416  63.304  -0.911  1.00  0.00     0.093 C 
HETATM    9  C18         0      61.442  62.871  -0.079  1.00  0.00     0.048 C 
HETATM   10  C19         0      62.448  62.049  -0.570  1.00  0.00     0.096 C 
HETATM   11  C21         0      62.420  61.649  -1.878  1.00  0.00     0.084 C 
ENDROOT
BRANCH  10  12
HETATM   12  O20         0      63.661  61.981   0.108  1.00  0.00    -0.359 OA
HETATM   13  H20         0      64.308  61.358  -0.199  1.00  0.00     0.218 HD
ENDBRANCH  10  12
BRANCH   4  14
HETATM   14  C5          0      62.122  60.790  -5.904  1.00  0.00     0.025 C 
HETATM   15  C6          0      61.381  59.875  -6.638  1.00  0.00     0.004 C 
HETATM   16  C7          0      60.727  60.339  -7.776  1.00  0.00     0.026 C 
HETATM   17  C8          0      60.912  61.635  -8.245  1.00  0.00     0.112 C 
HETATM   18  C10         0      62.100  62.233  -7.846  1.00  0.00     0.112 C 
HETATM   19  C12         0      62.688  61.808  -6.660  1.00  0.00     0.028 C 
BRANCH  17  20
HETATM   20  O9          0      59.883  62.315  -8.872  1.00  0.00    -0.357 OA
HETATM   21  H9          0      58.970  62.057  -8.819  1.00  0.00     0.218 HD
ENDBRANCH  17  20
BRANCH  18  22
HETATM   22  O11         0      62.422  63.447  -8.436  1.00  0.00    -0.357 OA
HETATM   23  H11         0      62.091  63.600  -9.314  1.00  0.00     0.218 HD
ENDBRANCH  18  22
ENDBRANCH   4  14
BRANCH   8  24
HETATM   24  O17         0      59.875  64.590  -0.803  1.00  0.00    -0.359 OA
HETATM   25  H17         0      59.704  64.991   0.041  1.00  0.00     0.218 HD
ENDBRANCH   8  24
TORSDOF 5
ENDMDL
MODEL 2
REMARK VINA RESULT:      -2.6      3.548      5.712
REMARK  5 active torsions:
REMARK  status: ('A' for Active; 'I' for Inactive)
REMARK    1  A    between atoms: C4_4  and  C5_5 
REMARK    2  A    between atoms: C8_8  and  O9_9 
REMARK    3  A    between atoms: C10_11  and  O11_12 
REMARK    4  A    between atoms: C16_18  and  O17_19 
REMARK    5  A    between atoms: C19_22  and  O20_23 
ROOT
HETATM    1  O1          0      67.227  62.184  -2.719  1.00  0.00    -0.286 OA
HETATM    2  C2          0      66.398  62.625  -1.876  1.00  0.00     0.201 C 
HETATM    3  C3          0      65.220  61.967  -1.567  1.00  0.00     0.067 C 
HETATM    4  C4          0      64.277  62.524  -0.712  1.00  0.00     0.103 C 
HETATM    5  O13         0      64.529  63.703  -0.169  1.00  0.00    -0.307 OA
HETATM    6  C14         0      65.615  64.387  -0.458  1.00  0.00     0.107 C 
HETATM    7  C15         0      65.702  65.752  -0.226  1.00  0.00     0.049 C 
HETATM    8  C16         0      66.737  66.510  -0.760  1.00  0.00     0.093 C 
HETATM    9  C18         0      67.896  65.800  -1.047  1.00  0.00     0.048 C 
HETATM   10  C19         0      67.853  64.426  -1.239  1.00  0.00     0.096 C 
HETATM   11  C21         0      66.662  63.762  -1.127  1.00  0.00     0.084 C 
ENDROOT
BRANCH  10  12
HETATM   12  O20         0      68.884  63.803  -1.936  1.00  0.00    -0.359 OA
HETATM   13  H20         0      68.661  63.073  -2.501  1.00  0.00     0.218 HD
ENDBRANCH  10  12
BRANCH   4  14
HETATM   14  C5          0      62.882  62.118  -0.896  1.00  0.00     0.025 C 
HETATM   15  C6          0      61.812  62.883  -0.457  1.00  0.00     0.004 C 
HETATM   16  C7          0      60.681  62.934  -1.266  1.00  0.00     0.026 C 
HETATM   17  C8          0      60.565  62.148  -2.407  1.00  0.00     0.112 C 
HETATM   18  C10         0      61.355  61.006  -2.407  1.00  0.00     0.112 C 
HETATM   19  C12         0      62.524  61.011  -1.655  1.00  0.00     0.028 C 
BRANCH  17  20
HETATM   20  O9          0      59.875  62.605  -3.516  1.00  0.00    -0.357 OA
HETATM   21  H9          0      60.238  62.619  -4.394  1.00  0.00     0.218 HD
ENDBRANCH  17  20
BRANCH  18  22
HETATM   22  O11         0      61.139  60.092  -3.429  1.00  0.00    -0.357 OA
HETATM   23  H11         0      60.917  59.204  -3.172  1.00  0.00     0.218 HD
ENDBRANCH  18  22
ENDBRANCH   4  14
BRANCH   8  24
HETATM   24  O17         0      66.512  67.791  -1.275  1.00  0.00    -0.359 OA
HETATM   25  H17         0      67.093  68.180  -1.918  1.00  0.00     0.218 HD
ENDBRANCH   8  24
TORSDOF 5
ENDMDL
MODEL 3
REMARK VINA RESULT:      -2.6      3.675      6.691
REMARK  5 active torsions:
REMARK  status: ('A' for Active; 'I' for Inactive)
REMARK    1  A    between atoms: C4_4  and  C5_5 
REMARK    2  A    between atoms: C8_8  and  O9_9 
REMARK    3  A    between atoms: C10_11  and  O11_12 
REMARK    4  A    between atoms: C16_18  and  O17_19 
REMARK    5  A    between atoms: C19_22  and  O20_23 
ROOT
HETATM    1  O1          0      66.798  64.817  -3.089  1.00  0.00    -0.286 OA
HETATM    2  C2          0      66.417  63.637  -2.860  1.00  0.00     0.201 C 
HETATM    3  C3          0      65.088  63.303  -2.658  1.00  0.00     0.067 C 
HETATM    4  C4          0      64.707  62.013  -2.306  1.00  0.00     0.103 C 
HETATM    5  O13         0      65.640  61.086  -2.183  1.00  0.00    -0.307 OA
HETATM    6  C14         0      66.919  61.358  -2.327  1.00  0.00     0.107 C 
HETATM    7  C15         0      67.905  60.524  -1.821  1.00  0.00     0.049 C 
HETATM    8  C16         0      69.231  60.935  -1.749  1.00  0.00     0.093 C 
HETATM    9  C18         0      69.587  61.928  -2.653  1.00  0.00     0.048 C 
HETATM   10  C19         0      68.620  62.751  -3.214  1.00  0.00     0.096 C 
HETATM   11  C21         0      67.303  62.571  -2.889  1.00  0.00     0.084 C 
ENDROOT
BRANCH  10  12
HETATM   12  O20         0      68.998  63.979  -3.748  1.00  0.00    -0.359 OA
HETATM   13  H20         0      68.983  64.077  -4.693  1.00  0.00     0.218 HD
ENDBRANCH  10  12
BRANCH   4  14
HETATM   14  C5          0      63.464  61.867  -1.547  1.00  0.00     0.025 C 
HETATM   15  C6          0      63.325  62.307  -0.238  1.00  0.00     0.004 C 
HETATM   16  C7          0      62.109  62.877   0.125  1.00  0.00     0.026 C 
HETATM   17  C8          0      61.021  62.888  -0.741  1.00  0.00     0.112 C 
HETATM   18  C10         0      61.051  61.906  -1.722  1.00  0.00     0.112 C 
HETATM   19  C12         0      62.286  61.414  -2.127  1.00  0.00     0.028 C 
BRANCH  17  20
HETATM   20  O9          0      60.117  63.935  -0.730  1.00  0.00    -0.357 OA
HETATM   21  H9          0      59.409  64.014  -0.101  1.00  0.00     0.218 HD
ENDBRANCH  17  20
BRANCH  18  22
HETATM   22  O11         0      59.906  61.751  -2.491  1.00  0.00    -0.357 OA
HETATM   23  H11         0      59.617  62.507  -2.989  1.00  0.00     0.218 HD
ENDBRANCH  18  22
ENDBRANCH   4  14
BRANCH   8  24
HETATM   24  O17         0      70.032  60.621  -0.646  1.00  0.00    -0.359 OA
HETATM   25  H17         0      70.711  59.959  -0.695  1.00  0.00     0.218 HD
ENDBRANCH   8  24
TORSDOF 5
ENDMDL
MODEL 4
REMARK VINA RESULT:      -2.4      3.312      5.897
REMARK  5 active torsions:
REMARK  status: ('A' for Active; 'I' for Inactive)
REMARK    1  A    between atoms: C4_4  and  C5_5 
REMARK    2  A    between atoms: C8_8  and  O9_9 
REMARK    3  A    between atoms: C10_11  and  O11_12 
REMARK    4  A    between atoms: C16_18  and  O17_19 
REMARK    5  A    between atoms: C19_22  and  O20_23 
ROOT
HETATM    1  O1          0      66.466  62.597  -5.401  1.00  0.00    -0.286 OA
HETATM    2  C2          0      65.898  62.210  -4.342  1.00  0.00     0.201 C 
HETATM    3  C3          0      64.526  62.055  -4.240  1.00  0.00     0.067 C 
HETATM    4  C4          0      63.918  61.727  -3.034  1.00  0.00     0.103 C 
HETATM    5  O13         0      64.679  61.540  -1.970  1.00  0.00    -0.307 OA
HETATM    6  C14         0      65.982  61.710  -2.003  1.00  0.00     0.107 C 
HETATM    7  C15         0      66.723  61.910  -0.848  1.00  0.00     0.049 C 
HETATM    8  C16         0      68.043  62.341  -0.902  1.00  0.00     0.093 C 
HETATM    9  C18         0      68.708  62.046  -2.086  1.00  0.00     0.048 C 
HETATM   10  C19         0      67.996  61.794  -3.251  1.00  0.00     0.096 C 
HETATM   11  C21         0      66.628  61.820  -3.230  1.00  0.00     0.084 C 
ENDROOT
BRANCH  10  12
HETATM   12  O20         0      68.632  61.935  -4.481  1.00  0.00    -0.359 OA
HETATM   13  H20         0      68.610  61.198  -5.080  1.00  0.00     0.218 HD
ENDBRANCH  10  12
BRANCH   4  14
HETATM   14  C5          0      62.532  62.159  -2.843  1.00  0.00     0.025 C 
HETATM   15  C6          0      61.465  61.274  -2.819  1.00  0.00     0.004 C 
HETATM   16  C7          0      60.439  61.526  -1.914  1.00  0.00     0.026 C 
HETATM   17  C8          0      60.407  62.689  -1.153  1.00  0.00     0.112 C 
HETATM   18  C10         0      61.124  63.751  -1.687  1.00  0.00     0.112 C 
HETATM   19  C12         0      62.199  63.469  -2.521  1.00  0.00     0.028 C 
BRANCH  17  20
HETATM   20  O9          0      59.875  62.686   0.125  1.00  0.00    -0.357 OA
HETATM   21  H9          0      59.808  61.908   0.667  1.00  0.00     0.218 HD
ENDBRANCH  17  20
BRANCH  18  22
HETATM   22  O11         0      60.973  64.985  -1.070  1.00  0.00    -0.357 OA
HETATM   23  H11         0      61.645  65.240  -0.448  1.00  0.00     0.218 HD
ENDBRANCH  18  22
ENDBRANCH   4  14
BRANCH   8  24
HETATM   24  O17         0      68.543  63.278   0.009  1.00  0.00    -0.359 OA
HETATM   25  H17         0      69.086  64.006  -0.271  1.00  0.00     0.218 HD
ENDBRANCH   8  24
TORSDOF 5
ENDMDL
MODEL 5
REMARK VINA RESULT:      -2.3      3.299      5.969
REMARK  5 active torsions:
REMARK  status: ('A' for Active; 'I' for Inactive)
REMARK    1  A    between atoms: C4_4  and  C5_5 
REMARK    2  A    between atoms: C8_8  and  O9_9 
REMARK    3  A    between atoms: C10_11  and  O11_12 
REMARK    4  A    between atoms: C16_18  and  O17_19 
REMARK    5  A    between atoms: C19_22  and  O20_23 
ROOT
HETATM    1  O1          0      63.772  63.602   0.125  1.00  0.00    -0.286 OA
HETATM    2  C2          0      63.974  62.756  -0.788  1.00  0.00     0.201 C 
HETATM    3  C3          0      65.241  62.330  -1.149  1.00  0.00     0.067 C 
HETATM    4  C4          0      65.443  61.474  -2.227  1.00  0.00     0.103 C 
HETATM    5  O13         0      64.391  61.047  -2.903  1.00  0.00    -0.307 OA
HETATM    6  C14         0      63.170  61.450  -2.626  1.00  0.00     0.107 C 
HETATM    7  C15         0      62.137  61.338  -3.545  1.00  0.00     0.049 C 
HETATM    8  C16         0      60.924  61.988  -3.350  1.00  0.00     0.093 C 
HETATM    9  C18         0      60.620  62.278  -2.025  1.00  0.00     0.048 C 
HETATM   10  C19         0      61.625  62.351  -1.070  1.00  0.00     0.096 C 
HETATM   11  C21         0      62.924  62.120  -1.432  1.00  0.00     0.084 C 
ENDROOT
BRANCH  10  12
HETATM   12  O20         0      61.391  63.048   0.111  1.00  0.00    -0.359 OA
HETATM   13  H20         0      61.830  62.750   0.898  1.00  0.00     0.218 HD
ENDBRANCH  10  12
BRANCH   4  14
HETATM   14  C5          0      66.736  61.549  -2.908  1.00  0.00     0.025 C 
HETATM   15  C6          0      67.075  62.582  -3.770  1.00  0.00     0.004 C 
HETATM   16  C7          0      68.384  63.050  -3.732  1.00  0.00     0.026 C 
HETATM   17  C8          0      69.360  62.426  -2.963  1.00  0.00     0.112 C 
HETATM   18  C10         0      69.101  61.094  -2.666  1.00  0.00     0.112 C 
HETATM   19  C12         0      67.777  60.672  -2.627  1.00  0.00     0.028 C 
BRANCH  17  20
HETATM   20  O9          0      70.381  63.157  -2.383  1.00  0.00    -0.357 OA
HETATM   21  H9          0      70.702  63.982  -2.729  1.00  0.00     0.218 HD
ENDBRANCH  17  20
BRANCH  18  22
HETATM   22  O11         0      70.123  60.373  -2.066  1.00  0.00    -0.357 OA
HETATM   23  H11         0      69.927  59.479  -1.812  1.00  0.00     0.218 HD
ENDBRANCH  18  22
ENDBRANCH   4  14
BRANCH   8  24
HETATM   24  O17         0      60.244  62.596  -4.411  1.00  0.00    -0.359 OA
HETATM   25  H17         0      60.026  62.118  -5.203  1.00  0.00     0.218 HD
ENDBRANCH   8  24
TORSDOF 5
ENDMDL
MODEL 6
REMARK VINA RESULT:      -2.2      3.541      6.227
REMARK  5 active torsions:
REMARK  status: ('A' for Active; 'I' for Inactive)
REMARK    1  A    between atoms: C4_4  and  C5_5 
REMARK    2  A    between atoms: C8_8  and  O9_9 
REMARK    3  A    between atoms: C10_11  and  O11_12 
REMARK    4  A    between atoms: C16_18  and  O17_19 
REMARK    5  A    between atoms: C19_22  and  O20_23 
ROOT
HETATM    1  O1          0      60.680  62.820  -4.672  1.00  0.00    -0.286 OA
HETATM    2  C2          0      60.535  63.418  -3.571  1.00  0.00     0.201 C 
HETATM    3  C3          0      59.965  64.676  -3.470  1.00  0.00     0.067 C 
HETATM    4  C4          0      59.911  65.356  -2.259  1.00  0.00     0.103 C 
HETATM    5  O13         0      60.400  64.771  -1.180  1.00  0.00    -0.307 OA
HETATM    6  C14         0      60.985  63.594  -1.227  1.00  0.00     0.107 C 
HETATM    7  C15         0      61.836  63.160  -0.221  1.00  0.00     0.049 C 
HETATM    8  C16         0      62.644  62.042  -0.391  1.00  0.00     0.093 C 
HETATM    9  C18         0      62.186  61.125  -1.330  1.00  0.00     0.048 C 
HETATM   10  C19         0      61.298  61.515  -2.323  1.00  0.00     0.096 C 
HETATM   11  C21         0      60.856  62.809  -2.368  1.00  0.00     0.084 C 
ENDROOT
BRANCH  10  12
HETATM   12  O20         0      61.190  60.748  -3.479  1.00  0.00    -0.359 OA
HETATM   13  H20         0      60.765  59.902  -3.414  1.00  0.00     0.218 HD
ENDBRANCH  10  12
BRANCH   4  14
HETATM   14  C5          0      59.876  66.819  -2.313  1.00  0.00     0.025 C 
HETATM   15  C6          0      59.908  67.614  -1.177  1.00  0.00     0.004 C 
HETATM   16  C7          0      60.643  68.794  -1.236  1.00  0.00     0.026 C 
HETATM   17  C8          0      61.215  69.238  -2.424  1.00  0.00     0.112 C 
HETATM   18  C10         0      60.616  68.745  -3.575  1.00  0.00     0.112 C 
HETATM   19  C12         0      59.960  67.522  -3.508  1.00  0.00     0.028 C 
BRANCH  17  20
HETATM   20  O9          0      62.410  69.936  -2.417  1.00  0.00    -0.357 OA
HETATM   21  H9          0      63.097  69.811  -3.061  1.00  0.00     0.218 HD
ENDBRANCH  17  20
BRANCH  18  22
HETATM   22  O11         0      61.022  69.299  -4.781  1.00  0.00    -0.357 OA
HETATM   23  H11         0      60.746  68.854  -5.574  1.00  0.00     0.218 HD
ENDBRANCH  18  22
ENDBRANCH   4  14
BRANCH   8  24
HETATM   24  O17         0      63.959  62.014   0.085  1.00  0.00    -0.359 OA
HETATM   25  H17         0      64.155  62.077   1.012  1.00  0.00     0.218 HD
ENDBRANCH   8  24
TORSDOF 5
ENDMDL
MODEL 7
REMARK VINA RESULT:      -2.1      3.552      6.460
REMARK  5 active torsions:
REMARK  status: ('A' for Active; 'I' for Inactive)
REMARK    1  A    between atoms: C4_4  and  C5_5 
REMARK    2  A    between atoms: C8_8  and  O9_9 
REMARK    3  A    between atoms: C10_11  and  O11_12 
REMARK    4  A    between atoms: C16_18  and  O17_19 
REMARK    5  A    between atoms: C19_22  and  O20_23 
ROOT
HETATM    1  O1          0      62.344  65.607  -3.134  1.00  0.00    -0.286 OA
HETATM    2  C2          0      62.785  64.767  -2.301  1.00  0.00     0.201 C 
HETATM    3  C3          0      64.000  64.918  -1.656  1.00  0.00     0.067 C 
HETATM    4  C4          0      64.509  63.929  -0.822  1.00  0.00     0.103 C 
HETATM    5  O13         0      63.799  62.831  -0.631  1.00  0.00    -0.307 OA
HETATM    6  C14         0      62.657  62.622  -1.248  1.00  0.00     0.107 C 
HETATM    7  C15         0      62.115  61.351  -1.373  1.00  0.00     0.049 C 
HETATM    8  C16         0      61.054  61.099  -2.235  1.00  0.00     0.093 C 
HETATM    9  C18         0      60.259  62.202  -2.524  1.00  0.00     0.048 C 
HETATM   10  C19         0      60.754  63.489  -2.366  1.00  0.00     0.096 C 
HETATM   11  C21         0      62.029  63.675  -1.905  1.00  0.00     0.084 C 
ENDROOT
BRANCH  10  12
HETATM   12  O20         0      60.146  64.540  -3.047  1.00  0.00    -0.359 OA
HETATM   13  H20         0      60.605  64.913  -3.789  1.00  0.00     0.218 HD
ENDBRANCH  10  12
BRANCH   4  14
HETATM   14  C5          0      65.964  63.861  -0.674  1.00  0.00     0.025 C 
HETATM   15  C6          0      66.631  62.696  -0.322  1.00  0.00     0.004 C 
HETATM   16  C7          0      67.852  62.441  -0.937  1.00  0.00     0.026 C 
HETATM   17  C8          0      68.457  63.374  -1.773  1.00  0.00     0.112 C 
HETATM   18  C10         0      68.059  64.687  -1.559  1.00  0.00     0.112 C 
HETATM   19  C12         0      66.798  64.916  -1.021  1.00  0.00     0.028 C 
BRANCH  17  20
HETATM   20  O9          0      69.221  62.968  -2.853  1.00  0.00    -0.357 OA
HETATM   21  H9          0      69.001  63.161  -3.757  1.00  0.00     0.218 HD
ENDBRANCH  17  20
BRANCH  18  22
HETATM   22  O11         0      68.765  65.674  -2.231  1.00  0.00    -0.357 OA
HETATM   23  H11         0      68.718  66.554  -1.875  1.00  0.00     0.218 HD
ENDBRANCH  18  22
ENDBRANCH   4  14
BRANCH   8  24
HETATM   24  O17         0      61.000  59.931  -3.004  1.00  0.00    -0.359 OA
HETATM   25  H17         0      60.924  59.074  -2.603  1.00  0.00     0.218 HD
ENDBRANCH   8  24
TORSDOF 5
ENDMDL
MODEL 8
REMARK VINA RESULT:      -2.1      3.851      7.023
REMARK  5 active torsions:
REMARK  status: ('A' for Active; 'I' for Inactive)
REMARK    1  A    between atoms: C4_4  and  C5_5 
REMARK    2  A    between atoms: C8_8  and  O9_9 
REMARK    3  A    between atoms: C10_11  and  O11_12 
REMARK    4  A    between atoms: C16_18  and  O17_19 
REMARK    5  A    between atoms: C19_22  and  O20_23 
ROOT
HETATM    1  O1          0      67.886  64.581  -3.517  1.00  0.00    -0.286 OA
HETATM    2  C2          0      67.049  63.722  -3.909  1.00  0.00     0.201 C 
HETATM    3  C3          0      65.867  63.463  -3.236  1.00  0.00     0.067 C 
HETATM    4  C4          0      65.012  62.441  -3.631  1.00  0.00     0.103 C 
HETATM    5  O13         0      65.335  61.717  -4.689  1.00  0.00    -0.307 OA
HETATM    6  C14         0      66.462  61.897  -5.341  1.00  0.00     0.107 C 
HETATM    7  C15         0      66.990  60.918  -6.171  1.00  0.00     0.049 C 
HETATM    8  C16         0      68.291  61.004  -6.652  1.00  0.00     0.093 C 
HETATM    9  C18         0      68.810  62.292  -6.714  1.00  0.00     0.048 C 
HETATM   10  C19         0      68.275  63.306  -5.931  1.00  0.00     0.096 C 
HETATM   11  C21         0      67.218  63.040  -5.104  1.00  0.00     0.084 C 
ENDROOT
BRANCH  10  12
HETATM   12  O20         0      69.041  64.437  -5.666  1.00  0.00    -0.359 OA
HETATM   13  H20         0      69.173  65.060  -6.371  1.00  0.00     0.218 HD
ENDBRANCH  10  12
BRANCH   4  14
HETATM   14  C5          0      64.162  61.843  -2.600  1.00  0.00     0.025 C 
HETATM   15  C6          0      64.344  62.078  -1.245  1.00  0.00     0.004 C 
HETATM   16  C7          0      63.207  62.208  -0.455  1.00  0.00     0.026 C 
HETATM   17  C8          0      61.934  61.980  -0.966  1.00  0.00     0.112 C 
HETATM   18  C10         0      61.897  61.164  -2.088  1.00  0.00     0.112 C 
HETATM   19  C12         0      63.018  61.117  -2.908  1.00  0.00     0.028 C 
BRANCH  17  20
HETATM   20  O9          0      60.844  62.695  -0.499  1.00  0.00    -0.357 OA
HETATM   21  H9          0      60.846  63.191   0.311  1.00  0.00     0.218 HD
ENDBRANCH  17  20
BRANCH  18  22
HETATM   22  O11         0      60.646  60.751  -2.524  1.00  0.00    -0.357 OA
HETATM   23  H11         0      60.622  60.032  -3.145  1.00  0.00     0.218 HD
ENDBRANCH  18  22
ENDBRANCH   4  14
BRANCH   8  24
HETATM   24  O17         0      69.112  59.875  -6.739  1.00  0.00    -0.359 OA
HETATM   25  H17         0      69.277  59.319  -5.987  1.00  0.00     0.218 HD
ENDBRANCH   8  24
TORSDOF 5
ENDMDL
MODEL 9
REMARK VINA RESULT:      -2.0      3.297      4.826
REMARK  5 active torsions:
REMARK  status: ('A' for Active; 'I' for Inactive)
REMARK    1  A    between atoms: C4_4  and  C5_5 
REMARK    2  A    between atoms: C8_8  and  O9_9 
REMARK    3  A    between atoms: C10_11  and  O11_12 
REMARK    4  A    between atoms: C16_18  and  O17_19 
REMARK    5  A    between atoms: C19_22  and  O20_23 
ROOT
HETATM    1  O1          0      64.751  66.460  -3.232  1.00  0.00    -0.286 OA
HETATM    2  C2          0      64.229  65.708  -2.363  1.00  0.00     0.201 C 
HETATM    3  C3          0      64.402  64.335  -2.359  1.00  0.00     0.067 C 
HETATM    4  C4          0      63.733  63.519  -1.453  1.00  0.00     0.103 C 
HETATM    5  O13         0      62.931  64.081  -0.566  1.00  0.00    -0.307 OA
HETATM    6  C14         0      62.703  65.376  -0.550  1.00  0.00     0.107 C 
HETATM    7  C15         0      61.593  65.915   0.085  1.00  0.00     0.049 C 
HETATM    8  C16         0      61.220  67.238  -0.115  1.00  0.00     0.093 C 
HETATM    9  C18         0      62.248  68.085  -0.510  1.00  0.00     0.048 C 
HETATM   10  C19         0      63.393  67.575  -1.106  1.00  0.00     0.096 C 
HETATM   11  C21         0      63.518  66.225  -1.291  1.00  0.00     0.084 C 
ENDROOT
BRANCH  10  12
HETATM   12  O20         0      64.193  68.415  -1.874  1.00  0.00    -0.359 OA
HETATM   13  H20         0      64.939  68.034  -2.321  1.00  0.00     0.218 HD
ENDBRANCH  10  12
BRANCH   4  14
HETATM   14  C5          0      63.477  62.136  -1.859  1.00  0.00     0.025 C 
HETATM   15  C6          0      62.371  61.419  -1.428  1.00  0.00     0.004 C 
HETATM   16  C7          0      61.757  60.569  -2.343  1.00  0.00     0.026 C 
HETATM   17  C8          0      62.301  60.337  -3.601  1.00  0.00     0.112 C 
HETATM   18  C10         0      63.666  60.572  -3.695  1.00  0.00     0.112 C 
HETATM   19  C12         0      64.240  61.490  -2.823  1.00  0.00     0.028 C 
BRANCH  17  20
HETATM   20  O9          0      61.486  60.101  -4.694  1.00  0.00    -0.357 OA
HETATM   21  H9          0      61.716  59.519  -5.409  1.00  0.00     0.218 HD
ENDBRANCH  17  20
BRANCH  18  22
HETATM   22  O11         0      64.293  60.178  -4.869  1.00  0.00    -0.357 OA
HETATM   23  H11         0      65.183  59.855  -4.794  1.00  0.00     0.218 HD
ENDBRANCH  18  22
ENDBRANCH   4  14
BRANCH   8  24
HETATM   24  O17         0      59.875  67.606  -0.240  1.00  0.00    -0.359 OA
HETATM   25  H17         0      59.399  67.487  -1.053  1.00  0.00     0.218 HD
ENDBRANCH   8  24
TORSDOF 5
ENDMDL
