MODEL 1
REMARK VINA RESULT:      -5.1      0.000      0.000
REMARK  5 active torsions:
REMARK  status: ('A' for Active; 'I' for Inactive)
REMARK    1  A    between atoms: C4_4  and  C5_5 
REMARK    2  A    between atoms: C8_8  and  O9_9 
REMARK    3  A    between atoms: C10_11  and  O11_12 
REMARK    4  A    between atoms: C16_18  and  O17_19 
REMARK    5  A    between atoms: C19_22  and  O20_23 
ROOT
HETATM    1  O1          0      46.929   0.759 -17.111  1.00  0.00    -0.286 OA
HETATM    2  C2          0      47.715   1.641 -17.554  1.00  0.00     0.201 C 
HETATM    3  C3          0      48.926   1.335 -18.152  1.00  0.00     0.067 C 
HETATM    4  C4          0      49.819   2.327 -18.540  1.00  0.00     0.103 C 
HETATM    5  O13         0      49.485   3.591 -18.347  1.00  0.00    -0.307 OA
HETATM    6  C14         0      48.365   3.936 -17.750  1.00  0.00     0.107 C 
HETATM    7  C15         0      48.191   5.194 -17.192  1.00  0.00     0.049 C 
HETATM    8  C16         0      47.121   5.468 -16.349  1.00  0.00     0.093 C 
HETATM    9  C18         0      46.012   4.648 -16.523  1.00  0.00     0.048 C 
HETATM   10  C19         0      46.143   3.402 -17.121  1.00  0.00     0.096 C 
HETATM   11  C21         0      47.370   2.984 -17.557  1.00  0.00     0.084 C 
ENDROOT
BRANCH  10  12
HETATM   12  O20         0      45.164   2.437 -16.903  1.00  0.00    -0.359 OA
HETATM   13  H20         0      45.125   1.700 -17.500  1.00  0.00     0.218 HD
ENDBRANCH  10  12
BRANCH   4  14
HETATM   14  C5          0      51.238   1.972 -18.583  1.00  0.00     0.025 C 
HETATM   15  C6          0      51.683   0.660 -18.665  1.00  0.00     0.004 C 
HETATM   16  C7          0      52.794   0.404 -19.461  1.00  0.00     0.026 C 
HETATM   17  C8          0      53.522   1.433 -20.050  1.00  0.00     0.112 C 
HETATM   18  C10         0      53.401   2.664 -19.418  1.00  0.00     0.112 C 
HETATM   19  C12         0      52.241   2.925 -18.698  1.00  0.00     0.028 C 
BRANCH  17  20
HETATM   20  O9          0      54.130   1.257 -21.280  1.00  0.00    -0.357 OA
HETATM   21  H9          0      53.823   0.644 -21.938  1.00  0.00     0.218 HD
ENDBRANCH  17  20
BRANCH  18  22
HETATM   22  O11         0      54.248   3.676 -19.847  1.00  0.00    -0.357 OA
HETATM   23  H11         0      55.128   3.681 -19.487  1.00  0.00     0.218 HD
ENDBRANCH  18  22
ENDBRANCH   4  14
BRANCH   8  24
HETATM   24  O17         0      47.276   6.263 -15.208  1.00  0.00    -0.359 OA
HETATM   25  H17         0      47.569   5.899 -14.382  1.00  0.00     0.218 HD
ENDBRANCH   8  24
TORSDOF 5
ENDMDL
MODEL 2
REMARK VINA RESULT:      -5.1      3.041      5.016
REMARK  5 active torsions:
REMARK  status: ('A' for Active; 'I' for Inactive)
REMARK    1  A    between atoms: C4_4  and  C5_5 
REMARK    2  A    between atoms: C8_8  and  O9_9 
REMARK    3  A    between atoms: C10_11  and  O11_12 
REMARK    4  A    between atoms: C16_18  and  O17_19 
REMARK    5  A    between atoms: C19_22  and  O20_23 
ROOT
HETATM    1  O1          0      51.040   8.679 -18.518  1.00  0.00    -0.286 OA
HETATM    2  C2          0      50.425   7.771 -17.894  1.00  0.00     0.201 C 
HETATM    3  C3          0      50.731   6.427 -18.032  1.00  0.00     0.067 C 
HETATM    4  C4          0      49.972   5.441 -17.412  1.00  0.00     0.103 C 
HETATM    5  O13         0      48.949   5.805 -16.660  1.00  0.00    -0.307 OA
HETATM    6  C14         0      48.593   7.064 -16.526  1.00  0.00     0.107 C 
HETATM    7  C15         0      47.326   7.424 -16.089  1.00  0.00     0.049 C 
HETATM    8  C16         0      46.872   8.733 -16.191  1.00  0.00     0.093 C 
HETATM    9  C18         0      47.870   9.699 -16.231  1.00  0.00     0.048 C 
HETATM   10  C19         0      49.160   9.364 -16.620  1.00  0.00     0.096 C 
HETATM   11  C21         0      49.456   8.070 -16.949  1.00  0.00     0.084 C 
ENDROOT
BRANCH  10  12
HETATM   12  O20         0      50.015  10.364 -17.073  1.00  0.00    -0.359 OA
HETATM   13  H20         0      49.631  11.190 -17.343  1.00  0.00     0.218 HD
ENDBRANCH  10  12
BRANCH   4  14
HETATM   14  C5          0      49.947   4.120 -18.044  1.00  0.00     0.025 C 
HETATM   15  C6          0      50.715   3.803 -19.155  1.00  0.00     0.004 C 
HETATM   16  C7          0      51.272   2.529 -19.211  1.00  0.00     0.026 C 
HETATM   17  C8          0      50.968   1.558 -18.263  1.00  0.00     0.112 C 
HETATM   18  C10         0      49.761   1.748 -17.605  1.00  0.00     0.112 C 
HETATM   19  C12         0      49.269   3.042 -17.489  1.00  0.00     0.028 C 
BRANCH  17  20
HETATM   20  O9          0      51.910   0.618 -17.885  1.00  0.00    -0.357 OA
HETATM   21  H9          0      52.845   0.724 -18.017  1.00  0.00     0.218 HD
ENDBRANCH  17  20
BRANCH  18  22
HETATM   22  O11         0      49.320   0.715 -16.790  1.00  0.00    -0.357 OA
HETATM   23  H11         0      49.591   0.739 -15.880  1.00  0.00     0.218 HD
ENDBRANCH  18  22
ENDBRANCH   4  14
BRANCH   8  24
HETATM   24  O17         0      45.554   9.020 -16.562  1.00  0.00    -0.359 OA
HETATM   25  H17         0      45.328   9.820 -17.023  1.00  0.00     0.218 HD
ENDBRANCH   8  24
TORSDOF 5
ENDMDL
MODEL 3
REMARK VINA RESULT:      -5.1     11.092     14.019
REMARK  5 active torsions:
REMARK  status: ('A' for Active; 'I' for Inactive)
REMARK    1  A    between atoms: C4_4  and  C5_5 
REMARK    2  A    between atoms: C8_8  and  O9_9 
REMARK    3  A    between atoms: C10_11  and  O11_12 
REMARK    4  A    between atoms: C16_18  and  O17_19 
REMARK    5  A    between atoms: C19_22  and  O20_23 
ROOT
HETATM    1  O1          0      53.658  12.271 -17.323  1.00  0.00    -0.286 OA
HETATM    2  C2          0      53.448  13.056 -16.359  1.00  0.00     0.201 C 
HETATM    3  C3          0      52.242  13.107 -15.680  1.00  0.00     0.067 C 
HETATM    4  C4          0      52.002  14.052 -14.689  1.00  0.00     0.103 C 
HETATM    5  O13         0      52.963  14.905 -14.380  1.00  0.00    -0.307 OA
HETATM    6  C14         0      54.112  14.925 -15.019  1.00  0.00     0.107 C 
HETATM    7  C15         0      54.946  16.033 -14.989  1.00  0.00     0.049 C 
HETATM    8  C16         0      56.024  16.150 -15.858  1.00  0.00     0.093 C 
HETATM    9  C18         0      56.521  14.945 -16.341  1.00  0.00     0.048 C 
HETATM   10  C19         0      55.729  13.805 -16.343  1.00  0.00     0.096 C 
HETATM   11  C21         0      54.454  13.863 -15.849  1.00  0.00     0.084 C 
ENDROOT
BRANCH  10  12
HETATM   12  O20         0      56.051  12.754 -17.196  1.00  0.00    -0.359 OA
HETATM   13  H20         0      56.825  12.843 -17.740  1.00  0.00     0.218 HD
ENDBRANCH  10  12
BRANCH   4  14
HETATM   14  C5          0      50.611  14.443 -14.460  1.00  0.00     0.025 C 
HETATM   15  C6          0      49.535  13.742 -14.987  1.00  0.00     0.004 C 
HETATM   16  C7          0      48.404  13.604 -14.190  1.00  0.00     0.026 C 
HETATM   17  C8          0      48.290  14.252 -12.965  1.00  0.00     0.112 C 
HETATM   18  C10         0      49.088  15.381 -12.830  1.00  0.00     0.112 C 
HETATM   19  C12         0      50.258  15.455 -13.576  1.00  0.00     0.028 C 
BRANCH  17  20
HETATM   20  O9          0      47.596  13.673 -11.917  1.00  0.00    -0.357 OA
HETATM   21  H9          0      47.498  12.734 -11.804  1.00  0.00     0.218 HD
ENDBRANCH  17  20
BRANCH  18  22
HETATM   22  O11         0      48.876  16.170 -11.708  1.00  0.00    -0.357 OA
HETATM   23  H11         0      48.015  16.560 -11.613  1.00  0.00     0.218 HD
ENDBRANCH  18  22
ENDBRANCH   4  14
BRANCH   8  24
HETATM   24  O17         0      56.351  17.373 -16.455  1.00  0.00    -0.359 OA
HETATM   25  H17         0      56.774  17.417 -17.304  1.00  0.00     0.218 HD
ENDBRANCH   8  24
TORSDOF 5
ENDMDL
MODEL 4
REMARK VINA RESULT:      -4.9      5.617      7.704
REMARK  5 active torsions:
REMARK  status: ('A' for Active; 'I' for Inactive)
REMARK    1  A    between atoms: C4_4  and  C5_5 
REMARK    2  A    between atoms: C8_8  and  O9_9 
REMARK    3  A    between atoms: C10_11  and  O11_12 
REMARK    4  A    between atoms: C16_18  and  O17_19 
REMARK    5  A    between atoms: C19_22  and  O20_23 
ROOT
HETATM    1  O1          0      47.422   9.071 -16.391  1.00  0.00    -0.286 OA
HETATM    2  C2          0      48.651   8.895 -16.617  1.00  0.00     0.201 C 
HETATM    3  C3          0      49.562   9.937 -16.662  1.00  0.00     0.067 C 
HETATM    4  C4          0      50.891   9.728 -17.013  1.00  0.00     0.103 C 
HETATM    5  O13         0      51.289   8.499 -17.290  1.00  0.00    -0.307 OA
HETATM    6  C14         0      50.457   7.480 -17.298  1.00  0.00     0.107 C 
HETATM    7  C15         0      50.757   6.297 -17.957  1.00  0.00     0.049 C 
HETATM    8  C16         0      49.785   5.329 -18.180  1.00  0.00     0.093 C 
HETATM    9  C18         0      48.718   5.352 -17.291  1.00  0.00     0.048 C 
HETATM   10  C19         0      48.418   6.506 -16.579  1.00  0.00     0.096 C 
HETATM   11  C21         0      49.190   7.624 -16.742  1.00  0.00     0.084 C 
ENDROOT
BRANCH  10  12
HETATM   12  O20         0      47.142   6.666 -16.049  1.00  0.00    -0.359 OA
HETATM   13  H20         0      46.778   7.543 -16.022  1.00  0.00     0.218 HD
ENDBRANCH  10  12
BRANCH   4  14
HETATM   14  C5          0      51.610  10.853 -17.615  1.00  0.00     0.025 C 
HETATM   15  C6          0      51.759  12.076 -16.978  1.00  0.00     0.004 C 
HETATM   16  C7          0      52.976  12.735 -17.125  1.00  0.00     0.026 C 
HETATM   17  C8          0      53.962  12.262 -17.983  1.00  0.00     0.112 C 
HETATM   18  C10         0      53.498  11.446 -19.006  1.00  0.00     0.112 C 
HETATM   19  C12         0      52.323  10.733 -18.800  1.00  0.00     0.028 C 
BRANCH  17  20
HETATM   20  O9          0      55.303  12.435 -17.687  1.00  0.00    -0.357 OA
HETATM   21  H9          0      55.623  12.731 -16.842  1.00  0.00     0.218 HD
ENDBRANCH  17  20
BRANCH  18  22
HETATM   22  O11         0      54.406  11.102 -19.997  1.00  0.00    -0.357 OA
HETATM   23  H11         0      54.217  10.319 -20.501  1.00  0.00     0.218 HD
ENDBRANCH  18  22
ENDBRANCH   4  14
BRANCH   8  24
HETATM   24  O17         0      49.721   4.624 -19.388  1.00  0.00    -0.359 OA
HETATM   25  H17         0      50.238   3.841 -19.537  1.00  0.00     0.218 HD
ENDBRANCH   8  24
TORSDOF 5
ENDMDL
MODEL 5
REMARK VINA RESULT:      -4.9      8.415     10.807
REMARK  5 active torsions:
REMARK  status: ('A' for Active; 'I' for Inactive)
REMARK    1  A    between atoms: C4_4  and  C5_5 
REMARK    2  A    between atoms: C8_8  and  O9_9 
REMARK    3  A    between atoms: C10_11  and  O11_12 
REMARK    4  A    between atoms: C16_18  and  O17_19 
REMARK    5  A    between atoms: C19_22  and  O20_23 
ROOT
HETATM    1  O1          0      54.656  13.527 -18.759  1.00  0.00    -0.286 OA
HETATM    2  C2          0      54.013  12.930 -17.853  1.00  0.00     0.201 C 
HETATM    3  C3          0      53.315  11.756 -18.078  1.00  0.00     0.067 C 
HETATM    4  C4          0      52.531  11.173 -17.088  1.00  0.00     0.103 C 
HETATM    5  O13         0      52.474  11.751 -15.901  1.00  0.00    -0.307 OA
HETATM    6  C14         0      53.088  12.886 -15.646  1.00  0.00     0.107 C 
HETATM    7  C15         0      52.724  13.689 -14.575  1.00  0.00     0.049 C 
HETATM    8  C16         0      53.192  14.992 -14.458  1.00  0.00     0.093 C 
HETATM    9  C18         0      54.391  15.246 -15.113  1.00  0.00     0.048 C 
HETATM   10  C19         0      54.809  14.434 -16.159  1.00  0.00     0.096 C 
HETATM   11  C21         0      54.043  13.365 -16.537  1.00  0.00     0.084 C 
ENDROOT
BRANCH  10  12
HETATM   12  O20         0      55.741  14.923 -17.070  1.00  0.00    -0.359 OA
HETATM   13  H20         0      56.289  14.296 -17.525  1.00  0.00     0.218 HD
ENDBRANCH  10  12
BRANCH   4  14
HETATM   14  C5          0      51.403  10.349 -17.526  1.00  0.00     0.025 C 
HETATM   15  C6          0      51.211   9.978 -18.849  1.00  0.00     0.004 C 
HETATM   16  C7          0      50.734   8.695 -19.095  1.00  0.00     0.026 C 
HETATM   17  C8          0      50.332   7.855 -18.062  1.00  0.00     0.112 C 
HETATM   18  C10         0      49.966   8.508 -16.893  1.00  0.00     0.112 C 
HETATM   19  C12         0      50.525   9.754 -16.630  1.00  0.00     0.028 C 
BRANCH  17  20
HETATM   20  O9          0      50.501   6.485 -18.156  1.00  0.00    -0.357 OA
HETATM   21  H9          0      50.847   6.047 -18.925  1.00  0.00     0.218 HD
ENDBRANCH  17  20
BRANCH  18  22
HETATM   22  O11         0      49.381   7.737 -15.899  1.00  0.00    -0.357 OA
HETATM   23  H11         0      49.156   6.842 -16.125  1.00  0.00     0.218 HD
ENDBRANCH  18  22
ENDBRANCH   4  14
BRANCH   8  24
HETATM   24  O17         0      52.364  16.028 -14.013  1.00  0.00    -0.359 OA
HETATM   25  H17         0      52.343  16.294 -13.101  1.00  0.00     0.218 HD
ENDBRANCH   8  24
TORSDOF 5
ENDMDL
MODEL 6
REMARK VINA RESULT:      -4.9      2.872      8.160
REMARK  5 active torsions:
REMARK  status: ('A' for Active; 'I' for Inactive)
REMARK    1  A    between atoms: C4_4  and  C5_5 
REMARK    2  A    between atoms: C8_8  and  O9_9 
REMARK    3  A    between atoms: C10_11  and  O11_12 
REMARK    4  A    between atoms: C16_18  and  O17_19 
REMARK    5  A    between atoms: C19_22  and  O20_23 
ROOT
HETATM    1  O1          0      48.789   7.756 -15.782  1.00  0.00    -0.286 OA
HETATM    2  C2          0      48.164   6.713 -16.119  1.00  0.00     0.201 C 
HETATM    3  C3          0      46.864   6.455 -15.717  1.00  0.00     0.067 C 
HETATM    4  C4          0      46.235   5.252 -16.017  1.00  0.00     0.103 C 
HETATM    5  O13         0      46.894   4.349 -16.720  1.00  0.00    -0.307 OA
HETATM    6  C14         0      48.141   4.528 -17.094  1.00  0.00     0.107 C 
HETATM    7  C15         0      48.953   3.466 -17.466  1.00  0.00     0.049 C 
HETATM    8  C16         0      50.326   3.623 -17.612  1.00  0.00     0.093 C 
HETATM    9  C18         0      50.741   4.919 -17.894  1.00  0.00     0.048 C 
HETATM   10  C19         0      49.933   6.003 -17.578  1.00  0.00     0.096 C 
HETATM   11  C21         0      48.711   5.793 -17.000  1.00  0.00     0.084 C 
ENDROOT
BRANCH  10  12
HETATM   12  O20         0      50.506   7.265 -17.452  1.00  0.00    -0.359 OA
HETATM   13  H20         0      50.202   7.952 -18.032  1.00  0.00     0.218 HD
ENDBRANCH  10  12
BRANCH   4  14
HETATM   14  C5          0      45.179   4.804 -15.107  1.00  0.00     0.025 C 
HETATM   15  C6          0      45.118   5.192 -13.776  1.00  0.00     0.004 C 
HETATM   16  C7          0      43.862   5.447 -13.235  1.00  0.00     0.026 C 
HETATM   17  C8          0      42.696   5.198 -13.951  1.00  0.00     0.112 C 
HETATM   18  C10         0      42.827   4.256 -14.962  1.00  0.00     0.112 C 
HETATM   19  C12         0      44.077   4.081 -15.544  1.00  0.00     0.028 C 
BRANCH  17  20
HETATM   20  O9          0      41.576   5.993 -13.781  1.00  0.00    -0.357 OA
HETATM   21  H9          0      41.341   6.405 -12.958  1.00  0.00     0.218 HD
ENDBRANCH  17  20
BRANCH  18  22
HETATM   22  O11         0      41.659   3.831 -15.580  1.00  0.00    -0.357 OA
HETATM   23  H11         0      41.287   4.406 -16.239  1.00  0.00     0.218 HD
ENDBRANCH  18  22
ENDBRANCH   4  14
BRANCH   8  24
HETATM   24  O17         0      51.223   2.641 -17.179  1.00  0.00    -0.359 OA
HETATM   25  H17         0      51.316   1.813 -17.635  1.00  0.00     0.218 HD
ENDBRANCH   8  24
TORSDOF 5
ENDMDL
MODEL 7
REMARK VINA RESULT:      -4.8      2.592      4.957
REMARK  5 active torsions:
REMARK  status: ('A' for Active; 'I' for Inactive)
REMARK    1  A    between atoms: C4_4  and  C5_5 
REMARK    2  A    between atoms: C8_8  and  O9_9 
REMARK    3  A    between atoms: C10_11  and  O11_12 
REMARK    4  A    between atoms: C16_18  and  O17_19 
REMARK    5  A    between atoms: C19_22  and  O20_23 
ROOT
HETATM    1  O1          0      47.029   9.064 -17.990  1.00  0.00    -0.286 OA
HETATM    2  C2          0      47.342   8.054 -17.303  1.00  0.00     0.201 C 
HETATM    3  C3          0      48.311   7.148 -17.698  1.00  0.00     0.067 C 
HETATM    4  C4          0      48.564   5.989 -16.974  1.00  0.00     0.103 C 
HETATM    5  O13         0      47.871   5.765 -15.871  1.00  0.00    -0.307 OA
HETATM    6  C14         0      46.915   6.574 -15.471  1.00  0.00     0.107 C 
HETATM    7  C15         0      45.938   6.164 -14.575  1.00  0.00     0.049 C 
HETATM    8  C16         0      44.796   6.925 -14.354  1.00  0.00     0.093 C 
HETATM    9  C18         0      44.932   8.280 -14.628  1.00  0.00     0.048 C 
HETATM   10  C19         0      45.929   8.730 -15.484  1.00  0.00     0.096 C 
HETATM   11  C21         0      46.795   7.834 -16.048  1.00  0.00     0.084 C 
ENDROOT
BRANCH  10  12
HETATM   12  O20         0      45.796   9.977 -16.087  1.00  0.00    -0.359 OA
HETATM   13  H20         0      45.693  10.006 -17.030  1.00  0.00     0.218 HD
ENDBRANCH  10  12
BRANCH   4  14
HETATM   14  C5          0      49.108   4.845 -17.708  1.00  0.00     0.025 C 
HETATM   15  C6          0      50.135   4.964 -18.633  1.00  0.00     0.004 C 
HETATM   16  C7          0      51.089   3.952 -18.671  1.00  0.00     0.026 C 
HETATM   17  C8          0      50.955   2.795 -17.911  1.00  0.00     0.112 C 
HETATM   18  C10         0      49.652   2.493 -17.538  1.00  0.00     0.112 C 
HETATM   19  C12         0      48.739   3.535 -17.425  1.00  0.00     0.028 C 
BRANCH  17  20
HETATM   20  O9          0      52.068   2.144 -17.408  1.00  0.00    -0.357 OA
HETATM   21  H9          0      52.098   1.736 -16.550  1.00  0.00     0.218 HD
ENDBRANCH  17  20
BRANCH  18  22
HETATM   22  O11         0      49.438   1.258 -16.944  1.00  0.00    -0.357 OA
HETATM   23  H11         0      48.916   1.247 -16.150  1.00  0.00     0.218 HD
ENDBRANCH  18  22
ENDBRANCH   4  14
BRANCH   8  24
HETATM   24  O17         0      43.540   6.328 -14.199  1.00  0.00    -0.359 OA
HETATM   25  H17         0      42.739   6.786 -14.422  1.00  0.00     0.218 HD
ENDBRANCH   8  24
TORSDOF 5
ENDMDL
MODEL 8
REMARK VINA RESULT:      -4.7      3.267      4.681
REMARK  5 active torsions:
REMARK  status: ('A' for Active; 'I' for Inactive)
REMARK    1  A    between atoms: C4_4  and  C5_5 
REMARK    2  A    between atoms: C8_8  and  O9_9 
REMARK    3  A    between atoms: C10_11  and  O11_12 
REMARK    4  A    between atoms: C16_18  and  O17_19 
REMARK    5  A    between atoms: C19_22  and  O20_23 
ROOT
HETATM    1  O1          0      47.708   6.984 -15.535  1.00  0.00    -0.286 OA
HETATM    2  C2          0      48.545   6.910 -16.476  1.00  0.00     0.201 C 
HETATM    3  C3          0      48.948   5.707 -17.029  1.00  0.00     0.067 C 
HETATM    4  C4          0      49.948   5.646 -17.993  1.00  0.00     0.103 C 
HETATM    5  O13         0      50.507   6.772 -18.399  1.00  0.00    -0.307 OA
HETATM    6  C14         0      50.189   7.938 -17.879  1.00  0.00     0.107 C 
HETATM    7  C15         0      51.021   9.042 -17.996  1.00  0.00     0.049 C 
HETATM    8  C16         0      50.810  10.188 -17.239  1.00  0.00     0.093 C 
HETATM    9  C18         0      49.502  10.372 -16.806  1.00  0.00     0.048 C 
HETATM   10  C19         0      48.628   9.297 -16.722  1.00  0.00     0.096 C 
HETATM   11  C21         0      49.053   8.047 -17.085  1.00  0.00     0.084 C 
ENDROOT
BRANCH  10  12
HETATM   12  O20         0      47.508   9.393 -15.903  1.00  0.00    -0.359 OA
HETATM   13  H20         0      47.014   8.600 -15.730  1.00  0.00     0.218 HD
ENDBRANCH  10  12
BRANCH   4  14
HETATM   14  C5          0      50.718   4.404 -18.082  1.00  0.00     0.025 C 
HETATM   15  C6          0      50.356   3.245 -17.412  1.00  0.00     0.004 C 
HETATM   16  C7          0      50.540   2.034 -18.072  1.00  0.00     0.026 C 
HETATM   17  C8          0      51.185   1.965 -19.302  1.00  0.00     0.112 C 
HETATM   18  C10         0      52.039   3.027 -19.569  1.00  0.00     0.112 C 
HETATM   19  C12         0      51.782   4.250 -18.961  1.00  0.00     0.028 C 
BRANCH  17  20
HETATM   20  O9          0      50.820   1.017 -20.241  1.00  0.00    -0.357 OA
HETATM   21  H9          0      50.844   1.167 -21.179  1.00  0.00     0.218 HD
ENDBRANCH  17  20
BRANCH  18  22
HETATM   22  O11         0      52.848   2.915 -20.691  1.00  0.00    -0.357 OA
HETATM   23  H11         0      52.699   2.165 -21.256  1.00  0.00     0.218 HD
ENDBRANCH  18  22
ENDBRANCH   4  14
BRANCH   8  24
HETATM   24  O17         0      51.877  10.901 -16.681  1.00  0.00    -0.359 OA
HETATM   25  H17         0      52.757  10.840 -17.035  1.00  0.00     0.218 HD
ENDBRANCH   8  24
TORSDOF 5
ENDMDL
MODEL 9
REMARK VINA RESULT:      -4.4      6.530      9.661
REMARK  5 active torsions:
REMARK  status: ('A' for Active; 'I' for Inactive)
REMARK    1  A    between atoms: C4_4  and  C5_5 
REMARK    2  A    between atoms: C8_8  and  O9_9 
REMARK    3  A    between atoms: C10_11  and  O11_12 
REMARK    4  A    between atoms: C16_18  and  O17_19 
REMARK    5  A    between atoms: C19_22  and  O20_23 
ROOT
HETATM    1  O1          0      52.198  10.180 -20.575  1.00  0.00    -0.286 OA
HETATM    2  C2          0      51.974  10.227 -19.334  1.00  0.00     0.201 C 
HETATM    3  C3          0      50.957   9.509 -18.728  1.00  0.00     0.067 C 
HETATM    4  C4          0      50.667   9.657 -17.376  1.00  0.00     0.103 C 
HETATM    5  O13         0      51.397  10.491 -16.658  1.00  0.00    -0.307 OA
HETATM    6  C14         0      52.349  11.225 -17.192  1.00  0.00     0.107 C 
HETATM    7  C15         0      52.837  12.361 -16.562  1.00  0.00     0.049 C 
HETATM    8  C16         0      53.649  13.266 -17.234  1.00  0.00     0.093 C 
HETATM    9  C18         0      54.353  12.737 -18.309  1.00  0.00     0.048 C 
HETATM   10  C19         0      53.920  11.575 -18.933  1.00  0.00     0.096 C 
HETATM   11  C21         0      52.800  10.936 -18.475  1.00  0.00     0.084 C 
ENDROOT
BRANCH  10  12
HETATM   12  O20         0      54.344  11.299 -20.229  1.00  0.00    -0.359 OA
HETATM   13  H20         0      53.879  11.712 -20.947  1.00  0.00     0.218 HD
ENDBRANCH  10  12
BRANCH   4  14
HETATM   14  C5          0      49.293   9.378 -16.952  1.00  0.00     0.025 C 
HETATM   15  C6          0      48.190  10.003 -17.517  1.00  0.00     0.004 C 
HETATM   16  C7          0      47.045   9.237 -17.711  1.00  0.00     0.026 C 
HETATM   17  C8          0      46.952   7.932 -17.238  1.00  0.00     0.112 C 
HETATM   18  C10         0      47.802   7.636 -16.181  1.00  0.00     0.112 C 
HETATM   19  C12         0      48.982   8.360 -16.060  1.00  0.00     0.028 C 
BRANCH  17  20
HETATM   20  O9          0      46.220   6.980 -17.925  1.00  0.00    -0.357 OA
HETATM   21  H9          0      45.874   7.111 -18.801  1.00  0.00     0.218 HD
ENDBRANCH  17  20
BRANCH  18  22
HETATM   22  O11         0      47.618   6.414 -15.550  1.00  0.00    -0.357 OA
HETATM   23  H11         0      46.968   6.381 -14.858  1.00  0.00     0.218 HD
ENDBRANCH  18  22
ENDBRANCH   4  14
BRANCH   8  24
HETATM   24  O17         0      53.506  14.647 -17.057  1.00  0.00    -0.359 OA
HETATM   25  H17         0      53.730  15.264 -17.743  1.00  0.00     0.218 HD
ENDBRANCH   8  24
TORSDOF 5
ENDMDL
