MODEL 1
REMARK VINA RESULT:      -7.9      0.000      0.000
REMARK  5 active torsions:
REMARK  status: ('A' for Active; 'I' for Inactive)
REMARK    1  A    between atoms: C4_4  and  C5_5 
REMARK    2  A    between atoms: C8_8  and  O9_9 
REMARK    3  A    between atoms: C10_11  and  O11_12 
REMARK    4  A    between atoms: C16_18  and  O17_19 
REMARK    5  A    between atoms: C19_22  and  O20_23 
ROOT
HETATM    1  O1          0      43.045  40.571  12.836  1.00  0.00    -0.286 OA
HETATM    2  C2          0      43.535  40.297  13.966  1.00  0.00     0.201 C 
HETATM    3  C3          0      43.884  41.268  14.889  1.00  0.00     0.067 C 
HETATM    4  C4          0      44.517  40.943  16.083  1.00  0.00     0.103 C 
HETATM    5  O13         0      44.768  39.672  16.344  1.00  0.00    -0.307 OA
HETATM    6  C14         0      44.492  38.715  15.486  1.00  0.00     0.107 C 
HETATM    7  C15         0      45.095  37.468  15.562  1.00  0.00     0.049 C 
HETATM    8  C16         0      44.998  36.554  14.520  1.00  0.00     0.093 C 
HETATM    9  C18         0      43.889  36.717  13.698  1.00  0.00     0.048 C 
HETATM   10  C19         0      43.233  37.938  13.633  1.00  0.00     0.096 C 
HETATM   11  C21         0      43.670  38.986  14.397  1.00  0.00     0.084 C 
ENDROOT
BRANCH  10  12
HETATM   12  O20         0      42.435  38.224  12.529  1.00  0.00    -0.359 OA
HETATM   13  H20         0      41.605  38.659  12.680  1.00  0.00     0.218 HD
ENDBRANCH  10  12
BRANCH   4  14
HETATM   14  C5          0      45.367  41.969  16.691  1.00  0.00     0.025 C 
HETATM   15  C6          0      45.931  41.828  17.951  1.00  0.00     0.004 C 
HETATM   16  C7          0      47.223  42.309  18.135  1.00  0.00     0.026 C 
HETATM   17  C8          0      47.884  43.026  17.143  1.00  0.00     0.112 C 
HETATM   18  C10         0      47.049  43.643  16.221  1.00  0.00     0.112 C 
HETATM   19  C12         0      45.794  43.091  15.994  1.00  0.00     0.028 C 
BRANCH  17  20
HETATM   20  O9          0      49.256  42.931  16.995  1.00  0.00    -0.357 OA
HETATM   21  H9          0      49.679  42.449  16.294  1.00  0.00     0.218 HD
ENDBRANCH  17  20
BRANCH  18  22
HETATM   22  O11         0      47.642  44.522  15.326  1.00  0.00    -0.357 OA
HETATM   23  H11         0      47.420  45.441  15.415  1.00  0.00     0.218 HD
ENDBRANCH  18  22
ENDBRANCH   4  14
BRANCH   8  24
HETATM   24  O17         0      46.090  35.767  14.136  1.00  0.00    -0.359 OA
HETATM   25  H17         0      46.983  36.028  14.325  1.00  0.00     0.218 HD
ENDBRANCH   8  24
TORSDOF 5
ENDMDL
MODEL 2
REMARK VINA RESULT:      -7.8      1.701      3.015
REMARK  5 active torsions:
REMARK  status: ('A' for Active; 'I' for Inactive)
REMARK    1  A    between atoms: C4_4  and  C5_5 
REMARK    2  A    between atoms: C8_8  and  O9_9 
REMARK    3  A    between atoms: C10_11  and  O11_12 
REMARK    4  A    between atoms: C16_18  and  O17_19 
REMARK    5  A    between atoms: C19_22  and  O20_23 
ROOT
HETATM    1  O1          0      45.200  37.513  15.558  1.00  0.00    -0.286 OA
HETATM    2  C2          0      44.773  38.526  14.940  1.00  0.00     0.201 C 
HETATM    3  C3          0      45.235  39.807  15.188  1.00  0.00     0.067 C 
HETATM    4  C4          0      44.675  40.917  14.567  1.00  0.00     0.103 C 
HETATM    5  O13         0      43.691  40.732  13.704  1.00  0.00    -0.307 OA
HETATM    6  C14         0      43.190  39.541  13.460  1.00  0.00     0.107 C 
HETATM    7  C15         0      41.936  39.379  12.889  1.00  0.00     0.049 C 
HETATM    8  C16         0      41.307  38.140  12.868  1.00  0.00     0.093 C 
HETATM    9  C18         0      42.163  37.047  12.937  1.00  0.00     0.048 C 
HETATM   10  C19         0      43.441  37.184  13.460  1.00  0.00     0.096 C 
HETATM   11  C21         0      43.870  38.409  13.894  1.00  0.00     0.084 C 
ENDROOT
BRANCH  10  12
HETATM   12  O20         0      44.111  36.056  13.925  1.00  0.00    -0.359 OA
HETATM   13  H20         0      43.992  35.241  13.451  1.00  0.00     0.218 HD
ENDBRANCH  10  12
BRANCH   4  14
HETATM   14  C5          0      44.761  42.196  15.275  1.00  0.00     0.025 C 
HETATM   15  C6          0      43.789  42.629  16.164  1.00  0.00     0.004 C 
HETATM   16  C7          0      44.214  43.301  17.306  1.00  0.00     0.026 C 
HETATM   17  C8          0      45.547  43.650  17.494  1.00  0.00     0.112 C 
HETATM   18  C10         0      46.290  43.749  16.325  1.00  0.00     0.112 C 
HETATM   19  C12         0      45.892  43.000  15.224  1.00  0.00     0.028 C 
BRANCH  17  20
HETATM   20  O9          0      46.101  43.677  18.761  1.00  0.00    -0.357 OA
HETATM   21  H9          0      46.522  44.441  19.137  1.00  0.00     0.218 HD
ENDBRANCH  17  20
BRANCH  18  22
HETATM   22  O11         0      47.569  44.275  16.437  1.00  0.00    -0.357 OA
HETATM   23  H11         0      47.873  44.486  17.312  1.00  0.00     0.218 HD
ENDBRANCH  18  22
ENDBRANCH   4  14
BRANCH   8  24
HETATM   24  O17         0      39.933  38.015  13.100  1.00  0.00    -0.359 OA
HETATM   25  H17         0      39.592  37.439  13.774  1.00  0.00     0.218 HD
ENDBRANCH   8  24
TORSDOF 5
ENDMDL
MODEL 3
REMARK VINA RESULT:      -7.7      4.806      6.822
REMARK  5 active torsions:
REMARK  status: ('A' for Active; 'I' for Inactive)
REMARK    1  A    between atoms: C4_4  and  C5_5 
REMARK    2  A    between atoms: C8_8  and  O9_9 
REMARK    3  A    between atoms: C10_11  and  O11_12 
REMARK    4  A    between atoms: C16_18  and  O17_19 
REMARK    5  A    between atoms: C19_22  and  O20_23 
ROOT
HETATM    1  O1          0      46.739  43.637  15.239  1.00  0.00    -0.286 OA
HETATM    2  C2          0      46.306  43.648  16.424  1.00  0.00     0.201 C 
HETATM    3  C3          0      45.023  44.052  16.751  1.00  0.00     0.067 C 
HETATM    4  C4          0      44.605  44.152  18.073  1.00  0.00     0.103 C 
HETATM    5  O13         0      45.454  43.832  19.033  1.00  0.00    -0.307 OA
HETATM    6  C14         0      46.695  43.478  18.780  1.00  0.00     0.107 C 
HETATM    7  C15         0      47.683  43.530  19.752  1.00  0.00     0.049 C 
HETATM    8  C16         0      49.027  43.403  19.422  1.00  0.00     0.093 C 
HETATM    9  C18         0      49.279  42.716  18.241  1.00  0.00     0.048 C 
HETATM   10  C19         0      48.297  42.604  17.266  1.00  0.00     0.096 C 
HETATM   11  C21         0      47.065  43.160  17.477  1.00  0.00     0.084 C 
ENDROOT
BRANCH  10  12
HETATM   12  O20         0      48.669  42.318  15.956  1.00  0.00    -0.359 OA
HETATM   13  H20         0      49.584  42.415  15.722  1.00  0.00     0.218 HD
ENDBRANCH  10  12
BRANCH   4  14
HETATM   14  C5          0      43.537  45.110  18.367  1.00  0.00     0.025 C 
HETATM   15  C6          0      43.312  45.619  19.638  1.00  0.00     0.004 C 
HETATM   16  C7          0      42.945  46.956  19.741  1.00  0.00     0.026 C 
HETATM   17  C8          0      42.677  47.728  18.615  1.00  0.00     0.112 C 
HETATM   18  C10         0      42.313  47.003  17.488  1.00  0.00     0.112 C 
HETATM   19  C12         0      42.766  45.694  17.371  1.00  0.00     0.028 C 
BRANCH  17  20
HETATM   20  O9          0      42.968  49.081  18.598  1.00  0.00    -0.357 OA
HETATM   21  H9          0      43.088  49.605  19.381  1.00  0.00     0.218 HD
ENDBRANCH  17  20
BRANCH  18  22
HETATM   22  O11         0      41.855  47.727  16.397  1.00  0.00    -0.357 OA
HETATM   23  H11         0      42.414  48.426  16.079  1.00  0.00     0.218 HD
ENDBRANCH  18  22
ENDBRANCH   4  14
BRANCH   8  24
HETATM   24  O17         0      50.007  44.188  20.041  1.00  0.00    -0.359 OA
HETATM   25  H17         0      49.971  45.137  20.022  1.00  0.00     0.218 HD
ENDBRANCH   8  24
TORSDOF 5
ENDMDL
MODEL 4
REMARK VINA RESULT:      -7.7      3.845      8.777
REMARK  5 active torsions:
REMARK  status: ('A' for Active; 'I' for Inactive)
REMARK    1  A    between atoms: C4_4  and  C5_5 
REMARK    2  A    between atoms: C8_8  and  O9_9 
REMARK    3  A    between atoms: C10_11  and  O11_12 
REMARK    4  A    between atoms: C16_18  and  O17_19 
REMARK    5  A    between atoms: C19_22  and  O20_23 
ROOT
HETATM    1  O1          0      40.410  37.882  12.989  1.00  0.00    -0.286 OA
HETATM    2  C2          0      41.370  37.065  13.038  1.00  0.00     0.201 C 
HETATM    3  C3          0      41.216  35.710  12.799  1.00  0.00     0.067 C 
HETATM    4  C4          0      42.269  34.817  12.961  1.00  0.00     0.103 C 
HETATM    5  O13         0      43.447  35.286  13.332  1.00  0.00    -0.307 OA
HETATM    6  C14         0      43.639  36.558  13.607  1.00  0.00     0.107 C 
HETATM    7  C15         0      44.720  36.987  14.363  1.00  0.00     0.049 C 
HETATM    8  C16         0      44.782  38.282  14.864  1.00  0.00     0.093 C 
HETATM    9  C18         0      44.037  39.220  14.159  1.00  0.00     0.048 C 
HETATM   10  C19         0      42.977  38.820  13.357  1.00  0.00     0.096 C 
HETATM   11  C21         0      42.673  37.491  13.245  1.00  0.00     0.084 C 
ENDROOT
BRANCH  10  12
HETATM   12  O20         0      41.993  39.745  13.019  1.00  0.00    -0.359 OA
HETATM   13  H20         0      42.052  40.168  12.171  1.00  0.00     0.218 HD
ENDBRANCH  10  12
BRANCH   4  14
HETATM   14  C5          0      41.928  33.431  13.285  1.00  0.00     0.025 C 
HETATM   15  C6          0      40.635  32.936  13.203  1.00  0.00     0.004 C 
HETATM   16  C7          0      40.470  31.637  12.732  1.00  0.00     0.026 C 
HETATM   17  C8          0      41.559  30.810  12.478  1.00  0.00     0.112 C 
HETATM   18  C10         0      42.716  31.146  13.168  1.00  0.00     0.112 C 
HETATM   19  C12         0      42.894  32.470  13.553  1.00  0.00     0.028 C 
BRANCH  17  20
HETATM   20  O9          0      41.516  29.876  11.459  1.00  0.00    -0.357 OA
HETATM   21  H9          0      40.816  29.824  10.819  1.00  0.00     0.218 HD
ENDBRANCH  17  20
BRANCH  18  22
HETATM   22  O11         0      43.772  30.249  13.098  1.00  0.00    -0.357 OA
HETATM   23  H11         0      44.197  30.020  13.917  1.00  0.00     0.218 HD
ENDBRANCH  18  22
ENDBRANCH   4  14
BRANCH   8  24
HETATM   24  O17         0      45.269  38.544  16.149  1.00  0.00    -0.359 OA
HETATM   25  H17         0      44.700  38.849  16.846  1.00  0.00     0.218 HD
ENDBRANCH   8  24
TORSDOF 5
ENDMDL
MODEL 5
REMARK VINA RESULT:      -7.6      1.885      6.462
REMARK  5 active torsions:
REMARK  status: ('A' for Active; 'I' for Inactive)
REMARK    1  A    between atoms: C4_4  and  C5_5 
REMARK    2  A    between atoms: C8_8  and  O9_9 
REMARK    3  A    between atoms: C10_11  and  O11_12 
REMARK    4  A    between atoms: C16_18  and  O17_19 
REMARK    5  A    between atoms: C19_22  and  O20_23 
ROOT
HETATM    1  O1          0      46.558  43.493  14.983  1.00  0.00    -0.286 OA
HETATM    2  C2          0      46.002  42.415  15.330  1.00  0.00     0.201 C 
HETATM    3  C3          0      45.648  41.428  14.425  1.00  0.00     0.067 C 
HETATM    4  C4          0      44.944  40.296  14.820  1.00  0.00     0.103 C 
HETATM    5  O13         0      44.627  40.159  16.095  1.00  0.00    -0.307 OA
HETATM    6  C14         0      44.906  41.083  16.988  1.00  0.00     0.107 C 
HETATM    7  C15         0      44.247  41.143  18.208  1.00  0.00     0.049 C 
HETATM    8  C16         0      44.357  42.255  19.034  1.00  0.00     0.093 C 
HETATM    9  C18         0      45.511  43.008  18.854  1.00  0.00     0.048 C 
HETATM   10  C19         0      46.221  42.937  17.663  1.00  0.00     0.096 C 
HETATM   11  C21         0      45.791  42.106  16.665  1.00  0.00     0.084 C 
ENDROOT
BRANCH  10  12
HETATM   12  O20         0      47.083  43.974  17.322  1.00  0.00    -0.359 OA
HETATM   13  H20         0      47.689  44.285  17.983  1.00  0.00     0.218 HD
ENDBRANCH  10  12
BRANCH   4  14
HETATM   14  C5          0      44.109  39.641  13.812  1.00  0.00     0.025 C 
HETATM   15  C6          0      43.928  38.266  13.763  1.00  0.00     0.004 C 
HETATM   16  C7          0      42.663  37.795  13.428  1.00  0.00     0.026 C 
HETATM   17  C8          0      41.648  38.655  13.023  1.00  0.00     0.112 C 
HETATM   18  C10         0      42.086  39.866  12.504  1.00  0.00     0.112 C 
HETATM   19  C12         0      43.318  40.356  12.922  1.00  0.00     0.028 C 
BRANCH  17  20
HETATM   20  O9          0      40.325  38.381  13.324  1.00  0.00    -0.357 OA
HETATM   21  H9          0      40.000  37.513  13.533  1.00  0.00     0.218 HD
ENDBRANCH  17  20
BRANCH  18  22
HETATM   22  O11         0      41.130  40.679  11.914  1.00  0.00    -0.357 OA
HETATM   23  H11         0      40.956  40.538  10.990  1.00  0.00     0.218 HD
ENDBRANCH  18  22
ENDBRANCH   4  14
BRANCH   8  24
HETATM   24  O17         0      43.254  42.755  19.734  1.00  0.00    -0.359 OA
HETATM   25  H17         0      43.312  43.546  20.258  1.00  0.00     0.218 HD
ENDBRANCH   8  24
TORSDOF 5
ENDMDL
MODEL 6
REMARK VINA RESULT:      -7.6      3.116      5.729
REMARK  5 active torsions:
REMARK  status: ('A' for Active; 'I' for Inactive)
REMARK    1  A    between atoms: C4_4  and  C5_5 
REMARK    2  A    between atoms: C8_8  and  O9_9 
REMARK    3  A    between atoms: C10_11  and  O11_12 
REMARK    4  A    between atoms: C16_18  and  O17_19 
REMARK    5  A    between atoms: C19_22  and  O20_23 
ROOT
HETATM    1  O1          0      45.158  33.523  16.031  1.00  0.00    -0.286 OA
HETATM    2  C2          0      44.604  34.207  15.127  1.00  0.00     0.201 C 
HETATM    3  C3          0      44.834  35.563  14.964  1.00  0.00     0.067 C 
HETATM    4  C4          0      44.134  36.314  14.027  1.00  0.00     0.103 C 
HETATM    5  O13         0      43.243  35.705  13.264  1.00  0.00    -0.307 OA
HETATM    6  C14         0      42.959  34.429  13.403  1.00  0.00     0.107 C 
HETATM    7  C15         0      41.782  33.884  12.910  1.00  0.00     0.049 C 
HETATM    8  C16         0      41.368  32.609  13.275  1.00  0.00     0.093 C 
HETATM    9  C18         0      42.387  31.756  13.683  1.00  0.00     0.048 C 
HETATM   10  C19         0      43.595  32.266  14.138  1.00  0.00     0.096 C 
HETATM   11  C21         0      43.791  33.620  14.170  1.00  0.00     0.084 C 
ENDROOT
BRANCH  10  12
HETATM   12  O20         0      44.415  31.470  14.931  1.00  0.00    -0.359 OA
HETATM   13  H20         0      45.352  31.615  14.889  1.00  0.00     0.218 HD
ENDBRANCH  10  12
BRANCH   4  14
HETATM   14  C5          0      43.969  37.742  14.301  1.00  0.00     0.025 C 
HETATM   15  C6          0      44.443  38.346  15.457  1.00  0.00     0.004 C 
HETATM   16  C7          0      44.983  39.623  15.343  1.00  0.00     0.026 C 
HETATM   17  C8          0      44.932  40.331  14.147  1.00  0.00     0.112 C 
HETATM   18  C10         0      43.923  39.935  13.281  1.00  0.00     0.112 C 
HETATM   19  C12         0      43.460  38.627  13.360  1.00  0.00     0.028 C 
BRANCH  17  20
HETATM   20  O9          0      45.949  41.202  13.796  1.00  0.00    -0.357 OA
HETATM   21  H9          0      46.007  41.632  12.951  1.00  0.00     0.218 HD
ENDBRANCH  17  20
BRANCH  18  22
HETATM   22  O11         0      43.708  40.728  12.162  1.00  0.00    -0.357 OA
HETATM   23  H11         0      43.433  41.625  12.317  1.00  0.00     0.218 HD
ENDBRANCH  18  22
ENDBRANCH   4  14
BRANCH   8  24
HETATM   24  O17         0      40.023  32.324  13.534  1.00  0.00    -0.359 OA
HETATM   25  H17         0      39.321  32.782  13.087  1.00  0.00     0.218 HD
ENDBRANCH   8  24
TORSDOF 5
ENDMDL
MODEL 7
REMARK VINA RESULT:      -7.6      3.517      8.184
REMARK  5 active torsions:
REMARK  status: ('A' for Active; 'I' for Inactive)
REMARK    1  A    between atoms: C4_4  and  C5_5 
REMARK    2  A    between atoms: C8_8  and  O9_9 
REMARK    3  A    between atoms: C10_11  and  O11_12 
REMARK    4  A    between atoms: C16_18  and  O17_19 
REMARK    5  A    between atoms: C19_22  and  O20_23 
ROOT
HETATM    1  O1          0      40.723  36.968  13.237  1.00  0.00    -0.286 OA
HETATM    2  C2          0      41.895  36.510  13.329  1.00  0.00     0.201 C 
HETATM    3  C3          0      42.187  35.163  13.203  1.00  0.00     0.067 C 
HETATM    4  C4          0      43.472  34.673  13.411  1.00  0.00     0.103 C 
HETATM    5  O13         0      44.434  35.526  13.715  1.00  0.00    -0.307 OA
HETATM    6  C14         0      44.204  36.810  13.883  1.00  0.00     0.107 C 
HETATM    7  C15         0      45.086  37.626  14.576  1.00  0.00     0.049 C 
HETATM    8  C16         0      44.725  38.909  14.969  1.00  0.00     0.093 C 
HETATM    9  C18         0      43.720  39.495  14.210  1.00  0.00     0.048 C 
HETATM   10  C19         0      42.848  38.710  13.467  1.00  0.00     0.096 C 
HETATM   11  C21         0      42.990  37.349  13.470  1.00  0.00     0.084 C 
ENDROOT
BRANCH  10  12
HETATM   12  O20         0      41.620  39.236  13.080  1.00  0.00    -0.359 OA
HETATM   13  H20         0      41.606  39.842  12.349  1.00  0.00     0.218 HD
ENDBRANCH  10  12
BRANCH   4  14
HETATM   14  C5          0      43.595  33.283  13.853  1.00  0.00     0.025 C 
HETATM   15  C6          0      44.559  32.866  14.759  1.00  0.00     0.004 C 
HETATM   16  C7          0      44.190  31.905  15.696  1.00  0.00     0.026 C 
HETATM   17  C8          0      42.948  31.282  15.651  1.00  0.00     0.112 C 
HETATM   18  C10         0      42.341  31.289  14.403  1.00  0.00     0.112 C 
HETATM   19  C12         0      42.664  32.309  13.516  1.00  0.00     0.028 C 
BRANCH  17  20
HETATM   20  O9          0      42.309  30.891  16.814  1.00  0.00    -0.357 OA
HETATM   21  H9          0      41.378  31.004  16.969  1.00  0.00     0.218 HD
ENDBRANCH  17  20
BRANCH  18  22
HETATM   22  O11         0      41.194  30.521  14.257  1.00  0.00    -0.357 OA
HETATM   23  H11         0      41.218  29.640  14.613  1.00  0.00     0.218 HD
ENDBRANCH  18  22
ENDBRANCH   4  14
BRANCH   8  24
HETATM   24  O17         0      45.097  39.420  16.218  1.00  0.00    -0.359 OA
HETATM   25  H17         0      45.298  40.341  16.340  1.00  0.00     0.218 HD
ENDBRANCH   8  24
TORSDOF 5
ENDMDL
MODEL 8
REMARK VINA RESULT:      -7.5      1.791      6.306
REMARK  5 active torsions:
REMARK  status: ('A' for Active; 'I' for Inactive)
REMARK    1  A    between atoms: C4_4  and  C5_5 
REMARK    2  A    between atoms: C8_8  and  O9_9 
REMARK    3  A    between atoms: C10_11  and  O11_12 
REMARK    4  A    between atoms: C16_18  and  O17_19 
REMARK    5  A    between atoms: C19_22  and  O20_23 
ROOT
HETATM    1  O1          0      43.240  41.687  18.659  1.00  0.00    -0.286 OA
HETATM    2  C2          0      43.536  41.383  17.471  1.00  0.00     0.201 C 
HETATM    3  C3          0      43.143  40.194  16.881  1.00  0.00     0.067 C 
HETATM    4  C4          0      43.569  39.837  15.606  1.00  0.00     0.103 C 
HETATM    5  O13         0      44.351  40.670  14.942  1.00  0.00    -0.307 OA
HETATM    6  C14         0      44.784  41.794  15.470  1.00  0.00     0.107 C 
HETATM    7  C15         0      45.891  42.460  14.965  1.00  0.00     0.049 C 
HETATM    8  C16         0      46.494  43.495  15.670  1.00  0.00     0.093 C 
HETATM    9  C18         0      45.665  44.152  16.571  1.00  0.00     0.048 C 
HETATM   10  C19         0      44.524  43.532  17.061  1.00  0.00     0.096 C 
HETATM   11  C21         0      44.202  42.271  16.640  1.00  0.00     0.084 C 
ENDROOT
BRANCH  10  12
HETATM   12  O20         0      43.958  43.988  18.248  1.00  0.00    -0.359 OA
HETATM   13  H20         0      43.578  44.857  18.255  1.00  0.00     0.218 HD
ENDBRANCH  10  12
BRANCH   4  14
HETATM   14  C5          0      43.639  38.408  15.299  1.00  0.00     0.025 C 
HETATM   15  C6          0      43.448  37.903  14.021  1.00  0.00     0.004 C 
HETATM   16  C7          0      44.248  36.836  13.622  1.00  0.00     0.026 C 
HETATM   17  C8          0      45.114  36.204  14.507  1.00  0.00     0.112 C 
HETATM   18  C10         0      44.779  36.345  15.847  1.00  0.00     0.112 C 
HETATM   19  C12         0      44.052  37.465  16.232  1.00  0.00     0.028 C 
BRANCH  17  20
HETATM   20  O9          0      46.314  35.673  14.067  1.00  0.00    -0.357 OA
HETATM   21  H9          0      46.448  34.749  13.888  1.00  0.00     0.218 HD
ENDBRANCH  17  20
BRANCH  18  22
HETATM   22  O11         0      45.496  35.582  16.758  1.00  0.00    -0.357 OA
HETATM   23  H11         0      44.998  35.144  17.438  1.00  0.00     0.218 HD
ENDBRANCH  18  22
ENDBRANCH   4  14
BRANCH   8  24
HETATM   24  O17         0      47.886  43.633  15.714  1.00  0.00    -0.359 OA
HETATM   25  H17         0      48.429  43.455  14.956  1.00  0.00     0.218 HD
ENDBRANCH   8  24
TORSDOF 5
ENDMDL
MODEL 9
REMARK VINA RESULT:      -7.4      4.213      7.367
REMARK  5 active torsions:
REMARK  status: ('A' for Active; 'I' for Inactive)
REMARK    1  A    between atoms: C4_4  and  C5_5 
REMARK    2  A    between atoms: C8_8  and  O9_9 
REMARK    3  A    between atoms: C10_11  and  O11_12 
REMARK    4  A    between atoms: C16_18  and  O17_19 
REMARK    5  A    between atoms: C19_22  and  O20_23 
ROOT
HETATM    1  O1          0      44.830  32.275  16.402  1.00  0.00    -0.286 OA
HETATM    2  C2          0      44.414  32.744  15.307  1.00  0.00     0.201 C 
HETATM    3  C3          0      44.620  34.059  14.928  1.00  0.00     0.067 C 
HETATM    4  C4          0      44.063  34.577  13.764  1.00  0.00     0.103 C 
HETATM    5  O13         0      43.339  33.781  12.998  1.00  0.00    -0.307 OA
HETATM    6  C14         0      43.082  32.535  13.330  1.00  0.00     0.107 C 
HETATM    7  C15         0      42.028  31.830  12.767  1.00  0.00     0.049 C 
HETATM    8  C16         0      41.605  30.618  13.298  1.00  0.00     0.093 C 
HETATM    9  C18         0      42.569  29.925  14.020  1.00  0.00     0.048 C 
HETATM   10  C19         0      43.662  30.591  14.558  1.00  0.00     0.096 C 
HETATM   11  C21         0      43.800  31.938  14.361  1.00  0.00     0.084 C 
ENDROOT
BRANCH  10  12
HETATM   12  O20         0      44.362  30.010  15.610  1.00  0.00    -0.359 OA
HETATM   13  H20         0      45.264  30.275  15.746  1.00  0.00     0.218 HD
ENDBRANCH  10  12
BRANCH   4  14
HETATM   14  C5          0      43.801  36.017  13.730  1.00  0.00     0.025 C 
HETATM   15  C6          0      42.580  36.551  13.344  1.00  0.00     0.004 C 
HETATM   16  C7          0      42.116  37.666  14.035  1.00  0.00     0.026 C 
HETATM   17  C8          0      42.898  38.311  14.987  1.00  0.00     0.112 C 
HETATM   18  C10         0      44.265  38.114  14.844  1.00  0.00     0.112 C 
HETATM   19  C12         0      44.704  36.950  14.225  1.00  0.00     0.028 C 
BRANCH  17  20
HETATM   20  O9          0      42.319  38.912  16.091  1.00  0.00    -0.357 OA
HETATM   21  H9          0      42.711  38.916  16.956  1.00  0.00     0.218 HD
ENDBRANCH  17  20
BRANCH  18  22
HETATM   22  O11         0      45.098  38.883  15.646  1.00  0.00    -0.357 OA
HETATM   23  H11         0      46.025  38.868  15.441  1.00  0.00     0.218 HD
ENDBRANCH  18  22
ENDBRANCH   4  14
BRANCH   8  24
HETATM   24  O17         0      40.246  30.294  13.386  1.00  0.00    -0.359 OA
HETATM   25  H17         0      39.952  29.470  13.755  1.00  0.00     0.218 HD
ENDBRANCH   8  24
TORSDOF 5
ENDMDL
