MODEL 1
REMARK VINA RESULT:      -7.3      0.000      0.000
REMARK  5 active torsions:
REMARK  status: ('A' for Active; 'I' for Inactive)
REMARK    1  A    between atoms: C4_4  and  C5_5 
REMARK    2  A    between atoms: C8_8  and  O9_9 
REMARK    3  A    between atoms: C10_11  and  O11_12 
REMARK    4  A    between atoms: C16_18  and  O17_19 
REMARK    5  A    between atoms: C19_22  and  O20_23 
ROOT
HETATM    1  O1          0      30.855  56.935 -17.533  1.00  0.00    -0.286 OA
HETATM    2  C2          0      31.960  57.147 -16.963  1.00  0.00     0.201 C 
HETATM    3  C3          0      32.078  57.318 -15.595  1.00  0.00     0.067 C 
HETATM    4  C4          0      33.292  57.652 -15.004  1.00  0.00     0.103 C 
HETATM    5  O13         0      34.357  57.787 -15.775  1.00  0.00    -0.307 OA
HETATM    6  C14         0      34.292  57.672 -17.083  1.00  0.00     0.107 C 
HETATM    7  C15         0      35.275  58.193 -17.912  1.00  0.00     0.049 C 
HETATM    8  C16         0      35.082  58.296 -19.285  1.00  0.00     0.093 C 
HETATM    9  C18         0      34.154  57.408 -19.815  1.00  0.00     0.048 C 
HETATM   10  C19         0      33.185  56.832 -19.004  1.00  0.00     0.096 C 
HETATM   11  C21         0      33.154  57.128 -17.669  1.00  0.00     0.084 C 
ENDROOT
BRANCH  10  12
HETATM   12  O20         0      32.031  56.315 -19.585  1.00  0.00    -0.359 OA
HETATM   13  H20         0      32.114  55.864 -20.416  1.00  0.00     0.218 HD
ENDBRANCH  10  12
BRANCH   4  14
HETATM   14  C5          0      33.242  58.384 -13.737  1.00  0.00     0.025 C 
HETATM   15  C6          0      33.502  59.743 -13.643  1.00  0.00     0.004 C 
HETATM   16  C7          0      32.727  60.488 -12.760  1.00  0.00     0.026 C 
HETATM   17  C8          0      31.817  59.884 -11.900  1.00  0.00     0.112 C 
HETATM   18  C10         0      32.080  58.549 -11.621  1.00  0.00     0.112 C 
HETATM   19  C12         0      32.783  57.805 -12.561  1.00  0.00     0.028 C 
BRANCH  17  20
HETATM   20  O9          0      30.644  60.526 -11.545  1.00  0.00    -0.357 OA
HETATM   21  H9          0      30.358  60.644 -10.646  1.00  0.00     0.218 HD
ENDBRANCH  17  20
BRANCH  18  22
HETATM   22  O11         0      31.317  57.952 -10.627  1.00  0.00    -0.357 OA
HETATM   23  H11         0      31.350  57.004 -10.571  1.00  0.00     0.218 HD
ENDBRANCH  18  22
ENDBRANCH   4  14
BRANCH   8  24
HETATM   24  O17         0      35.524  59.413 -20.002  1.00  0.00    -0.359 OA
HETATM   25  H17         0      34.983  59.826 -20.665  1.00  0.00     0.218 HD
ENDBRANCH   8  24
TORSDOF 5
ENDMDL
MODEL 2
REMARK VINA RESULT:      -6.8      5.447      9.463
REMARK  5 active torsions:
REMARK  status: ('A' for Active; 'I' for Inactive)
REMARK    1  A    between atoms: C4_4  and  C5_5 
REMARK    2  A    between atoms: C8_8  and  O9_9 
REMARK    3  A    between atoms: C10_11  and  O11_12 
REMARK    4  A    between atoms: C16_18  and  O17_19 
REMARK    5  A    between atoms: C19_22  and  O20_23 
ROOT
HETATM    1  O1          0      34.150  55.273 -18.561  1.00  0.00    -0.286 OA
HETATM    2  C2          0      35.101  55.235 -19.390  1.00  0.00     0.201 C 
HETATM    3  C3          0      35.148  54.331 -20.437  1.00  0.00     0.067 C 
HETATM    4  C4          0      36.254  54.242 -21.274  1.00  0.00     0.103 C 
HETATM    5  O13         0      37.272  55.059 -21.069  1.00  0.00    -0.307 OA
HETATM    6  C14         0      37.295  55.910 -20.067  1.00  0.00     0.107 C 
HETATM    7  C15         0      38.479  56.469 -19.609  1.00  0.00     0.049 C 
HETATM    8  C16         0      38.533  57.159 -18.404  1.00  0.00     0.093 C 
HETATM    9  C18         0      37.325  57.703 -17.985  1.00  0.00     0.048 C 
HETATM   10  C19         0      36.122  57.199 -18.459  1.00  0.00     0.096 C 
HETATM   11  C21         0      36.125  56.169 -19.360  1.00  0.00     0.084 C 
ENDROOT
BRANCH  10  12
HETATM   12  O20         0      34.955  57.429 -17.737  1.00  0.00    -0.359 OA
HETATM   13  H20         0      34.917  57.117 -16.841  1.00  0.00     0.218 HD
ENDBRANCH  10  12
BRANCH   4  14
HETATM   14  C5          0      36.505  52.952 -21.919  1.00  0.00     0.025 C 
HETATM   15  C6          0      36.545  52.794 -23.297  1.00  0.00     0.004 C 
HETATM   16  C7          0      37.491  51.918 -23.818  1.00  0.00     0.026 C 
HETATM   17  C8          0      38.281  51.124 -22.995  1.00  0.00     0.112 C 
HETATM   18  C10         0      37.749  50.885 -21.735  1.00  0.00     0.112 C 
HETATM   19  C12         0      36.870  51.820 -21.201  1.00  0.00     0.028 C 
BRANCH  17  20
HETATM   20  O9          0      39.576  50.796 -23.356  1.00  0.00    -0.357 OA
HETATM   21  H9          0      39.984  49.961 -23.159  1.00  0.00     0.218 HD
ENDBRANCH  17  20
BRANCH  18  22
HETATM   22  O11         0      38.400  49.949 -20.944  1.00  0.00    -0.357 OA
HETATM   23  H11         0      38.795  49.209 -21.390  1.00  0.00     0.218 HD
ENDBRANCH  18  22
ENDBRANCH   4  14
BRANCH   8  24
HETATM   24  O17         0      39.620  57.023 -17.534  1.00  0.00    -0.359 OA
HETATM   25  H17         0      40.186  57.756 -17.324  1.00  0.00     0.218 HD
ENDBRANCH   8  24
TORSDOF 5
ENDMDL
MODEL 3
REMARK VINA RESULT:      -6.7      4.919      7.393
REMARK  5 active torsions:
REMARK  status: ('A' for Active; 'I' for Inactive)
REMARK    1  A    between atoms: C4_4  and  C5_5 
REMARK    2  A    between atoms: C8_8  and  O9_9 
REMARK    3  A    between atoms: C10_11  and  O11_12 
REMARK    4  A    between atoms: C16_18  and  O17_19 
REMARK    5  A    between atoms: C19_22  and  O20_23 
ROOT
HETATM    1  O1          0      37.538  55.553 -22.971  1.00  0.00    -0.286 OA
HETATM    2  C2          0      36.754  54.868 -22.258  1.00  0.00     0.201 C 
HETATM    3  C3          0      35.813  55.438 -21.417  1.00  0.00     0.067 C 
HETATM    4  C4          0      35.033  54.663 -20.566  1.00  0.00     0.103 C 
HETATM    5  O13         0      35.187  53.351 -20.583  1.00  0.00    -0.307 OA
HETATM    6  C14         0      36.091  52.762 -21.334  1.00  0.00     0.107 C 
HETATM    7  C15         0      36.531  51.472 -21.074  1.00  0.00     0.049 C 
HETATM    8  C16         0      37.656  50.953 -21.703  1.00  0.00     0.093 C 
HETATM    9  C18         0      37.968  51.537 -22.924  1.00  0.00     0.048 C 
HETATM   10  C19         0      37.505  52.809 -23.236  1.00  0.00     0.096 C 
HETATM   11  C21         0      36.722  53.485 -22.342  1.00  0.00     0.084 C 
ENDROOT
BRANCH  10  12
HETATM   12  O20         0      38.154  53.546 -24.222  1.00  0.00    -0.359 OA
HETATM   13  H20         0      38.584  54.353 -23.965  1.00  0.00     0.218 HD
ENDBRANCH  10  12
BRANCH   4  14
HETATM   14  C5          0      34.541  55.300 -19.343  1.00  0.00     0.025 C 
HETATM   15  C6          0      35.386  55.760 -18.343  1.00  0.00     0.004 C 
HETATM   16  C7          0      35.043  56.949 -17.707  1.00  0.00     0.026 C 
HETATM   17  C8          0      33.835  57.590 -17.960  1.00  0.00     0.112 C 
HETATM   18  C10         0      32.833  56.765 -18.454  1.00  0.00     0.112 C 
HETATM   19  C12         0      33.204  55.627 -19.160  1.00  0.00     0.028 C 
BRANCH  17  20
HETATM   20  O9          0      33.741  58.970 -17.915  1.00  0.00    -0.357 OA
HETATM   21  H9          0      34.480  59.544 -17.748  1.00  0.00     0.218 HD
ENDBRANCH  17  20
BRANCH  18  22
HETATM   22  O11         0      31.560  57.308 -18.544  1.00  0.00    -0.357 OA
HETATM   23  H11         0      31.460  58.083 -19.086  1.00  0.00     0.218 HD
ENDBRANCH  18  22
ENDBRANCH   4  14
BRANCH   8  24
HETATM   24  O17         0      38.576  50.157 -21.011  1.00  0.00    -0.359 OA
HETATM   25  H17         0      38.451  49.930 -20.097  1.00  0.00     0.218 HD
ENDBRANCH   8  24
TORSDOF 5
ENDMDL
MODEL 4
REMARK VINA RESULT:      -6.7      5.528      7.752
REMARK  5 active torsions:
REMARK  status: ('A' for Active; 'I' for Inactive)
REMARK    1  A    between atoms: C4_4  and  C5_5 
REMARK    2  A    between atoms: C8_8  and  O9_9 
REMARK    3  A    between atoms: C10_11  and  O11_12 
REMARK    4  A    between atoms: C16_18  and  O17_19 
REMARK    5  A    between atoms: C19_22  and  O20_23 
ROOT
HETATM    1  O1          0      38.322  59.261 -17.149  1.00  0.00    -0.286 OA
HETATM    2  C2          0      37.546  58.907 -18.079  1.00  0.00     0.201 C 
HETATM    3  C3          0      36.820  57.728 -18.043  1.00  0.00     0.067 C 
HETATM    4  C4          0      36.053  57.312 -19.124  1.00  0.00     0.103 C 
HETATM    5  O13         0      36.005  58.076 -20.201  1.00  0.00    -0.307 OA
HETATM    6  C14         0      36.704  59.186 -20.302  1.00  0.00     0.107 C 
HETATM    7  C15         0      36.976  59.769 -21.531  1.00  0.00     0.049 C 
HETATM    8  C16         0      37.917  60.784 -21.655  1.00  0.00     0.093 C 
HETATM    9  C18         0      38.149  61.515 -20.497  1.00  0.00     0.048 C 
HETATM   10  C19         0      37.844  60.980 -19.252  1.00  0.00     0.096 C 
HETATM   11  C21         0      37.296  59.729 -19.167  1.00  0.00     0.084 C 
ENDROOT
BRANCH  10  12
HETATM   12  O20         0      38.460  61.501 -18.118  1.00  0.00    -0.359 OA
HETATM   13  H20         0      38.158  61.200 -17.270  1.00  0.00     0.218 HD
ENDBRANCH  10  12
BRANCH   4  14
HETATM   14  C5          0      35.829  55.872 -19.272  1.00  0.00     0.025 C 
HETATM   15  C6          0      34.722  55.226 -18.741  1.00  0.00     0.004 C 
HETATM   16  C7          0      34.146  54.209 -19.497  1.00  0.00     0.026 C 
HETATM   17  C8          0      34.728  53.758 -20.676  1.00  0.00     0.112 C 
HETATM   18  C10         0      36.092  53.998 -20.779  1.00  0.00     0.112 C 
HETATM   19  C12         0      36.627  55.073 -20.080  1.00  0.00     0.028 C 
BRANCH  17  20
HETATM   20  O9          0      33.946  53.306 -21.725  1.00  0.00    -0.357 OA
HETATM   21  H9          0      33.330  53.854 -22.198  1.00  0.00     0.218 HD
ENDBRANCH  17  20
BRANCH  18  22
HETATM   22  O11         0      36.756  53.405 -21.843  1.00  0.00    -0.357 OA
HETATM   23  H11         0      37.404  53.934 -22.294  1.00  0.00     0.218 HD
ENDBRANCH  18  22
ENDBRANCH   4  14
BRANCH   8  24
HETATM   24  O17         0      38.792  60.838 -22.747  1.00  0.00    -0.359 OA
HETATM   25  H17         0      39.734  60.807 -22.633  1.00  0.00     0.218 HD
ENDBRANCH   8  24
TORSDOF 5
ENDMDL
MODEL 5
REMARK VINA RESULT:      -6.7      1.275      2.688
REMARK  5 active torsions:
REMARK  status: ('A' for Active; 'I' for Inactive)
REMARK    1  A    between atoms: C4_4  and  C5_5 
REMARK    2  A    between atoms: C8_8  and  O9_9 
REMARK    3  A    between atoms: C10_11  and  O11_12 
REMARK    4  A    between atoms: C16_18  and  O17_19 
REMARK    5  A    between atoms: C19_22  and  O20_23 
ROOT
HETATM    1  O1          0      36.534  59.326 -17.409  1.00  0.00    -0.286 OA
HETATM    2  C2          0      35.356  59.119 -17.007  1.00  0.00     0.201 C 
HETATM    3  C3          0      34.878  59.606 -15.803  1.00  0.00     0.067 C 
HETATM    4  C4          0      33.610  59.277 -15.336  1.00  0.00     0.103 C 
HETATM    5  O13         0      32.844  58.497 -16.077  1.00  0.00    -0.307 OA
HETATM    6  C14         0      33.262  57.977 -17.210  1.00  0.00     0.107 C 
HETATM    7  C15         0      32.647  56.871 -17.778  1.00  0.00     0.049 C 
HETATM    8  C16         0      33.239  56.175 -18.826  1.00  0.00     0.093 C 
HETATM    9  C18         0      34.136  56.914 -19.588  1.00  0.00     0.048 C 
HETATM   10  C19         0      34.735  58.053 -19.067  1.00  0.00     0.096 C 
HETATM   11  C21         0      34.426  58.462 -17.798  1.00  0.00     0.084 C 
ENDROOT
BRANCH  10  12
HETATM   12  O20         0      35.916  58.521 -19.634  1.00  0.00    -0.359 OA
HETATM   13  H20         0      36.555  57.881 -19.923  1.00  0.00     0.218 HD
ENDBRANCH  10  12
BRANCH   4  14
HETATM   14  C5          0      33.405  59.297 -13.886  1.00  0.00     0.025 C 
HETATM   15  C6          0      33.382  60.470 -13.146  1.00  0.00     0.004 C 
HETATM   16  C7          0      32.467  60.555 -12.101  1.00  0.00     0.026 C 
HETATM   17  C8          0      31.694  59.465 -11.718  1.00  0.00     0.112 C 
HETATM   18  C10         0      32.221  58.229 -12.066  1.00  0.00     0.112 C 
HETATM   19  C12         0      33.067  58.158 -13.167  1.00  0.00     0.028 C 
BRANCH  17  20
HETATM   20  O9          0      30.413  59.643 -11.227  1.00  0.00    -0.357 OA
HETATM   21  H9          0      30.200  60.222 -10.504  1.00  0.00     0.218 HD
ENDBRANCH  17  20
BRANCH  18  22
HETATM   22  O11         0      31.590  57.108 -11.546  1.00  0.00    -0.357 OA
HETATM   23  H11         0      31.172  56.523 -12.168  1.00  0.00     0.218 HD
ENDBRANCH  18  22
ENDBRANCH   4  14
BRANCH   8  24
HETATM   24  O17         0      33.193  54.778 -18.891  1.00  0.00    -0.359 OA
HETATM   25  H17         0      33.415  54.236 -18.144  1.00  0.00     0.218 HD
ENDBRANCH   8  24
TORSDOF 5
ENDMDL
MODEL 6
REMARK VINA RESULT:      -6.5      5.050      9.400
REMARK  5 active torsions:
REMARK  status: ('A' for Active; 'I' for Inactive)
REMARK    1  A    between atoms: C4_4  and  C5_5 
REMARK    2  A    between atoms: C8_8  and  O9_9 
REMARK    3  A    between atoms: C10_11  and  O11_12 
REMARK    4  A    between atoms: C16_18  and  O17_19 
REMARK    5  A    between atoms: C19_22  and  O20_23 
ROOT
HETATM    1  O1          0      34.396  57.482 -22.426  1.00  0.00    -0.286 OA
HETATM    2  C2          0      35.183  56.713 -21.809  1.00  0.00     0.201 C 
HETATM    3  C3          0      35.707  55.564 -22.376  1.00  0.00     0.067 C 
HETATM    4  C4          0      36.489  54.680 -21.641  1.00  0.00     0.103 C 
HETATM    5  O13         0      36.749  54.963 -20.376  1.00  0.00    -0.307 OA
HETATM    6  C14         0      36.246  56.021 -19.779  1.00  0.00     0.107 C 
HETATM    7  C15         0      36.176  56.116 -18.397  1.00  0.00     0.049 C 
HETATM    8  C16         0      35.422  57.106 -17.779  1.00  0.00     0.093 C 
HETATM    9  C18         0      35.210  58.247 -18.544  1.00  0.00     0.048 C 
HETATM   10  C19         0      35.318  58.198 -19.927  1.00  0.00     0.096 C 
HETATM   11  C21         0      35.652  57.022 -20.541  1.00  0.00     0.084 C 
ENDROOT
BRANCH  10  12
HETATM   12  O20         0      34.698  59.180 -20.693  1.00  0.00    -0.359 OA
HETATM   13  H20         0      35.018  60.071 -20.618  1.00  0.00     0.218 HD
ENDBRANCH  10  12
BRANCH   4  14
HETATM   14  C5          0      36.495  53.279 -22.064  1.00  0.00     0.025 C 
HETATM   15  C6          0      36.308  52.891 -23.383  1.00  0.00     0.004 C 
HETATM   16  C7          0      37.062  51.821 -23.853  1.00  0.00     0.026 C 
HETATM   17  C8          0      37.875  51.074 -23.008  1.00  0.00     0.112 C 
HETATM   18  C10         0      37.515  51.121 -21.667  1.00  0.00     0.112 C 
HETATM   19  C12         0      36.836  52.242 -21.205  1.00  0.00     0.028 C 
BRANCH  17  20
HETATM   20  O9          0      39.056  50.518 -23.467  1.00  0.00    -0.357 OA
HETATM   21  H9          0      39.713  51.003 -23.954  1.00  0.00     0.218 HD
ENDBRANCH  17  20
BRANCH  18  22
HETATM   22  O11         0      38.172  50.250 -20.809  1.00  0.00    -0.357 OA
HETATM   23  H11         0      38.992  50.550 -20.436  1.00  0.00     0.218 HD
ENDBRANCH  18  22
ENDBRANCH   4  14
BRANCH   8  24
HETATM   24  O17         0      34.664  56.838 -16.634  1.00  0.00    -0.359 OA
HETATM   25  H17         0      34.270  55.986 -16.484  1.00  0.00     0.218 HD
ENDBRANCH   8  24
TORSDOF 5
ENDMDL
MODEL 7
REMARK VINA RESULT:      -6.5      5.143      7.910
REMARK  5 active torsions:
REMARK  status: ('A' for Active; 'I' for Inactive)
REMARK    1  A    between atoms: C4_4  and  C5_5 
REMARK    2  A    between atoms: C8_8  and  O9_9 
REMARK    3  A    between atoms: C10_11  and  O11_12 
REMARK    4  A    between atoms: C16_18  and  O17_19 
REMARK    5  A    between atoms: C19_22  and  O20_23 
ROOT
HETATM    1  O1          0      37.878  55.256 -23.970  1.00  0.00    -0.286 OA
HETATM    2  C2          0      37.280  54.902 -22.917  1.00  0.00     0.201 C 
HETATM    3  C3          0      36.792  55.808 -21.991  1.00  0.00     0.067 C 
HETATM    4  C4          0      36.229  55.391 -20.791  1.00  0.00     0.103 C 
HETATM    5  O13         0      36.143  54.095 -20.546  1.00  0.00    -0.307 OA
HETATM    6  C14         0      36.625  53.195 -21.374  1.00  0.00     0.107 C 
HETATM    7  C15         0      36.902  51.898 -20.964  1.00  0.00     0.049 C 
HETATM    8  C16         0      37.640  51.031 -21.760  1.00  0.00     0.093 C 
HETATM    9  C18         0      37.613  51.316 -23.120  1.00  0.00     0.048 C 
HETATM   10  C19         0      37.294  52.591 -23.567  1.00  0.00     0.096 C 
HETATM   11  C21         0      36.987  53.571 -22.663  1.00  0.00     0.084 C 
ENDROOT
BRANCH  10  12
HETATM   12  O20         0      37.683  52.981 -24.845  1.00  0.00    -0.359 OA
HETATM   13  H20         0      38.046  53.852 -24.953  1.00  0.00     0.218 HD
ENDBRANCH  10  12
BRANCH   4  14
HETATM   14  C5          0      36.298  56.319 -19.660  1.00  0.00     0.025 C 
HETATM   15  C6          0      37.498  56.781 -19.139  1.00  0.00     0.004 C 
HETATM   16  C7          0      37.552  58.107 -18.724  1.00  0.00     0.026 C 
HETATM   17  C8          0      36.418  58.912 -18.701  1.00  0.00     0.112 C 
HETATM   18  C10         0      35.217  58.219 -18.622  1.00  0.00     0.112 C 
HETATM   19  C12         0      35.169  56.923 -19.122  1.00  0.00     0.028 C 
BRANCH  17  20
HETATM   20  O9          0      36.506  60.269 -18.954  1.00  0.00    -0.357 OA
HETATM   21  H9          0      36.326  60.661 -19.801  1.00  0.00     0.218 HD
ENDBRANCH  17  20
BRANCH  18  22
HETATM   22  O11         0      34.071  58.970 -18.407  1.00  0.00    -0.357 OA
HETATM   23  H11         0      33.432  58.991 -19.110  1.00  0.00     0.218 HD
ENDBRANCH  18  22
ENDBRANCH   4  14
BRANCH   8  24
HETATM   24  O17         0      38.592  50.167 -21.209  1.00  0.00    -0.359 OA
HETATM   25  H17         0      38.432  49.234 -21.128  1.00  0.00     0.218 HD
ENDBRANCH   8  24
TORSDOF 5
ENDMDL
MODEL 8
REMARK VINA RESULT:      -6.4      6.285      9.158
REMARK  5 active torsions:
REMARK  status: ('A' for Active; 'I' for Inactive)
REMARK    1  A    between atoms: C4_4  and  C5_5 
REMARK    2  A    between atoms: C8_8  and  O9_9 
REMARK    3  A    between atoms: C10_11  and  O11_12 
REMARK    4  A    between atoms: C16_18  and  O17_19 
REMARK    5  A    between atoms: C19_22  and  O20_23 
ROOT
HETATM    1  O1          0      38.587  57.592 -17.596  1.00  0.00    -0.286 OA
HETATM    2  C2          0      37.935  57.625 -18.676  1.00  0.00     0.201 C 
HETATM    3  C3          0      37.604  56.484 -19.387  1.00  0.00     0.067 C 
HETATM    4  C4          0      36.976  56.555 -20.626  1.00  0.00     0.103 C 
HETATM    5  O13         0      36.674  57.744 -21.118  1.00  0.00    -0.307 OA
HETATM    6  C14         0      37.000  58.859 -20.501  1.00  0.00     0.107 C 
HETATM    7  C15         0      37.056  60.074 -21.169  1.00  0.00     0.049 C 
HETATM    8  C16         0      37.641  61.191 -20.586  1.00  0.00     0.093 C 
HETATM    9  C18         0      37.664  61.184 -19.196  1.00  0.00     0.048 C 
HETATM   10  C19         0      37.564  59.990 -18.495  1.00  0.00     0.096 C 
HETATM   11  C21         0      37.424  58.812 -19.177  1.00  0.00     0.084 C 
ENDROOT
BRANCH  10  12
HETATM   12  O20         0      38.016  59.933 -17.181  1.00  0.00    -0.359 OA
HETATM   13  H20         0      38.294  59.090 -16.842  1.00  0.00     0.218 HD
ENDBRANCH  10  12
BRANCH   4  14
HETATM   14  C5          0      37.196  55.444 -21.553  1.00  0.00     0.025 C 
HETATM   15  C6          0      37.115  54.114 -21.165  1.00  0.00     0.004 C 
HETATM   16  C7          0      36.545  53.215 -22.062  1.00  0.00     0.026 C 
HETATM   17  C8          0      36.190  53.597 -23.351  1.00  0.00     0.112 C 
HETATM   18  C10         0      36.868  54.708 -23.834  1.00  0.00     0.112 C 
HETATM   19  C12         0      37.354  55.635 -22.919  1.00  0.00     0.028 C 
BRANCH  17  20
HETATM   20  O9          0      35.100  53.027 -23.984  1.00  0.00    -0.357 OA
HETATM   21  H9          0      34.803  52.138 -23.826  1.00  0.00     0.218 HD
ENDBRANCH  17  20
BRANCH  18  22
HETATM   22  O11         0      36.693  55.017 -25.175  1.00  0.00    -0.357 OA
HETATM   23  H11         0      35.812  54.934 -25.524  1.00  0.00     0.218 HD
ENDBRANCH  18  22
ENDBRANCH   4  14
BRANCH   8  24
HETATM   24  O17         0      38.434  62.072 -21.331  1.00  0.00    -0.359 OA
HETATM   25  H17         0      38.177  62.363 -22.197  1.00  0.00     0.218 HD
ENDBRANCH   8  24
TORSDOF 5
ENDMDL
MODEL 9
REMARK VINA RESULT:      -6.2      2.992      7.581
REMARK  5 active torsions:
REMARK  status: ('A' for Active; 'I' for Inactive)
REMARK    1  A    between atoms: C4_4  and  C5_5 
REMARK    2  A    between atoms: C8_8  and  O9_9 
REMARK    3  A    between atoms: C10_11  and  O11_12 
REMARK    4  A    between atoms: C16_18  and  O17_19 
REMARK    5  A    between atoms: C19_22  and  O20_23 
ROOT
HETATM    1  O1          0      35.544  59.351 -16.124  1.00  0.00    -0.286 OA
HETATM    2  C2          0      35.451  58.675 -17.185  1.00  0.00     0.201 C 
HETATM    3  C3          0      36.393  58.735 -18.198  1.00  0.00     0.067 C 
HETATM    4  C4          0      36.214  58.058 -19.399  1.00  0.00     0.103 C 
HETATM    5  O13         0      35.125  57.327 -19.560  1.00  0.00    -0.307 OA
HETATM    6  C14         0      34.182  57.267 -18.646  1.00  0.00     0.107 C 
HETATM    7  C15         0      32.895  56.850 -18.950  1.00  0.00     0.049 C 
HETATM    8  C16         0      31.848  57.027 -18.054  1.00  0.00     0.093 C 
HETATM    9  C18         0      32.227  57.125 -16.720  1.00  0.00     0.048 C 
HETATM   10  C19         0      33.521  57.495 -16.380  1.00  0.00     0.096 C 
HETATM   11  C21         0      34.436  57.748 -17.366  1.00  0.00     0.084 C 
ENDROOT
BRANCH  10  12
HETATM   12  O20         0      33.771  58.006 -15.111  1.00  0.00    -0.359 OA
HETATM   13  H20         0      34.676  58.147 -14.858  1.00  0.00     0.218 HD
ENDBRANCH  10  12
BRANCH   4  14
HETATM   14  C5          0      36.873  58.611 -20.584  1.00  0.00     0.025 C 
HETATM   15  C6          0      36.767  58.036 -21.841  1.00  0.00     0.004 C 
HETATM   16  C7          0      36.670  58.890 -22.935  1.00  0.00     0.026 C 
HETATM   17  C8          0      36.808  60.267 -22.800  1.00  0.00     0.112 C 
HETATM   18  C10         0      37.519  60.671 -21.678  1.00  0.00     0.112 C 
HETATM   19  C12         0      37.530  59.836 -20.567  1.00  0.00     0.028 C 
BRANCH  17  20
HETATM   20  O9          0      36.102  61.134 -23.615  1.00  0.00    -0.357 OA
HETATM   21  H9          0      36.510  61.800 -24.156  1.00  0.00     0.218 HD
ENDBRANCH  17  20
BRANCH  18  22
HETATM   22  O11         0      37.849  62.016 -21.593  1.00  0.00    -0.357 OA
HETATM   23  H11         0      38.694  62.229 -21.214  1.00  0.00     0.218 HD
ENDBRANCH  18  22
ENDBRANCH   4  14
BRANCH   8  24
HETATM   24  O17         0      30.574  57.414 -18.487  1.00  0.00    -0.359 OA
HETATM   25  H17         0      29.952  56.784 -18.830  1.00  0.00     0.218 HD
ENDBRANCH   8  24
TORSDOF 5
ENDMDL
