MODEL 1
REMARK VINA RESULT:      -5.1      0.000      0.000
REMARK  5 active torsions:
REMARK  status: ('A' for Active; 'I' for Inactive)
REMARK    1  A    between atoms: C4_4  and  C5_5 
REMARK    2  A    between atoms: C8_8  and  O9_9 
REMARK    3  A    between atoms: C10_11  and  O11_12 
REMARK    4  A    between atoms: C16_18  and  O17_19 
REMARK    5  A    between atoms: C19_22  and  O20_23 
ROOT
HETATM    1  O1          0      47.110  74.611  11.496  1.00  0.00    -0.286 OA
HETATM    2  C2          0      47.159  75.409  12.472  1.00  0.00     0.201 C 
HETATM    3  C3          0      46.618  75.111  13.712  1.00  0.00     0.067 C 
HETATM    4  C4          0      46.594  76.047  14.740  1.00  0.00     0.103 C 
HETATM    5  O13         0      47.120  77.239  14.525  1.00  0.00    -0.307 OA
HETATM    6  C14         0      47.612  77.586  13.355  1.00  0.00     0.107 C 
HETATM    7  C15         0      47.791  78.916  13.003  1.00  0.00     0.049 C 
HETATM    8  C16         0      48.065  79.284  11.691  1.00  0.00     0.093 C 
HETATM    9  C18         0      48.659  78.296  10.916  1.00  0.00     0.048 C 
HETATM   10  C19         0      48.540  76.958  11.266  1.00  0.00     0.096 C 
HETATM   11  C21         0      47.846  76.610  12.393  1.00  0.00     0.084 C 
ENDROOT
BRANCH  10  12
HETATM   12  O20         0      48.742  75.980  10.297  1.00  0.00    -0.359 OA
HETATM   13  H20         0      48.011  75.751   9.736  1.00  0.00     0.218 HD
ENDBRANCH  10  12
BRANCH   4  14
HETATM   14  C5          0      45.535  75.914  15.742  1.00  0.00     0.025 C 
HETATM   15  C6          0      45.711  76.265  17.072  1.00  0.00     0.004 C 
HETATM   16  C7          0      44.643  76.873  17.725  1.00  0.00     0.026 C 
HETATM   17  C8          0      43.398  77.007  17.119  1.00  0.00     0.112 C 
HETATM   18  C10         0      43.149  76.098  16.099  1.00  0.00     0.112 C 
HETATM   19  C12         0      44.232  75.569  15.406  1.00  0.00     0.028 C 
BRANCH  17  20
HETATM   20  O9          0      42.592  78.098  17.389  1.00  0.00    -0.357 OA
HETATM   21  H9          0      42.183  78.632  16.717  1.00  0.00     0.218 HD
ENDBRANCH  17  20
BRANCH  18  22
HETATM   22  O11         0      41.859  76.063  15.590  1.00  0.00    -0.357 OA
HETATM   23  H11         0      41.451  76.898  15.394  1.00  0.00     0.218 HD
ENDBRANCH  18  22
ENDBRANCH   4  14
BRANCH   8  24
HETATM   24  O17         0      47.485  80.421  11.116  1.00  0.00    -0.359 OA
HETATM   25  H17         0      47.527  81.270  11.539  1.00  0.00     0.218 HD
ENDBRANCH   8  24
TORSDOF 5
ENDMDL
MODEL 2
REMARK VINA RESULT:      -4.9      1.772      2.805
REMARK  5 active torsions:
REMARK  status: ('A' for Active; 'I' for Inactive)
REMARK    1  A    between atoms: C4_4  and  C5_5 
REMARK    2  A    between atoms: C8_8  and  O9_9 
REMARK    3  A    between atoms: C10_11  and  O11_12 
REMARK    4  A    between atoms: C16_18  and  O17_19 
REMARK    5  A    between atoms: C19_22  and  O20_23 
ROOT
HETATM    1  O1          0      48.966  77.560   9.970  1.00  0.00    -0.286 OA
HETATM    2  C2          0      48.661  77.677  11.188  1.00  0.00     0.201 C 
HETATM    3  C3          0      48.187  76.621  11.948  1.00  0.00     0.067 C 
HETATM    4  C4          0      47.763  76.801  13.260  1.00  0.00     0.103 C 
HETATM    5  O13         0      47.836  78.008  13.791  1.00  0.00    -0.307 OA
HETATM    6  C14         0      48.242  79.052  13.102  1.00  0.00     0.107 C 
HETATM    7  C15         0      47.951  80.349  13.500  1.00  0.00     0.049 C 
HETATM    8  C16         0      48.157  81.428  12.649  1.00  0.00     0.093 C 
HETATM    9  C18         0      49.115  81.224  11.663  1.00  0.00     0.048 C 
HETATM   10  C19         0      49.465  79.938  11.274  1.00  0.00     0.096 C 
HETATM   11  C21         0      48.873  78.862  11.877  1.00  0.00     0.084 C 
ENDROOT
BRANCH  10  12
HETATM   12  O20         0      50.067  79.742  10.035  1.00  0.00    -0.359 OA
HETATM   13  H20         0      49.529  79.840   9.259  1.00  0.00     0.218 HD
ENDBRANCH  10  12
BRANCH   4  14
HETATM   14  C5          0      46.761  75.864  13.773  1.00  0.00     0.025 C 
HETATM   15  C6          0      46.579  75.626  15.128  1.00  0.00     0.004 C 
HETATM   16  C7          0      45.276  75.448  15.582  1.00  0.00     0.026 C 
HETATM   17  C8          0      44.201  75.376  14.703  1.00  0.00     0.112 C 
HETATM   18  C10         0      44.534  74.992  13.411  1.00  0.00     0.112 C 
HETATM   19  C12         0      45.819  75.258  12.953  1.00  0.00     0.028 C 
BRANCH  17  20
HETATM   20  O9          0      42.956  75.859  15.064  1.00  0.00    -0.357 OA
HETATM   21  H9          0      42.786  76.327  15.874  1.00  0.00     0.218 HD
ENDBRANCH  17  20
BRANCH  18  22
HETATM   22  O11         0      43.483  74.721  12.545  1.00  0.00    -0.357 OA
HETATM   23  H11         0      42.739  75.311  12.575  1.00  0.00     0.218 HD
ENDBRANCH  18  22
ENDBRANCH   4  14
BRANCH   8  24
HETATM   24  O17         0      47.243  82.486  12.579  1.00  0.00    -0.359 OA
HETATM   25  H17         0      47.173  83.131  13.273  1.00  0.00     0.218 HD
ENDBRANCH   8  24
TORSDOF 5
ENDMDL
MODEL 3
REMARK VINA RESULT:      -4.9      2.408      3.223
REMARK  5 active torsions:
REMARK  status: ('A' for Active; 'I' for Inactive)
REMARK    1  A    between atoms: C4_4  and  C5_5 
REMARK    2  A    between atoms: C8_8  and  O9_9 
REMARK    3  A    between atoms: C10_11  and  O11_12 
REMARK    4  A    between atoms: C16_18  and  O17_19 
REMARK    5  A    between atoms: C19_22  and  O20_23 
ROOT
HETATM    1  O1          0      49.379  76.902  10.175  1.00  0.00    -0.286 OA
HETATM    2  C2          0      48.739  76.864  11.262  1.00  0.00     0.201 C 
HETATM    3  C3          0      48.063  75.737  11.696  1.00  0.00     0.067 C 
HETATM    4  C4          0      47.281  75.754  12.845  1.00  0.00     0.103 C 
HETATM    5  O13         0      47.204  76.872  13.544  1.00  0.00    -0.307 OA
HETATM    6  C14         0      47.795  77.981  13.156  1.00  0.00     0.107 C 
HETATM    7  C15         0      47.408  79.223  13.638  1.00  0.00     0.049 C 
HETATM    8  C16         0      47.853  80.398  13.045  1.00  0.00     0.093 C 
HETATM    9  C18         0      49.053  80.288  12.353  1.00  0.00     0.048 C 
HETATM   10  C19         0      49.493  79.053  11.897  1.00  0.00     0.096 C 
HETATM   11  C21         0      48.749  77.932  12.146  1.00  0.00     0.084 C 
ENDROOT
BRANCH  10  12
HETATM   12  O20         0      50.424  79.002  10.864  1.00  0.00    -0.359 OA
HETATM   13  H20         0      50.165  79.338  10.014  1.00  0.00     0.218 HD
ENDBRANCH  10  12
BRANCH   4  14
HETATM   14  C5          0      46.171  74.802  12.914  1.00  0.00     0.025 C 
HETATM   15  C6          0      46.340  73.435  12.746  1.00  0.00     0.004 C 
HETATM   16  C7          0      45.582  72.588  13.547  1.00  0.00     0.026 C 
HETATM   17  C8          0      44.591  73.076  14.392  1.00  0.00     0.112 C 
HETATM   18  C10         0      44.080  74.316  14.030  1.00  0.00     0.112 C 
HETATM   19  C12         0      44.891  75.177  13.301  1.00  0.00     0.028 C 
BRANCH  17  20
HETATM   20  O9          0      44.317  72.454  15.597  1.00  0.00    -0.357 OA
HETATM   21  H9          0      44.903  71.835  16.017  1.00  0.00     0.218 HD
ENDBRANCH  17  20
BRANCH  18  22
HETATM   22  O11         0      42.964  74.762  14.724  1.00  0.00    -0.357 OA
HETATM   23  H11         0      42.124  74.398  14.468  1.00  0.00     0.218 HD
ENDBRANCH  18  22
ENDBRANCH   4  14
BRANCH   8  24
HETATM   24  O17         0      47.002  81.496  12.874  1.00  0.00    -0.359 OA
HETATM   25  H17         0      47.174  82.163  12.220  1.00  0.00     0.218 HD
ENDBRANCH   8  24
TORSDOF 5
ENDMDL
MODEL 4
REMARK VINA RESULT:      -4.6      2.346      6.122
REMARK  5 active torsions:
REMARK  status: ('A' for Active; 'I' for Inactive)
REMARK    1  A    between atoms: C4_4  and  C5_5 
REMARK    2  A    between atoms: C8_8  and  O9_9 
REMARK    3  A    between atoms: C10_11  and  O11_12 
REMARK    4  A    between atoms: C16_18  and  O17_19 
REMARK    5  A    between atoms: C19_22  and  O20_23 
ROOT
HETATM    1  O1          0      45.446  76.810  17.480  1.00  0.00    -0.286 OA
HETATM    2  C2          0      46.047  76.981  16.384  1.00  0.00     0.201 C 
HETATM    3  C3          0      46.759  78.130  16.090  1.00  0.00     0.067 C 
HETATM    4  C4          0      47.325  78.337  14.836  1.00  0.00     0.103 C 
HETATM    5  O13         0      47.190  77.397  13.917  1.00  0.00    -0.307 OA
HETATM    6  C14         0      46.492  76.303  14.132  1.00  0.00     0.107 C 
HETATM    7  C15         0      46.015  75.524  13.088  1.00  0.00     0.049 C 
HETATM    8  C16         0      45.074  74.525  13.305  1.00  0.00     0.093 C 
HETATM    9  C18         0      45.052  74.010  14.596  1.00  0.00     0.048 C 
HETATM   10  C19         0      45.564  74.744  15.657  1.00  0.00     0.096 C 
HETATM   11  C21         0      46.110  75.977  15.429  1.00  0.00     0.084 C 
ENDROOT
BRANCH  10  12
HETATM   12  O20         0      45.158  74.440  16.953  1.00  0.00    -0.359 OA
HETATM   13  H20         0      44.301  74.049  17.071  1.00  0.00     0.218 HD
ENDBRANCH  10  12
BRANCH   4  14
HETATM   14  C5          0      47.510  79.723  14.405  1.00  0.00     0.025 C 
HETATM   15  C6          0      48.047  80.702  15.229  1.00  0.00     0.004 C 
HETATM   16  C7          0      48.900  81.636  14.649  1.00  0.00     0.026 C 
HETATM   17  C8          0      49.106  81.680  13.275  1.00  0.00     0.112 C 
HETATM   18  C10         0      48.086  81.122  12.517  1.00  0.00     0.112 C 
HETATM   19  C12         0      47.303  80.129  13.093  1.00  0.00     0.028 C 
BRANCH  17  20
HETATM   20  O9          0      50.330  82.061  12.754  1.00  0.00    -0.357 OA
HETATM   21  H9          0      50.996  82.521  13.252  1.00  0.00     0.218 HD
ENDBRANCH  17  20
BRANCH  18  22
HETATM   22  O11         0      48.150  81.307  11.143  1.00  0.00    -0.357 OA
HETATM   23  H11         0      48.851  80.861  10.681  1.00  0.00     0.218 HD
ENDBRANCH  18  22
ENDBRANCH   4  14
BRANCH   8  24
HETATM   24  O17         0      44.024  74.305  12.407  1.00  0.00    -0.359 OA
HETATM   25  H17         0      43.133  74.163  12.706  1.00  0.00     0.218 HD
ENDBRANCH   8  24
TORSDOF 5
ENDMDL
MODEL 5
REMARK VINA RESULT:      -4.6      3.098      7.606
REMARK  5 active torsions:
REMARK  status: ('A' for Active; 'I' for Inactive)
REMARK    1  A    between atoms: C4_4  and  C5_5 
REMARK    2  A    between atoms: C8_8  and  O9_9 
REMARK    3  A    between atoms: C10_11  and  O11_12 
REMARK    4  A    between atoms: C16_18  and  O17_19 
REMARK    5  A    between atoms: C19_22  and  O20_23 
ROOT
HETATM    1  O1          0      43.250  77.637  17.944  1.00  0.00    -0.286 OA
HETATM    2  C2          0      44.125  76.733  18.035  1.00  0.00     0.201 C 
HETATM    3  C3          0      44.822  76.250  16.941  1.00  0.00     0.067 C 
HETATM    4  C4          0      45.706  75.183  17.053  1.00  0.00     0.103 C 
HETATM    5  O13         0      45.893  74.636  18.241  1.00  0.00    -0.307 OA
HETATM    6  C14         0      45.228  75.031  19.305  1.00  0.00     0.107 C 
HETATM    7  C15         0      45.113  74.231  20.433  1.00  0.00     0.049 C 
HETATM    8  C16         0      44.209  74.536  21.444  1.00  0.00     0.093 C 
HETATM    9  C18         0      43.853  75.876  21.529  1.00  0.00     0.048 C 
HETATM   10  C19         0      44.000  76.716  20.433  1.00  0.00     0.096 C 
HETATM   11  C21         0      44.515  76.223  19.265  1.00  0.00     0.084 C 
ENDROOT
BRANCH  10  12
HETATM   12  O20         0      43.263  77.895  20.375  1.00  0.00    -0.359 OA
HETATM   13  H20         0      43.701  78.679  20.069  1.00  0.00     0.218 HD
ENDBRANCH  10  12
BRANCH   4  14
HETATM   14  C5          0      45.924  74.365  15.858  1.00  0.00     0.025 C 
HETATM   15  C6          0      45.542  73.034  15.778  1.00  0.00     0.004 C 
HETATM   16  C7          0      45.027  72.583  14.567  1.00  0.00     0.026 C 
HETATM   17  C8          0      45.016  73.389  13.434  1.00  0.00     0.112 C 
HETATM   18  C10         0      45.957  74.410  13.439  1.00  0.00     0.112 C 
HETATM   19  C12         0      46.391  74.901  14.665  1.00  0.00     0.028 C 
BRANCH  17  20
HETATM   20  O9          0      44.000  73.285  12.500  1.00  0.00    -0.357 OA
HETATM   21  H9          0      43.085  73.165  12.726  1.00  0.00     0.218 HD
ENDBRANCH  17  20
BRANCH  18  22
HETATM   22  O11         0      46.117  75.123  12.260  1.00  0.00    -0.357 OA
HETATM   23  H11         0      45.407  75.702  12.008  1.00  0.00     0.218 HD
ENDBRANCH  18  22
ENDBRANCH   4  14
BRANCH   8  24
HETATM   24  O17         0      43.471  73.536  22.088  1.00  0.00    -0.359 OA
HETATM   25  H17         0      43.851  72.997  22.771  1.00  0.00     0.218 HD
ENDBRANCH   8  24
TORSDOF 5
ENDMDL
MODEL 6
REMARK VINA RESULT:      -4.6      2.795      5.745
REMARK  5 active torsions:
REMARK  status: ('A' for Active; 'I' for Inactive)
REMARK    1  A    between atoms: C4_4  and  C5_5 
REMARK    2  A    between atoms: C8_8  and  O9_9 
REMARK    3  A    between atoms: C10_11  and  O11_12 
REMARK    4  A    between atoms: C16_18  and  O17_19 
REMARK    5  A    between atoms: C19_22  and  O20_23 
ROOT
HETATM    1  O1          0      48.169  72.496  11.532  1.00  0.00    -0.286 OA
HETATM    2  C2          0      47.462  73.417  12.024  1.00  0.00     0.201 C 
HETATM    3  C3          0      47.750  74.760  11.847  1.00  0.00     0.067 C 
HETATM    4  C4          0      47.015  75.753  12.484  1.00  0.00     0.103 C 
HETATM    5  O13         0      46.005  75.397  13.259  1.00  0.00    -0.307 OA
HETATM    6  C14         0      45.713  74.136  13.491  1.00  0.00     0.107 C 
HETATM    7  C15         0      44.946  73.752  14.581  1.00  0.00     0.049 C 
HETATM    8  C16         0      44.853  72.419  14.964  1.00  0.00     0.093 C 
HETATM    9  C18         0      45.092  71.499  13.951  1.00  0.00     0.048 C 
HETATM   10  C19         0      45.817  71.863  12.824  1.00  0.00     0.096 C 
HETATM   11  C21         0      46.284  73.143  12.702  1.00  0.00     0.084 C 
ENDROOT
BRANCH  10  12
HETATM   12  O20         0      46.416  70.873  12.052  1.00  0.00    -0.359 OA
HETATM   13  H20         0      45.897  70.465  11.369  1.00  0.00     0.218 HD
ENDBRANCH  10  12
BRANCH   4  14
HETATM   14  C5          0      47.693  77.023  12.749  1.00  0.00     0.025 C 
HETATM   15  C6          0      48.307  77.770  11.754  1.00  0.00     0.004 C 
HETATM   16  C7          0      48.197  79.155  11.827  1.00  0.00     0.026 C 
HETATM   17  C8          0      47.613  79.784  12.921  1.00  0.00     0.112 C 
HETATM   18  C10         0      47.618  79.035  14.091  1.00  0.00     0.112 C 
HETATM   19  C12         0      47.642  77.649  13.988  1.00  0.00     0.028 C 
BRANCH  17  20
HETATM   20  O9          0      46.908  80.964  12.767  1.00  0.00    -0.357 OA
HETATM   21  H9          0      46.884  81.463  11.959  1.00  0.00     0.218 HD
ENDBRANCH  17  20
BRANCH  18  22
HETATM   22  O11         0      47.222  79.682  15.253  1.00  0.00    -0.357 OA
HETATM   23  H11         0      46.335  79.521  15.553  1.00  0.00     0.218 HD
ENDBRANCH  18  22
ENDBRANCH   4  14
BRANCH   8  24
HETATM   24  O17         0      44.857  72.047  16.313  1.00  0.00    -0.359 OA
HETATM   25  H17         0      44.966  71.142  16.581  1.00  0.00     0.218 HD
ENDBRANCH   8  24
TORSDOF 5
ENDMDL
MODEL 7
REMARK VINA RESULT:      -4.5      2.750      5.232
REMARK  5 active torsions:
REMARK  status: ('A' for Active; 'I' for Inactive)
REMARK    1  A    between atoms: C4_4  and  C5_5 
REMARK    2  A    between atoms: C8_8  and  O9_9 
REMARK    3  A    between atoms: C10_11  and  O11_12 
REMARK    4  A    between atoms: C16_18  and  O17_19 
REMARK    5  A    between atoms: C19_22  and  O20_23 
ROOT
HETATM    1  O1          0      48.356  81.815  14.979  1.00  0.00    -0.286 OA
HETATM    2  C2          0      48.121  81.065  13.992  1.00  0.00     0.201 C 
HETATM    3  C3          0      47.561  79.806  14.123  1.00  0.00     0.067 C 
HETATM    4  C4          0      47.407  78.960  13.030  1.00  0.00     0.103 C 
HETATM    5  O13         0      47.789  79.385  11.839  1.00  0.00    -0.307 OA
HETATM    6  C14         0      48.360  80.557  11.665  1.00  0.00     0.107 C 
HETATM    7  C15         0      49.110  80.844  10.534  1.00  0.00     0.049 C 
HETATM    8  C16         0      49.915  81.975  10.470  1.00  0.00     0.093 C 
HETATM    9  C18         0      49.532  83.016  11.306  1.00  0.00     0.048 C 
HETATM   10  C19         0      48.742  82.771  12.421  1.00  0.00     0.096 C 
HETATM   11  C21         0      48.323  81.497  12.690  1.00  0.00     0.084 C 
ENDROOT
BRANCH  10  12
HETATM   12  O20         0      48.729  83.695  13.462  1.00  0.00    -0.359 OA
HETATM   13  H20         0      49.309  84.444  13.399  1.00  0.00     0.218 HD
ENDBRANCH  10  12
BRANCH   4  14
HETATM   14  C5          0      47.397  77.520  13.294  1.00  0.00     0.025 C 
HETATM   15  C6          0      46.750  76.960  14.387  1.00  0.00     0.004 C 
HETATM   16  C7          0      46.097  75.746  14.196  1.00  0.00     0.026 C 
HETATM   17  C8          0      46.195  75.045  12.999  1.00  0.00     0.112 C 
HETATM   18  C10         0      47.322  75.341  12.245  1.00  0.00     0.112 C 
HETATM   19  C12         0      47.905  76.594  12.392  1.00  0.00     0.028 C 
BRANCH  17  20
HETATM   20  O9          0      45.135  74.287  12.534  1.00  0.00    -0.357 OA
HETATM   21  H9          0      44.600  74.530  11.787  1.00  0.00     0.218 HD
ENDBRANCH  17  20
BRANCH  18  22
HETATM   22  O11         0      47.566  74.539  11.139  1.00  0.00    -0.357 OA
HETATM   23  H11         0      48.416  74.116  11.095  1.00  0.00     0.218 HD
ENDBRANCH  18  22
ENDBRANCH   4  14
BRANCH   8  24
HETATM   24  O17         0      51.182  81.935   9.876  1.00  0.00    -0.359 OA
HETATM   25  H17         0      51.389  81.321   9.182  1.00  0.00     0.218 HD
ENDBRANCH   8  24
TORSDOF 5
ENDMDL
MODEL 8
REMARK VINA RESULT:      -4.4      2.096      6.384
REMARK  5 active torsions:
REMARK  status: ('A' for Active; 'I' for Inactive)
REMARK    1  A    between atoms: C4_4  and  C5_5 
REMARK    2  A    between atoms: C8_8  and  O9_9 
REMARK    3  A    between atoms: C10_11  and  O11_12 
REMARK    4  A    between atoms: C16_18  and  O17_19 
REMARK    5  A    between atoms: C19_22  and  O20_23 
ROOT
HETATM    1  O1          0      46.671  77.720  16.784  1.00  0.00    -0.286 OA
HETATM    2  C2          0      46.989  77.437  15.596  1.00  0.00     0.201 C 
HETATM    3  C3          0      47.935  78.153  14.883  1.00  0.00     0.067 C 
HETATM    4  C4          0      48.193  77.886  13.543  1.00  0.00     0.103 C 
HETATM    5  O13         0      47.527  76.910  12.951  1.00  0.00    -0.307 OA
HETATM    6  C14         0      46.592  76.224  13.572  1.00  0.00     0.107 C 
HETATM    7  C15         0      45.634  75.499  12.877  1.00  0.00     0.049 C 
HETATM    8  C16         0      44.509  74.992  13.516  1.00  0.00     0.093 C 
HETATM    9  C18         0      44.655  74.781  14.882  1.00  0.00     0.048 C 
HETATM   10  C19         0      45.634  75.455  15.599  1.00  0.00     0.096 C 
HETATM   11  C21         0      46.473  76.322  14.954  1.00  0.00     0.084 C 
ENDROOT
BRANCH  10  12
HETATM   12  O20         0      45.501  75.582  16.979  1.00  0.00    -0.359 OA
HETATM   13  H20         0      44.952  76.282  17.311  1.00  0.00     0.218 HD
ENDBRANCH  10  12
BRANCH   4  14
HETATM   14  C5          0      48.701  78.989  12.726  1.00  0.00     0.025 C 
HETATM   15  C6          0      48.298  79.202  11.415  1.00  0.00     0.004 C 
HETATM   16  C7          0      48.125  80.518  11.000  1.00  0.00     0.026 C 
HETATM   17  C8          0      48.469  81.591  11.815  1.00  0.00     0.112 C 
HETATM   18  C10         0      49.415  81.300  12.789  1.00  0.00     0.112 C 
HETATM   19  C12         0      49.509  79.991  13.247  1.00  0.00     0.028 C 
BRANCH  17  20
HETATM   20  O9          0      47.754  82.775  11.769  1.00  0.00    -0.357 OA
HETATM   21  H9          0      48.012  83.566  12.227  1.00  0.00     0.218 HD
ENDBRANCH  17  20
BRANCH  18  22
HETATM   22  O11         0      49.932  82.371  13.503  1.00  0.00    -0.357 OA
HETATM   23  H11         0      49.690  82.434  14.420  1.00  0.00     0.218 HD
ENDBRANCH  18  22
ENDBRANCH   4  14
BRANCH   8  24
HETATM   24  O17         0      43.250  75.018  12.906  1.00  0.00    -0.359 OA
HETATM   25  H17         0      42.641  75.733  13.048  1.00  0.00     0.218 HD
ENDBRANCH   8  24
TORSDOF 5
ENDMDL
MODEL 9
REMARK VINA RESULT:      -4.4      2.248      3.072
REMARK  5 active torsions:
REMARK  status: ('A' for Active; 'I' for Inactive)
REMARK    1  A    between atoms: C4_4  and  C5_5 
REMARK    2  A    between atoms: C8_8  and  O9_9 
REMARK    3  A    between atoms: C10_11  and  O11_12 
REMARK    4  A    between atoms: C16_18  and  O17_19 
REMARK    5  A    between atoms: C19_22  and  O20_23 
ROOT
HETATM    1  O1          0      47.870  78.032  11.608  1.00  0.00    -0.286 OA
HETATM    2  C2          0      47.997  78.638  12.708  1.00  0.00     0.201 C 
HETATM    3  C3          0      47.814  78.017  13.931  1.00  0.00     0.067 C 
HETATM    4  C4          0      47.858  78.730  15.124  1.00  0.00     0.103 C 
HETATM    5  O13         0      48.102  80.028  15.079  1.00  0.00    -0.307 OA
HETATM    6  C14         0      48.246  80.673  13.942  1.00  0.00     0.107 C 
HETATM    7  C15         0      48.101  82.050  13.859  1.00  0.00     0.049 C 
HETATM    8  C16         0      48.001  82.693  12.631  1.00  0.00     0.093 C 
HETATM    9  C18         0      48.570  82.010  11.563  1.00  0.00     0.048 C 
HETATM   10  C19         0      48.772  80.638  11.630  1.00  0.00     0.096 C 
HETATM   11  C21         0      48.424  79.956  12.764  1.00  0.00     0.084 C 
ENDROOT
BRANCH  10  12
HETATM   12  O20         0      48.919  79.914  10.451  1.00  0.00    -0.359 OA
HETATM   13  H20         0      49.651  80.128   9.885  1.00  0.00     0.218 HD
ENDBRANCH  10  12
BRANCH   4  14
HETATM   14  C5          0      47.095  78.196  16.253  1.00  0.00     0.025 C 
HETATM   15  C6          0      46.760  78.958  17.363  1.00  0.00     0.004 C 
HETATM   16  C7          0      45.504  78.757  17.928  1.00  0.00     0.026 C 
HETATM   17  C8          0      44.662  77.741  17.490  1.00  0.00     0.112 C 
HETATM   18  C10         0      45.306  76.684  16.862  1.00  0.00     0.112 C 
HETATM   19  C12         0      46.520  76.931  16.231  1.00  0.00     0.028 C 
BRANCH  17  20
HETATM   20  O9          0      43.288  77.903  17.506  1.00  0.00    -0.357 OA
HETATM   21  H9          0      42.698  77.361  18.017  1.00  0.00     0.218 HD
ENDBRANCH  17  20
BRANCH  18  22
HETATM   22  O11         0      44.541  75.562  16.576  1.00  0.00    -0.357 OA
HETATM   23  H11         0      43.763  75.695  16.048  1.00  0.00     0.218 HD
ENDBRANCH  18  22
ENDBRANCH   4  14
BRANCH   8  24
HETATM   24  O17         0      47.114  83.758  12.436  1.00  0.00    -0.359 OA
HETATM   25  H17         0      46.215  83.615  12.165  1.00  0.00     0.218 HD
ENDBRANCH   8  24
TORSDOF 5
ENDMDL
