MODEL 1
REMARK VINA RESULT:      -4.1      0.000      0.000
REMARK  5 active torsions:
REMARK  status: ('A' for Active; 'I' for Inactive)
REMARK    1  A    between atoms: C4_4  and  C5_5 
REMARK    2  A    between atoms: C8_8  and  O9_9 
REMARK    3  A    between atoms: C10_11  and  O11_12 
REMARK    4  A    between atoms: C16_18  and  O17_19 
REMARK    5  A    between atoms: C19_22  and  O20_23 
ROOT
HETATM    1  O1          0      18.931  21.410  -0.889  1.00  0.00    -0.286 OA
HETATM    2  C2          0      19.678  21.654  -1.876  1.00  0.00     0.201 C 
HETATM    3  C3          0      20.944  21.112  -2.011  1.00  0.00     0.067 C 
HETATM    4  C4          0      21.786  21.478  -3.055  1.00  0.00     0.103 C 
HETATM    5  O13         0      21.349  22.351  -3.946  1.00  0.00    -0.307 OA
HETATM    6  C14         0      20.170  22.924  -3.844  1.00  0.00     0.107 C 
HETATM    7  C15         0      19.868  24.100  -4.515  1.00  0.00     0.049 C 
HETATM    8  C16         0      18.728  24.833  -4.210  1.00  0.00     0.093 C 
HETATM    9  C18         0      17.696  24.100  -3.636  1.00  0.00     0.048 C 
HETATM   10  C19         0      17.956  22.895  -2.997  1.00  0.00     0.096 C 
HETATM   11  C21         0      19.237  22.417  -2.946  1.00  0.00     0.084 C 
ENDROOT
BRANCH  10  12
HETATM   12  O20         0      17.038  22.402  -2.075  1.00  0.00    -0.359 OA
HETATM   13  H20         0      16.950  22.858  -1.247  1.00  0.00     0.218 HD
ENDBRANCH  10  12
BRANCH   4  14
HETATM   14  C5          0      23.227  21.369  -2.824  1.00  0.00     0.025 C 
HETATM   15  C6          0      24.168  21.590  -3.819  1.00  0.00     0.004 C 
HETATM   16  C7          0      25.342  22.246  -3.462  1.00  0.00     0.026 C 
HETATM   17  C8          0      25.633  22.551  -2.137  1.00  0.00     0.112 C 
HETATM   18  C10         0      24.981  21.758  -1.202  1.00  0.00     0.112 C 
HETATM   19  C12         0      23.766  21.183  -1.557  1.00  0.00     0.028 C 
BRANCH  17  20
HETATM   20  O9          0      26.347  23.691  -1.812  1.00  0.00    -0.357 OA
HETATM   21  H9          0      26.260  24.151  -0.985  1.00  0.00     0.218 HD
ENDBRANCH  17  20
BRANCH  18  22
HETATM   22  O11         0      25.376  21.892   0.121  1.00  0.00    -0.357 OA
HETATM   23  H11         0      24.965  21.313   0.753  1.00  0.00     0.218 HD
ENDBRANCH  18  22
ENDBRANCH   4  14
BRANCH   8  24
HETATM   24  O17         0      18.749  26.231  -4.168  1.00  0.00    -0.359 OA
HETATM   25  H17         0      19.101  26.746  -4.884  1.00  0.00     0.218 HD
ENDBRANCH   8  24
TORSDOF 5
ENDMDL
MODEL 2
REMARK VINA RESULT:      -3.8      4.693      8.431
REMARK  5 active torsions:
REMARK  status: ('A' for Active; 'I' for Inactive)
REMARK    1  A    between atoms: C4_4  and  C5_5 
REMARK    2  A    between atoms: C8_8  and  O9_9 
REMARK    3  A    between atoms: C10_11  and  O11_12 
REMARK    4  A    between atoms: C16_18  and  O17_19 
REMARK    5  A    between atoms: C19_22  and  O20_23 
ROOT
HETATM    1  O1          0      23.929  29.915  -3.247  1.00  0.00    -0.286 OA
HETATM    2  C2          0      23.791  29.106  -4.205  1.00  0.00     0.201 C 
HETATM    3  C3          0      22.559  28.806  -4.762  1.00  0.00     0.067 C 
HETATM    4  C4          0      22.422  27.834  -5.747  1.00  0.00     0.103 C 
HETATM    5  O13         0      23.503  27.201  -6.169  1.00  0.00    -0.307 OA
HETATM    6  C14         0      24.690  27.421  -5.648  1.00  0.00     0.107 C 
HETATM    7  C15         0      25.729  26.512  -5.786  1.00  0.00     0.049 C 
HETATM    8  C16         0      26.890  26.622  -5.030  1.00  0.00     0.093 C 
HETATM    9  C18         0      27.172  27.903  -4.570  1.00  0.00     0.048 C 
HETATM   10  C19         0      26.164  28.852  -4.463  1.00  0.00     0.096 C 
HETATM   11  C21         0      24.886  28.529  -4.830  1.00  0.00     0.084 C 
ENDROOT
BRANCH  10  12
HETATM   12  O20         0      26.345  29.944  -3.621  1.00  0.00    -0.359 OA
HETATM   13  H20         0      26.273  29.801  -2.685  1.00  0.00     0.218 HD
ENDBRANCH  10  12
BRANCH   4  14
HETATM   14  C5          0      21.127  27.160  -5.847  1.00  0.00     0.025 C 
HETATM   15  C6          0      20.997  25.835  -6.239  1.00  0.00     0.004 C 
HETATM   16  C7          0      20.033  25.065  -5.596  1.00  0.00     0.026 C 
HETATM   17  C8          0      19.138  25.623  -4.690  1.00  0.00     0.112 C 
HETATM   18  C10         0      18.931  26.987  -4.846  1.00  0.00     0.112 C 
HETATM   19  C12         0      19.946  27.748  -5.414  1.00  0.00     0.028 C 
BRANCH  17  20
HETATM   20  O9          0      18.677  24.895  -3.608  1.00  0.00    -0.357 OA
HETATM   21  H9          0      17.889  25.111  -3.123  1.00  0.00     0.218 HD
ENDBRANCH  17  20
BRANCH  18  22
HETATM   22  O11         0      17.912  27.558  -4.097  1.00  0.00    -0.357 OA
HETATM   23  H11         0      18.081  27.691  -3.171  1.00  0.00     0.218 HD
ENDBRANCH  18  22
ENDBRANCH   4  14
BRANCH   8  24
HETATM   24  O17         0      27.523  25.493  -4.498  1.00  0.00    -0.359 OA
HETATM   25  H17         0      27.263  25.122  -3.663  1.00  0.00     0.218 HD
ENDBRANCH   8  24
TORSDOF 5
ENDMDL
MODEL 3
REMARK VINA RESULT:      -3.8      4.824      6.233
REMARK  5 active torsions:
REMARK  status: ('A' for Active; 'I' for Inactive)
REMARK    1  A    between atoms: C4_4  and  C5_5 
REMARK    2  A    between atoms: C8_8  and  O9_9 
REMARK    3  A    between atoms: C10_11  and  O11_12 
REMARK    4  A    between atoms: C16_18  and  O17_19 
REMARK    5  A    between atoms: C19_22  and  O20_23 
ROOT
HETATM    1  O1          0      21.979  24.772  -7.239  1.00  0.00    -0.286 OA
HETATM    2  C2          0      21.419  25.712  -6.610  1.00  0.00     0.201 C 
HETATM    3  C3          0      22.048  26.916  -6.343  1.00  0.00     0.067 C 
HETATM    4  C4          0      21.446  27.894  -5.560  1.00  0.00     0.103 C 
HETATM    5  O13         0      20.235  27.667  -5.080  1.00  0.00    -0.307 OA
HETATM    6  C14         0      19.610  26.527  -5.272  1.00  0.00     0.107 C 
HETATM    7  C15         0      18.552  26.129  -4.467  1.00  0.00     0.049 C 
HETATM    8  C16         0      18.065  24.828  -4.507  1.00  0.00     0.093 C 
HETATM    9  C18         0      18.298  24.150  -5.698  1.00  0.00     0.048 C 
HETATM   10  C19         0      19.319  24.551  -6.549  1.00  0.00     0.096 C 
HETATM   11  C21         0      20.090  25.632  -6.223  1.00  0.00     0.084 C 
ENDROOT
BRANCH  10  12
HETATM   12  O20         0      19.822  23.647  -7.480  1.00  0.00    -0.359 OA
HETATM   13  H20         0      19.279  22.907  -7.721  1.00  0.00     0.218 HD
ENDBRANCH  10  12
BRANCH   4  14
HETATM   14  C5          0      22.329  28.812  -4.838  1.00  0.00     0.025 C 
HETATM   15  C6          0      21.853  29.814  -4.005  1.00  0.00     0.004 C 
HETATM   16  C7          0      22.561  30.069  -2.835  1.00  0.00     0.026 C 
HETATM   17  C8          0      23.775  29.445  -2.566  1.00  0.00     0.112 C 
HETATM   18  C10         0      24.450  28.983  -3.687  1.00  0.00     0.112 C 
HETATM   19  C12         0      23.709  28.654  -4.816  1.00  0.00     0.028 C 
BRANCH  17  20
HETATM   20  O9          0      24.142  29.139  -1.267  1.00  0.00    -0.357 OA
HETATM   21  H9          0      23.887  29.655  -0.511  1.00  0.00     0.218 HD
ENDBRANCH  17  20
BRANCH  18  22
HETATM   22  O11         0      25.746  28.524  -3.496  1.00  0.00    -0.357 OA
HETATM   23  H11         0      26.351  29.114  -3.062  1.00  0.00     0.218 HD
ENDBRANCH  18  22
ENDBRANCH   4  14
BRANCH   8  24
HETATM   24  O17         0      17.683  24.156  -3.341  1.00  0.00    -0.359 OA
HETATM   25  H17         0      18.077  23.329  -3.089  1.00  0.00     0.218 HD
ENDBRANCH   8  24
TORSDOF 5
ENDMDL
MODEL 4
REMARK VINA RESULT:      -3.3      5.289      6.392
REMARK  5 active torsions:
REMARK  status: ('A' for Active; 'I' for Inactive)
REMARK    1  A    between atoms: C4_4  and  C5_5 
REMARK    2  A    between atoms: C8_8  and  O9_9 
REMARK    3  A    between atoms: C10_11  and  O11_12 
REMARK    4  A    between atoms: C16_18  and  O17_19 
REMARK    5  A    between atoms: C19_22  and  O20_23 
ROOT
HETATM    1  O1          0      20.393  25.067  -5.733  1.00  0.00    -0.286 OA
HETATM    2  C2          0      20.749  26.272  -5.848  1.00  0.00     0.201 C 
HETATM    3  C3          0      21.990  26.644  -6.337  1.00  0.00     0.067 C 
HETATM    4  C4          0      22.396  27.973  -6.357  1.00  0.00     0.103 C 
HETATM    5  O13         0      21.563  28.899  -5.915  1.00  0.00    -0.307 OA
HETATM    6  C14         0      20.388  28.596  -5.407  1.00  0.00     0.107 C 
HETATM    7  C15         0      19.694  29.481  -4.594  1.00  0.00     0.049 C 
HETATM    8  C16         0      18.589  29.069  -3.859  1.00  0.00     0.093 C 
HETATM    9  C18         0      17.926  27.958  -4.367  1.00  0.00     0.048 C 
HETATM   10  C19         0      18.577  27.078  -5.220  1.00  0.00     0.096 C 
HETATM   11  C21         0      19.876  27.314  -5.577  1.00  0.00     0.084 C 
ENDROOT
BRANCH  10  12
HETATM   12  O20         0      18.085  25.785  -5.368  1.00  0.00    -0.359 OA
HETATM   13  H20         0      17.473  25.464  -4.716  1.00  0.00     0.218 HD
ENDBRANCH  10  12
BRANCH   4  14
HETATM   14  C5          0      23.836  28.235  -6.297  1.00  0.00     0.025 C 
HETATM   15  C6          0      24.397  29.442  -6.687  1.00  0.00     0.004 C 
HETATM   16  C7          0      25.461  29.931  -5.935  1.00  0.00     0.026 C 
HETATM   17  C8          0      26.035  29.184  -4.912  1.00  0.00     0.112 C 
HETATM   18  C10         0      25.846  27.812  -5.019  1.00  0.00     0.112 C 
HETATM   19  C12         0      24.729  27.351  -5.704  1.00  0.00     0.028 C 
BRANCH  17  20
HETATM   20  O9          0      26.556  29.802  -3.789  1.00  0.00    -0.357 OA
HETATM   21  H9          0      27.441  30.145  -3.738  1.00  0.00     0.218 HD
ENDBRANCH  17  20
BRANCH  18  22
HETATM   22  O11         0      26.554  27.010  -4.135  1.00  0.00    -0.357 OA
HETATM   23  H11         0      26.213  26.136  -3.982  1.00  0.00     0.218 HD
ENDBRANCH  18  22
ENDBRANCH   4  14
BRANCH   8  24
HETATM   24  O17         0      18.374  29.521  -2.552  1.00  0.00    -0.359 OA
HETATM   25  H17         0      17.560  29.940  -2.296  1.00  0.00     0.218 HD
ENDBRANCH   8  24
TORSDOF 5
ENDMDL
MODEL 5
REMARK VINA RESULT:      -3.2      7.380      8.605
REMARK  5 active torsions:
REMARK  status: ('A' for Active; 'I' for Inactive)
REMARK    1  A    between atoms: C4_4  and  C5_5 
REMARK    2  A    between atoms: C8_8  and  O9_9 
REMARK    3  A    between atoms: C10_11  and  O11_12 
REMARK    4  A    between atoms: C16_18  and  O17_19 
REMARK    5  A    between atoms: C19_22  and  O20_23 
ROOT
HETATM    1  O1          0      23.700  27.235  -6.128  1.00  0.00    -0.286 OA
HETATM    2  C2          0      24.679  27.957  -5.794  1.00  0.00     0.201 C 
HETATM    3  C3          0      25.920  27.866  -6.401  1.00  0.00     0.067 C 
HETATM    4  C4          0      27.009  28.601  -5.945  1.00  0.00     0.103 C 
HETATM    5  O13         0      26.840  29.418  -4.921  1.00  0.00    -0.307 OA
HETATM    6  C14         0      25.693  29.514  -4.285  1.00  0.00     0.107 C 
HETATM    7  C15         0      25.610  30.038  -3.003  1.00  0.00     0.049 C 
HETATM    8  C16         0      24.454  29.905  -2.243  1.00  0.00     0.093 C 
HETATM    9  C18         0      23.287  29.727  -2.976  1.00  0.00     0.048 C 
HETATM   10  C19         0      23.337  29.248  -4.278  1.00  0.00     0.096 C 
HETATM   11  C21         0      24.547  28.965  -4.850  1.00  0.00     0.084 C 
ENDROOT
BRANCH  10  12
HETATM   12  O20         0      22.201  28.669  -4.835  1.00  0.00    -0.359 OA
HETATM   13  H20         0      22.214  28.466  -5.762  1.00  0.00     0.218 HD
ENDBRANCH  10  12
BRANCH   4  14
HETATM   14  C5          0      28.342  28.046  -6.192  1.00  0.00     0.025 C 
HETATM   15  C6          0      29.189  27.643  -5.171  1.00  0.00     0.004 C 
HETATM   16  C7          0      29.953  26.499  -5.381  1.00  0.00     0.026 C 
HETATM   17  C8          0      29.976  25.853  -6.613  1.00  0.00     0.112 C 
HETATM   18  C10         0      29.631  26.654  -7.694  1.00  0.00     0.112 C 
HETATM   19  C12         0      28.796  27.743  -7.469  1.00  0.00     0.028 C 
BRANCH  17  20
HETATM   20  O9          0      30.125  24.480  -6.691  1.00  0.00    -0.357 OA
HETATM   21  H9          0      29.455  23.894  -7.024  1.00  0.00     0.218 HD
ENDBRANCH  17  20
BRANCH  18  22
HETATM   22  O11         0      29.819  26.117  -8.959  1.00  0.00    -0.357 OA
HETATM   23  H11         0      29.601  25.199  -9.073  1.00  0.00     0.218 HD
ENDBRANCH  18  22
ENDBRANCH   4  14
BRANCH   8  24
HETATM   24  O17         0      24.510  29.633  -0.871  1.00  0.00    -0.359 OA
HETATM   25  H17         0      24.587  30.328  -0.228  1.00  0.00     0.218 HD
ENDBRANCH   8  24
TORSDOF 5
ENDMDL
MODEL 6
REMARK VINA RESULT:      -3.2      2.104      6.858
REMARK  5 active torsions:
REMARK  status: ('A' for Active; 'I' for Inactive)
REMARK    1  A    between atoms: C4_4  and  C5_5 
REMARK    2  A    between atoms: C8_8  and  O9_9 
REMARK    3  A    between atoms: C10_11  and  O11_12 
REMARK    4  A    between atoms: C16_18  and  O17_19 
REMARK    5  A    between atoms: C19_22  and  O20_23 
ROOT
HETATM    1  O1          0      25.292  18.309  -3.116  1.00  0.00    -0.286 OA
HETATM    2  C2          0      24.682  19.153  -2.404  1.00  0.00     0.201 C 
HETATM    3  C3          0      23.311  19.125  -2.214  1.00  0.00     0.067 C 
HETATM    4  C4          0      22.652  20.126  -1.509  1.00  0.00     0.103 C 
HETATM    5  O13         0      23.363  21.114  -0.995  1.00  0.00    -0.307 OA
HETATM    6  C14         0      24.662  21.209  -1.178  1.00  0.00     0.107 C 
HETATM    7  C15         0      25.339  22.406  -1.001  1.00  0.00     0.049 C 
HETATM    8  C16         0      26.650  22.566  -1.436  1.00  0.00     0.093 C 
HETATM    9  C18         0      27.380  21.388  -1.544  1.00  0.00     0.048 C 
HETATM   10  C19         0      26.733  20.167  -1.675  1.00  0.00     0.096 C 
HETATM   11  C21         0      25.365  20.120  -1.682  1.00  0.00     0.084 C 
ENDROOT
BRANCH  10  12
HETATM   12  O20         0      27.425  19.085  -2.209  1.00  0.00    -0.359 OA
HETATM   13  H20         0      27.542  19.051  -3.151  1.00  0.00     0.218 HD
ENDBRANCH  10  12
BRANCH   4  14
HETATM   14  C5          0      21.248  20.369  -1.846  1.00  0.00     0.025 C 
HETATM   15  C6          0      20.203  19.666  -1.266  1.00  0.00     0.004 C 
HETATM   16  C7          0      19.040  20.369  -0.969  1.00  0.00     0.026 C 
HETATM   17  C8          0      18.869  21.694  -1.357  1.00  0.00     0.112 C 
HETATM   18  C10         0      19.650  22.087  -2.435  1.00  0.00     0.112 C 
HETATM   19  C12         0      20.850  21.423  -2.659  1.00  0.00     0.028 C 
BRANCH  17  20
HETATM   20  O9          0      18.136  22.572  -0.578  1.00  0.00    -0.357 OA
HETATM   21  H9          0      17.296  22.358  -0.190  1.00  0.00     0.218 HD
ENDBRANCH  17  20
BRANCH  18  22
HETATM   22  O11         0      19.384  23.335  -2.982  1.00  0.00    -0.357 OA
HETATM   23  H11         0      18.665  23.389  -3.601  1.00  0.00     0.218 HD
ENDBRANCH  18  22
ENDBRANCH   4  14
BRANCH   8  24
HETATM   24  O17         0      27.080  23.756  -2.034  1.00  0.00    -0.359 OA
HETATM   25  H17         0      26.947  23.926  -2.959  1.00  0.00     0.218 HD
ENDBRANCH   8  24
TORSDOF 5
ENDMDL
MODEL 7
REMARK VINA RESULT:      -3.1      2.052      3.632
REMARK  5 active torsions:
REMARK  status: ('A' for Active; 'I' for Inactive)
REMARK    1  A    between atoms: C4_4  and  C5_5 
REMARK    2  A    between atoms: C8_8  and  O9_9 
REMARK    3  A    between atoms: C10_11  and  O11_12 
REMARK    4  A    between atoms: C16_18  and  O17_19 
REMARK    5  A    between atoms: C19_22  and  O20_23 
ROOT
HETATM    1  O1          0      17.161  23.227  -4.428  1.00  0.00    -0.286 OA
HETATM    2  C2          0      17.794  22.857  -3.401  1.00  0.00     0.201 C 
HETATM    3  C3          0      19.165  22.664  -3.394  1.00  0.00     0.067 C 
HETATM    4  C4          0      19.823  22.158  -2.279  1.00  0.00     0.103 C 
HETATM    5  O13         0      19.117  21.876  -1.199  1.00  0.00    -0.307 OA
HETATM    6  C14         0      17.809  22.005  -1.165  1.00  0.00     0.107 C 
HETATM    7  C15         0      17.034  21.354  -0.216  1.00  0.00     0.049 C 
HETATM    8  C16         0      15.652  21.286  -0.336  1.00  0.00     0.093 C 
HETATM    9  C18         0      15.078  22.300  -1.094  1.00  0.00     0.048 C 
HETATM   10  C19         0      15.836  23.004  -2.019  1.00  0.00     0.096 C 
HETATM   11  C21         0      17.163  22.709  -2.175  1.00  0.00     0.084 C 
ENDROOT
BRANCH  10  12
HETATM   12  O20         0      15.193  23.682  -3.050  1.00  0.00    -0.359 OA
HETATM   13  H20         0      14.286  23.933  -2.920  1.00  0.00     0.218 HD
ENDBRANCH  10  12
BRANCH   4  14
HETATM   14  C5          0      21.075  21.435  -2.512  1.00  0.00     0.025 C 
HETATM   15  C6          0      21.751  21.472  -3.723  1.00  0.00     0.004 C 
HETATM   16  C7          0      23.141  21.510  -3.683  1.00  0.00     0.026 C 
HETATM   17  C8          0      23.841  21.378  -2.489  1.00  0.00     0.112 C 
HETATM   18  C10         0      23.145  20.729  -1.478  1.00  0.00     0.112 C 
HETATM   19  C12         0      21.756  20.779  -1.495  1.00  0.00     0.028 C 
BRANCH  17  20
HETATM   20  O9          0      25.041  22.038  -2.294  1.00  0.00    -0.357 OA
HETATM   21  H9          0      25.638  21.848  -1.579  1.00  0.00     0.218 HD
ENDBRANCH  17  20
BRANCH  18  22
HETATM   22  O11         0      23.858  20.404  -0.333  1.00  0.00    -0.357 OA
HETATM   23  H11         0      24.008  19.480  -0.168  1.00  0.00     0.218 HD
ENDBRANCH  18  22
ENDBRANCH   4  14
BRANCH   8  24
HETATM   24  O17         0      14.948  20.120  -0.013  1.00  0.00    -0.359 OA
HETATM   25  H17         0      15.246  19.530   0.668  1.00  0.00     0.218 HD
ENDBRANCH   8  24
TORSDOF 5
ENDMDL
MODEL 8
REMARK VINA RESULT:      -3.1      2.051      6.980
REMARK  5 active torsions:
REMARK  status: ('A' for Active; 'I' for Inactive)
REMARK    1  A    between atoms: C4_4  and  C5_5 
REMARK    2  A    between atoms: C8_8  and  O9_9 
REMARK    3  A    between atoms: C10_11  and  O11_12 
REMARK    4  A    between atoms: C16_18  and  O17_19 
REMARK    5  A    between atoms: C19_22  and  O20_23 
ROOT
HETATM    1  O1          0      25.868  18.163  -1.863  1.00  0.00    -0.286 OA
HETATM    2  C2          0      25.245  19.219  -1.562  1.00  0.00     0.201 C 
HETATM    3  C3          0      23.879  19.360  -1.734  1.00  0.00     0.067 C 
HETATM    4  C4          0      23.235  20.567  -1.491  1.00  0.00     0.103 C 
HETATM    5  O13         0      23.949  21.594  -1.066  1.00  0.00    -0.307 OA
HETATM    6  C14         0      25.255  21.525  -0.922  1.00  0.00     0.107 C 
HETATM    7  C15         0      26.046  22.664  -0.872  1.00  0.00     0.049 C 
HETATM    8  C16         0      27.429  22.586  -0.976  1.00  0.00     0.093 C 
HETATM    9  C18         0      27.979  21.367  -0.600  1.00  0.00     0.048 C 
HETATM   10  C19         0      27.204  20.215  -0.594  1.00  0.00     0.096 C 
HETATM   11  C21         0      25.883  20.284  -0.945  1.00  0.00     0.084 C 
ENDROOT
BRANCH  10  12
HETATM   12  O20         0      27.829  18.974  -0.649  1.00  0.00    -0.359 OA
HETATM   13  H20         0      27.847  18.449   0.142  1.00  0.00     0.218 HD
ENDBRANCH  10  12
BRANCH   4  14
HETATM   14  C5          0      21.998  20.827  -2.231  1.00  0.00     0.025 C 
HETATM   15  C6          0      20.766  20.969  -1.610  1.00  0.00     0.004 C 
HETATM   16  C7          0      19.894  21.926  -2.119  1.00  0.00     0.026 C 
HETATM   17  C8          0      20.179  22.625  -3.287  1.00  0.00     0.112 C 
HETATM   18  C10         0      21.071  21.989  -4.140  1.00  0.00     0.112 C 
HETATM   19  C12         0      21.989  21.101  -3.593  1.00  0.00     0.028 C 
BRANCH  17  20
HETATM   20  O9          0      19.760  23.934  -3.450  1.00  0.00    -0.357 OA
HETATM   21  H9          0      18.954  24.179  -3.889  1.00  0.00     0.218 HD
ENDBRANCH  17  20
BRANCH  18  22
HETATM   22  O11         0      21.245  22.549  -5.398  1.00  0.00    -0.357 OA
HETATM   23  H11         0      22.061  23.008  -5.555  1.00  0.00     0.218 HD
ENDBRANCH  18  22
ENDBRANCH   4  14
BRANCH   8  24
HETATM   24  O17         0      28.159  23.527  -1.712  1.00  0.00    -0.359 OA
HETATM   25  H17         0      28.142  23.539  -2.662  1.00  0.00     0.218 HD
ENDBRANCH   8  24
TORSDOF 5
ENDMDL
MODEL 9
REMARK VINA RESULT:      -3.0      1.959      6.873
REMARK  5 active torsions:
REMARK  status: ('A' for Active; 'I' for Inactive)
REMARK    1  A    between atoms: C4_4  and  C5_5 
REMARK    2  A    between atoms: C8_8  and  O9_9 
REMARK    3  A    between atoms: C10_11  and  O11_12 
REMARK    4  A    between atoms: C16_18  and  O17_19 
REMARK    5  A    between atoms: C19_22  and  O20_23 
ROOT
HETATM    1  O1          0      21.076  22.889  -4.832  1.00  0.00    -0.286 OA
HETATM    2  C2          0      20.864  22.063  -3.902  1.00  0.00     0.201 C 
HETATM    3  C3          0      19.592  21.715  -3.482  1.00  0.00     0.067 C 
HETATM    4  C4          0      19.388  20.882  -2.388  1.00  0.00     0.103 C 
HETATM    5  O13         0      20.441  20.399  -1.753  1.00  0.00    -0.307 OA
HETATM    6  C14         0      21.670  20.727  -2.087  1.00  0.00     0.107 C 
HETATM    7  C15         0      22.734  20.562  -1.212  1.00  0.00     0.049 C 
HETATM    8  C16         0      23.973  21.138  -1.466  1.00  0.00     0.093 C 
HETATM    9  C18         0      24.236  21.399  -2.805  1.00  0.00     0.048 C 
HETATM   10  C19         0      23.196  21.524  -3.717  1.00  0.00     0.096 C 
HETATM   11  C21         0      21.903  21.372  -3.297  1.00  0.00     0.084 C 
ENDROOT
BRANCH  10  12
HETATM   12  O20         0      23.419  22.197  -4.914  1.00  0.00    -0.359 OA
HETATM   13  H20         0      24.313  22.425  -5.137  1.00  0.00     0.218 HD
ENDBRANCH  10  12
BRANCH   4  14
HETATM   14  C5          0      18.131  21.037  -1.653  1.00  0.00     0.025 C 
HETATM   15  C6          0      18.018  21.824  -0.516  1.00  0.00     0.004 C 
HETATM   16  C7          0      16.847  22.558  -0.355  1.00  0.00     0.026 C 
HETATM   17  C8          0      15.770  22.413  -1.222  1.00  0.00     0.112 C 
HETATM   18  C10         0      15.730  21.202  -1.901  1.00  0.00     0.112 C 
HETATM   19  C12         0      16.926  20.531  -2.123  1.00  0.00     0.028 C 
BRANCH  17  20
HETATM   20  O9          0      14.949  23.487  -1.519  1.00  0.00    -0.357 OA
HETATM   21  H9          0      14.884  23.879  -2.382  1.00  0.00     0.218 HD
ENDBRANCH  17  20
BRANCH  18  22
HETATM   22  O11         0      14.583  20.929  -2.632  1.00  0.00    -0.357 OA
HETATM   23  H11         0      14.701  20.513  -3.478  1.00  0.00     0.218 HD
ENDBRANCH  18  22
ENDBRANCH   4  14
BRANCH   8  24
HETATM   24  O17         0      24.733  21.713  -0.441  1.00  0.00    -0.359 OA
HETATM   25  H17         0      25.457  22.299  -0.626  1.00  0.00     0.218 HD
ENDBRANCH   8  24
TORSDOF 5
ENDMDL
