MODEL 1
REMARK VINA RESULT:      -7.4      0.000      0.000
REMARK  5 active torsions:
REMARK  status: ('A' for Active; 'I' for Inactive)
REMARK    1  A    between atoms: C4_4  and  C5_5 
REMARK    2  A    between atoms: C8_8  and  O9_9 
REMARK    3  A    between atoms: C10_11  and  O11_12 
REMARK    4  A    between atoms: C16_18  and  O17_19 
REMARK    5  A    between atoms: C19_22  and  O20_23 
ROOT
HETATM    1  O1          0      34.374  83.244 -30.408  1.00  0.00    -0.286 OA
HETATM    2  C2          0      35.575  83.371 -30.043  1.00  0.00     0.201 C 
HETATM    3  C3          0      36.645  83.159 -30.896  1.00  0.00     0.067 C 
HETATM    4  C4          0      37.959  83.205 -30.442  1.00  0.00     0.103 C 
HETATM    5  O13         0      38.181  83.479 -29.169  1.00  0.00    -0.307 OA
HETATM    6  C14         0      37.201  83.651 -28.309  1.00  0.00     0.107 C 
HETATM    7  C15         0      37.401  83.538 -26.941  1.00  0.00     0.049 C 
HETATM    8  C16         0      36.329  83.467 -26.058  1.00  0.00     0.093 C 
HETATM    9  C18         0      35.148  84.033 -26.523  1.00  0.00     0.048 C 
HETATM   10  C19         0      34.935  84.203 -27.884  1.00  0.00     0.096 C 
HETATM   11  C21         0      35.903  83.827 -28.775  1.00  0.00     0.084 C 
ENDROOT
BRANCH  10  12
HETATM   12  O20         0      33.634  84.348 -28.356  1.00  0.00    -0.359 OA
HETATM   13  H20         0      32.942  84.479 -27.719  1.00  0.00     0.218 HD
ENDBRANCH  10  12
BRANCH   4  14
HETATM   14  C5          0      38.949  82.417 -31.177  1.00  0.00     0.025 C 
HETATM   15  C6          0      39.200  82.597 -32.530  1.00  0.00     0.004 C 
HETATM   16  C7          0      40.519  82.494 -32.961  1.00  0.00     0.026 C 
HETATM   17  C8          0      41.537  82.094 -32.102  1.00  0.00     0.112 C 
HETATM   18  C10         0      41.115  81.351 -31.008  1.00  0.00     0.112 C 
HETATM   19  C12         0      39.817  81.536 -30.546  1.00  0.00     0.028 C 
BRANCH  17  20
HETATM   20  O9          0      42.819  82.594 -32.243  1.00  0.00    -0.357 OA
HETATM   21  H9          0      43.586  82.202 -31.840  1.00  0.00     0.218 HD
ENDBRANCH  17  20
BRANCH  18  22
HETATM   22  O11         0      42.101  80.768 -30.225  1.00  0.00    -0.357 OA
HETATM   23  H11         0      42.392  79.899 -30.476  1.00  0.00     0.218 HD
ENDBRANCH  18  22
ENDBRANCH   4  14
BRANCH   8  24
HETATM   24  O17         0      36.349  82.606 -24.955  1.00  0.00    -0.359 OA
HETATM   25  H17         0      37.089  82.037 -24.779  1.00  0.00     0.218 HD
ENDBRANCH   8  24
TORSDOF 5
ENDMDL
MODEL 2
REMARK VINA RESULT:      -7.4      1.693      6.728
REMARK  5 active torsions:
REMARK  status: ('A' for Active; 'I' for Inactive)
REMARK    1  A    between atoms: C4_4  and  C5_5 
REMARK    2  A    between atoms: C8_8  and  O9_9 
REMARK    3  A    between atoms: C10_11  and  O11_12 
REMARK    4  A    between atoms: C16_18  and  O17_19 
REMARK    5  A    between atoms: C19_22  and  O20_23 
ROOT
HETATM    1  O1          0      38.875  80.414 -28.975  1.00  0.00    -0.286 OA
HETATM    2  C2          0      38.764  81.608 -29.366  1.00  0.00     0.201 C 
HETATM    3  C3          0      37.775  82.460 -28.906  1.00  0.00     0.067 C 
HETATM    4  C4          0      37.612  83.738 -29.429  1.00  0.00     0.103 C 
HETATM    5  O13         0      38.441  84.147 -30.374  1.00  0.00    -0.307 OA
HETATM    6  C14         0      39.373  83.366 -30.873  1.00  0.00     0.107 C 
HETATM    7  C15         0      39.965  83.625 -32.100  1.00  0.00     0.049 C 
HETATM    8  C16         0      40.754  82.674 -32.737  1.00  0.00     0.093 C 
HETATM    9  C18         0      41.335  81.735 -31.894  1.00  0.00     0.048 C 
HETATM   10  C19         0      40.796  81.484 -30.639  1.00  0.00     0.096 C 
HETATM   11  C21         0      39.694  82.179 -30.222  1.00  0.00     0.084 C 
ENDROOT
BRANCH  10  12
HETATM   12  O20         0      41.091  80.283 -30.000  1.00  0.00    -0.359 OA
HETATM   13  H20         0      40.775  79.480 -30.395  1.00  0.00     0.218 HD
ENDBRANCH  10  12
BRANCH   4  14
HETATM   14  C5          0      36.271  84.322 -29.366  1.00  0.00     0.025 C 
HETATM   15  C6          0      35.558  84.691 -30.497  1.00  0.00     0.004 C 
HETATM   16  C7          0      34.186  84.459 -30.498  1.00  0.00     0.026 C 
HETATM   17  C8          0      33.523  84.000 -29.365  1.00  0.00     0.112 C 
HETATM   18  C10         0      34.171  84.267 -28.167  1.00  0.00     0.112 C 
HETATM   19  C12         0      35.553  84.411 -28.180  1.00  0.00     0.028 C 
BRANCH  17  20
HETATM   20  O9          0      32.424  83.166 -29.476  1.00  0.00    -0.357 OA
HETATM   21  H9          0      31.753  83.264 -30.141  1.00  0.00     0.218 HD
ENDBRANCH  17  20
BRANCH  18  22
HETATM   22  O11         0      33.468  84.001 -27.000  1.00  0.00    -0.357 OA
HETATM   23  H11         0      33.965  83.997 -26.190  1.00  0.00     0.218 HD
ENDBRANCH  18  22
ENDBRANCH   4  14
BRANCH   8  24
HETATM   24  O17         0      40.688  82.480 -34.121  1.00  0.00    -0.359 OA
HETATM   25  H17         0      40.907  81.646 -34.519  1.00  0.00     0.218 HD
ENDBRANCH   8  24
TORSDOF 5
ENDMDL
MODEL 3
REMARK VINA RESULT:      -7.3      1.334      2.714
REMARK  5 active torsions:
REMARK  status: ('A' for Active; 'I' for Inactive)
REMARK    1  A    between atoms: C4_4  and  C5_5 
REMARK    2  A    between atoms: C8_8  and  O9_9 
REMARK    3  A    between atoms: C10_11  and  O11_12 
REMARK    4  A    between atoms: C16_18  and  O17_19 
REMARK    5  A    between atoms: C19_22  and  O20_23 
ROOT
HETATM    1  O1          0      38.950  83.190 -26.372  1.00  0.00    -0.286 OA
HETATM    2  C2          0      38.414  82.867 -27.468  1.00  0.00     0.201 C 
HETATM    3  C3          0      39.070  82.121 -28.433  1.00  0.00     0.067 C 
HETATM    4  C4          0      38.494  81.867 -29.672  1.00  0.00     0.103 C 
HETATM    5  O13         0      37.284  82.335 -29.918  1.00  0.00    -0.307 OA
HETATM    6  C14         0      36.633  83.080 -29.052  1.00  0.00     0.107 C 
HETATM    7  C15         0      35.574  83.890 -29.434  1.00  0.00     0.049 C 
HETATM    8  C16         0      35.059  84.857 -28.579  1.00  0.00     0.093 C 
HETATM    9  C18         0      35.269  84.616 -27.227  1.00  0.00     0.048 C 
HETATM   10  C19         0      36.291  83.774 -26.811  1.00  0.00     0.096 C 
HETATM   11  C21         0      37.087  83.162 -27.740  1.00  0.00     0.084 C 
ENDROOT
BRANCH  10  12
HETATM   12  O20         0      36.769  83.876 -25.508  1.00  0.00    -0.359 OA
HETATM   13  H20         0      37.272  83.149 -25.160  1.00  0.00     0.218 HD
ENDBRANCH  10  12
BRANCH   4  14
HETATM   14  C5          0      39.402  81.634 -30.797  1.00  0.00     0.025 C 
HETATM   15  C6          0      39.128  82.067 -32.086  1.00  0.00     0.004 C 
HETATM   16  C7          0      40.190  82.551 -32.844  1.00  0.00     0.026 C 
HETATM   17  C8          0      41.502  82.483 -32.387  1.00  0.00     0.112 C 
HETATM   18  C10         0      41.733  81.502 -31.432  1.00  0.00     0.112 C 
HETATM   19  C12         0      40.672  81.097 -30.630  1.00  0.00     0.028 C 
BRANCH  17  20
HETATM   20  O9          0      42.420  83.463 -32.719  1.00  0.00    -0.357 OA
HETATM   21  H9          0      43.294  83.280 -33.044  1.00  0.00     0.218 HD
ENDBRANCH  17  20
BRANCH  18  22
HETATM   22  O11         0      43.055  81.265 -31.082  1.00  0.00    -0.357 OA
HETATM   23  H11         0      43.211  80.879 -30.227  1.00  0.00     0.218 HD
ENDBRANCH  18  22
ENDBRANCH   4  14
BRANCH   8  24
HETATM   24  O17         0      34.673  86.117 -29.051  1.00  0.00    -0.359 OA
HETATM   25  H17         0      34.721  86.891 -28.503  1.00  0.00     0.218 HD
ENDBRANCH   8  24
TORSDOF 5
ENDMDL
MODEL 4
REMARK VINA RESULT:      -6.8      1.447      6.497
REMARK  5 active torsions:
REMARK  status: ('A' for Active; 'I' for Inactive)
REMARK    1  A    between atoms: C4_4  and  C5_5 
REMARK    2  A    between atoms: C8_8  and  O9_9 
REMARK    3  A    between atoms: C10_11  and  O11_12 
REMARK    4  A    between atoms: C16_18  and  O17_19 
REMARK    5  A    between atoms: C19_22  and  O20_23 
ROOT
HETATM    1  O1          0      39.605  84.512 -32.534  1.00  0.00    -0.286 OA
HETATM    2  C2          0      39.221  83.745 -31.609  1.00  0.00     0.201 C 
HETATM    3  C3          0      38.143  84.037 -30.791  1.00  0.00     0.067 C 
HETATM    4  C4          0      37.804  83.225 -29.714  1.00  0.00     0.103 C 
HETATM    5  O13         0      38.523  82.139 -29.487  1.00  0.00    -0.307 OA
HETATM    6  C14         0      39.578  81.836 -30.210  1.00  0.00     0.107 C 
HETATM    7  C15         0      40.549  80.956 -29.753  1.00  0.00     0.049 C 
HETATM    8  C16         0      41.774  80.835 -30.398  1.00  0.00     0.093 C 
HETATM    9  C18         0      41.769  81.195 -31.740  1.00  0.00     0.048 C 
HETATM   10  C19         0      40.785  82.037 -32.241  1.00  0.00     0.096 C 
HETATM   11  C21         0      39.802  82.502 -31.410  1.00  0.00     0.084 C 
ENDROOT
BRANCH  10  12
HETATM   12  O20         0      41.020  82.729 -33.425  1.00  0.00    -0.359 OA
HETATM   13  H20         0      41.706  82.409 -33.999  1.00  0.00     0.218 HD
ENDBRANCH  10  12
BRANCH   4  14
HETATM   14  C5          0      37.108  83.856 -28.592  1.00  0.00     0.025 C 
HETATM   15  C6          0      36.085  84.777 -28.764  1.00  0.00     0.004 C 
HETATM   16  C7          0      35.011  84.722 -27.881  1.00  0.00     0.026 C 
HETATM   17  C8          0      35.015  83.870 -26.782  1.00  0.00     0.112 C 
HETATM   18  C10         0      36.277  83.486 -26.350  1.00  0.00     0.112 C 
HETATM   19  C12         0      37.315  83.469 -27.274  1.00  0.00     0.028 C 
BRANCH  17  20
HETATM   20  O9          0      33.840  83.303 -26.320  1.00  0.00    -0.357 OA
HETATM   21  H9          0      33.038  83.794 -26.177  1.00  0.00     0.218 HD
ENDBRANCH  17  20
BRANCH  18  22
HETATM   22  O11         0      36.347  82.794 -25.149  1.00  0.00    -0.357 OA
HETATM   23  H11         0      37.187  82.411 -24.922  1.00  0.00     0.218 HD
ENDBRANCH  18  22
ENDBRANCH   4  14
BRANCH   8  24
HETATM   24  O17         0      42.966  80.692 -29.679  1.00  0.00    -0.359 OA
HETATM   25  H17         0      43.729  81.225 -29.867  1.00  0.00     0.218 HD
ENDBRANCH   8  24
TORSDOF 5
ENDMDL
MODEL 5
REMARK VINA RESULT:      -6.7      2.501      3.817
REMARK  5 active torsions:
REMARK  status: ('A' for Active; 'I' for Inactive)
REMARK    1  A    between atoms: C4_4  and  C5_5 
REMARK    2  A    between atoms: C8_8  and  O9_9 
REMARK    3  A    between atoms: C10_11  and  O11_12 
REMARK    4  A    between atoms: C16_18  and  O17_19 
REMARK    5  A    between atoms: C19_22  and  O20_23 
ROOT
HETATM    1  O1          0      39.278  81.827 -29.067  1.00  0.00    -0.286 OA
HETATM    2  C2          0      39.044  82.636 -30.006  1.00  0.00     0.201 C 
HETATM    3  C3          0      39.739  82.618 -31.203  1.00  0.00     0.067 C 
HETATM    4  C4          0      39.532  83.585 -32.180  1.00  0.00     0.103 C 
HETATM    5  O13         0      38.633  84.528 -31.960  1.00  0.00    -0.307 OA
HETATM    6  C14         0      37.972  84.613 -30.826  1.00  0.00     0.107 C 
HETATM    7  C15         0      37.347  85.786 -30.430  1.00  0.00     0.049 C 
HETATM    8  C16         0      36.874  85.951 -29.134  1.00  0.00     0.093 C 
HETATM    9  C18         0      36.579  84.770 -28.463  1.00  0.00     0.048 C 
HETATM   10  C19         0      37.151  83.570 -28.861  1.00  0.00     0.096 C 
HETATM   11  C21         0      38.000  83.546 -29.934  1.00  0.00     0.084 C 
ENDROOT
BRANCH  10  12
HETATM   12  O20         0      37.208  82.511 -27.961  1.00  0.00    -0.359 OA
HETATM   13  H20         0      37.925  81.894 -28.043  1.00  0.00     0.218 HD
ENDBRANCH  10  12
BRANCH   4  14
HETATM   14  C5          0      40.646  83.871 -33.086  1.00  0.00     0.025 C 
HETATM   15  C6          0      40.462  84.306 -34.390  1.00  0.00     0.004 C 
HETATM   16  C7          0      41.346  85.261 -34.882  1.00  0.00     0.026 C 
HETATM   17  C8          0      42.456  85.673 -34.152  1.00  0.00     0.112 C 
HETATM   18  C10         0      42.893  84.762 -33.199  1.00  0.00     0.112 C 
HETATM   19  C12         0      41.968  83.874 -32.662  1.00  0.00     0.028 C 
BRANCH  17  20
HETATM   20  O9          0      42.925  86.971 -34.246  1.00  0.00    -0.357 OA
HETATM   21  H9          0      43.453  87.290 -34.968  1.00  0.00     0.218 HD
ENDBRANCH  17  20
BRANCH  18  22
HETATM   22  O11         0      44.102  85.036 -32.576  1.00  0.00    -0.357 OA
HETATM   23  H11         0      44.804  85.366 -33.125  1.00  0.00     0.218 HD
ENDBRANCH  18  22
ENDBRANCH   4  14
BRANCH   8  24
HETATM   24  O17         0      37.011  87.167 -28.456  1.00  0.00    -0.359 OA
HETATM   25  H17         0      36.982  87.999 -28.914  1.00  0.00     0.218 HD
ENDBRANCH   8  24
TORSDOF 5
ENDMDL
MODEL 6
REMARK VINA RESULT:      -6.6      1.705      3.390
REMARK  5 active torsions:
REMARK  status: ('A' for Active; 'I' for Inactive)
REMARK    1  A    between atoms: C4_4  and  C5_5 
REMARK    2  A    between atoms: C8_8  and  O9_9 
REMARK    3  A    between atoms: C10_11  and  O11_12 
REMARK    4  A    between atoms: C16_18  and  O17_19 
REMARK    5  A    between atoms: C19_22  and  O20_23 
ROOT
HETATM    1  O1          0      35.862  84.498 -26.488  1.00  0.00    -0.286 OA
HETATM    2  C2          0      36.052  83.915 -27.591  1.00  0.00     0.201 C 
HETATM    3  C3          0      37.221  83.235 -27.888  1.00  0.00     0.067 C 
HETATM    4  C4          0      37.446  82.689 -29.147  1.00  0.00     0.103 C 
HETATM    5  O13         0      36.506  82.810 -30.068  1.00  0.00    -0.307 OA
HETATM    6  C14         0      35.395  83.477 -29.850  1.00  0.00     0.107 C 
HETATM    7  C15         0      34.607  83.946 -30.891  1.00  0.00     0.049 C 
HETATM    8  C16         0      33.583  84.859 -30.667  1.00  0.00     0.093 C 
HETATM    9  C18         0      33.063  84.853 -29.379  1.00  0.00     0.048 C 
HETATM   10  C19         0      33.806  84.348 -28.320  1.00  0.00     0.096 C 
HETATM   11  C21         0      35.054  83.836 -28.550  1.00  0.00     0.084 C 
ENDROOT
BRANCH  10  12
HETATM   12  O20         0      33.487  84.731 -27.021  1.00  0.00    -0.359 OA
HETATM   13  H20         0      34.139  85.213 -26.527  1.00  0.00     0.218 HD
ENDBRANCH  10  12
BRANCH   4  14
HETATM   14  C5          0      38.838  82.544 -29.575  1.00  0.00     0.025 C 
HETATM   15  C6          0      39.745  81.723 -28.920  1.00  0.00     0.004 C 
HETATM   16  C7          0      40.655  81.017 -29.700  1.00  0.00     0.026 C 
HETATM   17  C8          0      40.752  81.220 -31.072  1.00  0.00     0.112 C 
HETATM   18  C10         0      40.289  82.454 -31.510  1.00  0.00     0.112 C 
HETATM   19  C12         0      39.316  83.099 -30.755  1.00  0.00     0.028 C 
BRANCH  17  20
HETATM   20  O9          0      41.086  80.180 -31.921  1.00  0.00    -0.357 OA
HETATM   21  H9          0      40.725  79.304 -31.850  1.00  0.00     0.218 HD
ENDBRANCH  17  20
BRANCH  18  22
HETATM   22  O11         0      40.534  82.783 -32.835  1.00  0.00    -0.357 OA
HETATM   23  H11         0      39.777  82.888 -33.399  1.00  0.00     0.218 HD
ENDBRANCH  18  22
ENDBRANCH   4  14
BRANCH   8  24
HETATM   24  O17         0      33.339  85.913 -31.555  1.00  0.00    -0.359 OA
HETATM   25  H17         0      33.381  85.793 -32.496  1.00  0.00     0.218 HD
ENDBRANCH   8  24
TORSDOF 5
ENDMDL
MODEL 7
REMARK VINA RESULT:      -6.5      1.865      2.448
REMARK  5 active torsions:
REMARK  status: ('A' for Active; 'I' for Inactive)
REMARK    1  A    between atoms: C4_4  and  C5_5 
REMARK    2  A    between atoms: C8_8  and  O9_9 
REMARK    3  A    between atoms: C10_11  and  O11_12 
REMARK    4  A    between atoms: C16_18  and  O17_19 
REMARK    5  A    between atoms: C19_22  and  O20_23 
ROOT
HETATM    1  O1          0      33.743  83.427 -29.785  1.00  0.00    -0.286 OA
HETATM    2  C2          0      34.915  83.874 -29.647  1.00  0.00     0.201 C 
HETATM    3  C3          0      35.761  84.103 -30.719  1.00  0.00     0.067 C 
HETATM    4  C4          0      37.081  84.498 -30.533  1.00  0.00     0.103 C 
HETATM    5  O13         0      37.523  84.675 -29.300  1.00  0.00    -0.307 OA
HETATM    6  C14         0      36.773  84.435 -28.247  1.00  0.00     0.107 C 
HETATM    7  C15         0      37.322  84.229 -26.990  1.00  0.00     0.049 C 
HETATM    8  C16         0      36.559  83.728 -25.942  1.00  0.00     0.093 C 
HETATM    9  C18         0      35.192  83.953 -26.052  1.00  0.00     0.048 C 
HETATM   10  C19         0      34.616  84.208 -27.289  1.00  0.00     0.096 C 
HETATM   11  C21         0      35.403  84.256 -28.407  1.00  0.00     0.084 C 
ENDROOT
BRANCH  10  12
HETATM   12  O20         0      33.251  84.000 -27.460  1.00  0.00    -0.359 OA
HETATM   13  H20         0      32.695  84.761 -27.573  1.00  0.00     0.218 HD
ENDBRANCH  10  12
BRANCH   4  14
HETATM   14  C5          0      38.039  84.145 -31.581  1.00  0.00     0.025 C 
HETATM   15  C6          0      39.328  83.712 -31.307  1.00  0.00     0.004 C 
HETATM   16  C7          0      39.855  82.706 -32.112  1.00  0.00     0.026 C 
HETATM   17  C8          0      39.179  82.241 -33.234  1.00  0.00     0.112 C 
HETATM   18  C10         0      38.259  83.133 -33.768  1.00  0.00     0.112 C 
HETATM   19  C12         0      37.683  84.074 -32.922  1.00  0.00     0.028 C 
BRANCH  17  20
HETATM   20  O9          0      39.284  80.918 -33.627  1.00  0.00    -0.357 OA
HETATM   21  H9          0      38.728  80.517 -34.285  1.00  0.00     0.218 HD
ENDBRANCH  17  20
BRANCH  18  22
HETATM   22  O11         0      37.696  82.798 -34.991  1.00  0.00    -0.357 OA
HETATM   23  H11         0      38.063  82.047 -35.443  1.00  0.00     0.218 HD
ENDBRANCH  18  22
ENDBRANCH   4  14
BRANCH   8  24
HETATM   24  O17         0      37.081  82.792 -25.042  1.00  0.00    -0.359 OA
HETATM   25  H17         0      38.005  82.574 -25.029  1.00  0.00     0.218 HD
ENDBRANCH   8  24
TORSDOF 5
ENDMDL
MODEL 8
REMARK VINA RESULT:      -6.4      2.072      6.191
REMARK  5 active torsions:
REMARK  status: ('A' for Active; 'I' for Inactive)
REMARK    1  A    between atoms: C4_4  and  C5_5 
REMARK    2  A    between atoms: C8_8  and  O9_9 
REMARK    3  A    between atoms: C10_11  and  O11_12 
REMARK    4  A    between atoms: C16_18  and  O17_19 
REMARK    5  A    between atoms: C19_22  and  O20_23 
ROOT
HETATM    1  O1          0      35.098  84.750 -33.294  1.00  0.00    -0.286 OA
HETATM    2  C2          0      35.538  83.998 -32.381  1.00  0.00     0.201 C 
HETATM    3  C3          0      35.213  84.170 -31.047  1.00  0.00     0.067 C 
HETATM    4  C4          0      35.792  83.392 -30.050  1.00  0.00     0.103 C 
HETATM    5  O13         0      36.657  82.455 -30.398  1.00  0.00    -0.307 OA
HETATM    6  C14         0      37.028  82.275 -31.647  1.00  0.00     0.107 C 
HETATM    7  C15         0      38.194  81.598 -31.972  1.00  0.00     0.049 C 
HETATM    8  C16         0      38.711  81.630 -33.262  1.00  0.00     0.093 C 
HETATM    9  C18         0      37.781  81.890 -34.261  1.00  0.00     0.048 C 
HETATM   10  C19         0      36.583  82.524 -33.962  1.00  0.00     0.096 C 
HETATM   11  C21         0      36.308  82.882 -32.671  1.00  0.00     0.084 C 
ENDROOT
BRANCH  10  12
HETATM   12  O20         0      35.877  83.160 -34.979  1.00  0.00    -0.359 OA
HETATM   13  H20         0      34.930  83.099 -34.969  1.00  0.00     0.218 HD
ENDBRANCH  10  12
BRANCH   4  14
HETATM   14  C5          0      35.891  83.981 -28.713  1.00  0.00     0.025 C 
HETATM   15  C6          0      34.786  84.197 -27.903  1.00  0.00     0.004 C 
HETATM   16  C7          0      34.932  83.968 -26.539  1.00  0.00     0.026 C 
HETATM   17  C8          0      36.168  83.665 -25.978  1.00  0.00     0.112 C 
HETATM   18  C10         0      37.261  84.089 -26.722  1.00  0.00     0.112 C 
HETATM   19  C12         0      37.111  84.228 -28.097  1.00  0.00     0.028 C 
BRANCH  17  20
HETATM   20  O9          0      36.264  82.825 -24.883  1.00  0.00    -0.357 OA
HETATM   21  H9          0      36.741  83.044 -24.090  1.00  0.00     0.218 HD
ENDBRANCH  17  20
BRANCH  18  22
HETATM   22  O11         0      38.509  83.983 -26.124  1.00  0.00    -0.357 OA
HETATM   23  H11         0      39.088  84.732 -26.201  1.00  0.00     0.218 HD
ENDBRANCH  18  22
ENDBRANCH   4  14
BRANCH   8  24
HETATM   24  O17         0      40.087  81.733 -33.493  1.00  0.00    -0.359 OA
HETATM   25  H17         0      40.724  81.413 -32.865  1.00  0.00     0.218 HD
ENDBRANCH   8  24
TORSDOF 5
ENDMDL
MODEL 9
REMARK VINA RESULT:      -6.3      2.517      6.785
REMARK  5 active torsions:
REMARK  status: ('A' for Active; 'I' for Inactive)
REMARK    1  A    between atoms: C4_4  and  C5_5 
REMARK    2  A    between atoms: C8_8  and  O9_9 
REMARK    3  A    between atoms: C10_11  and  O11_12 
REMARK    4  A    between atoms: C16_18  and  O17_19 
REMARK    5  A    between atoms: C19_22  and  O20_23 
ROOT
HETATM    1  O1          0      38.246  80.947 -29.248  1.00  0.00    -0.286 OA
HETATM    2  C2          0      38.388  82.099 -29.743  1.00  0.00     0.201 C 
HETATM    3  C3          0      37.483  83.125 -29.529  1.00  0.00     0.067 C 
HETATM    4  C4          0      37.609  84.353 -30.168  1.00  0.00     0.103 C 
HETATM    5  O13         0      38.631  84.542 -30.984  1.00  0.00    -0.307 OA
HETATM    6  C14         0      39.497  83.589 -31.252  1.00  0.00     0.107 C 
HETATM    7  C15         0      40.310  83.636 -32.375  1.00  0.00     0.049 C 
HETATM    8  C16         0      41.032  82.523 -32.790  1.00  0.00     0.093 C 
HETATM    9  C18         0      41.317  81.602 -31.789  1.00  0.00     0.048 C 
HETATM   10  C19         0      40.552  81.559 -30.631  1.00  0.00     0.096 C 
HETATM   11  C21         0      39.520  82.442 -30.466  1.00  0.00     0.084 C 
ENDROOT
BRANCH  10  12
HETATM   12  O20         0      40.549  80.400 -29.861  1.00  0.00    -0.359 OA
HETATM   13  H20         0      40.891  80.453 -28.976  1.00  0.00     0.218 HD
ENDBRANCH  10  12
BRANCH   4  14
HETATM   14  C5          0      36.383  85.124 -30.384  1.00  0.00     0.025 C 
HETATM   15  C6          0      35.284  85.039 -29.542  1.00  0.00     0.004 C 
HETATM   16  C7          0      34.585  86.212 -29.275  1.00  0.00     0.026 C 
HETATM   17  C8          0      34.884  87.404 -29.926  1.00  0.00     0.112 C 
HETATM   18  C10         0      35.522  87.252 -31.149  1.00  0.00     0.112 C 
HETATM   19  C12         0      36.285  86.108 -31.358  1.00  0.00     0.028 C 
BRANCH  17  20
HETATM   20  O9          0      34.736  88.620 -29.282  1.00  0.00    -0.357 OA
HETATM   21  H9          0      34.264  89.358 -29.649  1.00  0.00     0.218 HD
ENDBRANCH  17  20
BRANCH  18  22
HETATM   22  O11         0      35.674  88.392 -31.925  1.00  0.00    -0.357 OA
HETATM   23  H11         0      35.330  88.358 -32.811  1.00  0.00     0.218 HD
ENDBRANCH  18  22
ENDBRANCH   4  14
BRANCH   8  24
HETATM   24  O17         0      41.159  82.200 -34.146  1.00  0.00    -0.359 OA
HETATM   25  H17         0      40.479  82.410 -34.774  1.00  0.00     0.218 HD
ENDBRANCH   8  24
TORSDOF 5
ENDMDL
