MODEL 1
REMARK VINA RESULT:      -2.7      0.000      0.000
REMARK  5 active torsions:
REMARK  status: ('A' for Active; 'I' for Inactive)
REMARK    1  A    between atoms: C4_4  and  C5_5 
REMARK    2  A    between atoms: C8_8  and  O9_9 
REMARK    3  A    between atoms: C10_11  and  O11_12 
REMARK    4  A    between atoms: C16_18  and  O17_19 
REMARK    5  A    between atoms: C19_22  and  O20_23 
ROOT
HETATM    1  O1          0      47.248   8.326  15.742  1.00  0.00    -0.286 OA
HETATM    2  C2          0      46.786   8.833  14.683  1.00  0.00     0.201 C 
HETATM    3  C3          0      45.433   8.858  14.391  1.00  0.00     0.067 C 
HETATM    4  C4          0      44.959   9.330  13.172  1.00  0.00     0.103 C 
HETATM    5  O13         0      45.829   9.783  12.285  1.00  0.00    -0.307 OA
HETATM    6  C14         0      47.126   9.747  12.498  1.00  0.00     0.107 C 
HETATM    7  C15         0      48.039   9.836  11.457  1.00  0.00     0.049 C 
HETATM    8  C16         0      49.384   9.545  11.651  1.00  0.00     0.093 C 
HETATM    9  C18         0      49.835   9.692  12.957  1.00  0.00     0.048 C 
HETATM   10  C19         0      48.942   9.656  14.019  1.00  0.00     0.096 C 
HETATM   11  C21         0      47.605   9.490  13.777  1.00  0.00     0.084 C 
ENDROOT
BRANCH  10  12
HETATM   12  O20         0      49.414   9.367  15.296  1.00  0.00    -0.359 OA
HETATM   13  H20         0      49.600  10.095  15.877  1.00  0.00     0.218 HD
ENDBRANCH  10  12
BRANCH   4  14
HETATM   14  C5          0      43.682   8.794  12.696  1.00  0.00     0.025 C 
HETATM   15  C6          0      42.936   7.876  13.421  1.00  0.00     0.004 C 
HETATM   16  C7          0      41.551   8.013  13.401  1.00  0.00     0.026 C 
HETATM   17  C8          0      40.922   8.945  12.583  1.00  0.00     0.112 C 
HETATM   18  C10         0      41.664   9.344  11.480  1.00  0.00     0.112 C 
HETATM   19  C12         0      43.051   9.276  11.557  1.00  0.00     0.028 C 
BRANCH  17  20
HETATM   20  O9          0      39.748   9.560  12.982  1.00  0.00    -0.357 OA
HETATM   21  H9          0      39.546   9.777  13.885  1.00  0.00     0.218 HD
ENDBRANCH  17  20
BRANCH  18  22
HETATM   22  O11         0      41.015  10.124  10.534  1.00  0.00    -0.357 OA
HETATM   23  H11         0      40.185  10.508  10.790  1.00  0.00     0.218 HD
ENDBRANCH  18  22
ENDBRANCH   4  14
BRANCH   8  24
HETATM   24  O17         0      50.124   8.843  10.692  1.00  0.00    -0.359 OA
HETATM   25  H17         0      50.692   8.120  10.932  1.00  0.00     0.218 HD
ENDBRANCH   8  24
TORSDOF 5
ENDMDL
MODEL 2
REMARK VINA RESULT:      -2.7      3.332      8.082
REMARK  5 active torsions:
REMARK  status: ('A' for Active; 'I' for Inactive)
REMARK    1  A    between atoms: C4_4  and  C5_5 
REMARK    2  A    between atoms: C8_8  and  O9_9 
REMARK    3  A    between atoms: C10_11  and  O11_12 
REMARK    4  A    between atoms: C16_18  and  O17_19 
REMARK    5  A    between atoms: C19_22  and  O20_23 
ROOT
HETATM    1  O1          0      39.407   8.041  13.788  1.00  0.00    -0.286 OA
HETATM    2  C2          0      40.234   8.633  14.534  1.00  0.00     0.201 C 
HETATM    3  C3          0      41.601   8.604  14.312  1.00  0.00     0.067 C 
HETATM    4  C4          0      42.497   9.179  15.206  1.00  0.00     0.103 C 
HETATM    5  O13         0      42.022   9.783  16.281  1.00  0.00    -0.307 OA
HETATM    6  C14         0      40.737   9.807  16.559  1.00  0.00     0.107 C 
HETATM    7  C15         0      40.270  10.069  17.839  1.00  0.00     0.049 C 
HETATM    8  C16         0      38.943   9.844  18.183  1.00  0.00     0.093 C 
HETATM    9  C18         0      38.048   9.873  17.121  1.00  0.00     0.048 C 
HETATM   10  C19         0      38.488   9.661  15.822  1.00  0.00     0.096 C 
HETATM   11  C21         0      39.817   9.438  15.583  1.00  0.00     0.084 C 
ENDROOT
BRANCH  10  12
HETATM   12  O20         0      37.575   9.261  14.851  1.00  0.00    -0.359 OA
HETATM   13  H20         0      36.983   9.916  14.500  1.00  0.00     0.218 HD
ENDBRANCH  10  12
BRANCH   4  14
HETATM   14  C5          0      43.849   8.620  15.251  1.00  0.00     0.025 C 
HETATM   15  C6          0      44.115   7.276  15.030  1.00  0.00     0.004 C 
HETATM   16  C7          0      45.266   6.956  14.318  1.00  0.00     0.026 C 
HETATM   17  C8          0      46.192   7.927  13.953  1.00  0.00     0.112 C 
HETATM   18  C10         0      46.169   9.073  14.736  1.00  0.00     0.112 C 
HETATM   19  C12         0      44.981   9.417  15.369  1.00  0.00     0.028 C 
BRANCH  17  20
HETATM   20  O9          0      46.910   7.815  12.776  1.00  0.00    -0.357 OA
HETATM   21  H9          0      46.546   7.996  11.917  1.00  0.00     0.218 HD
ENDBRANCH  17  20
BRANCH  18  22
HETATM   22  O11         0      47.192   9.990  14.538  1.00  0.00    -0.357 OA
HETATM   23  H11         0      47.760   9.846  13.790  1.00  0.00     0.218 HD
ENDBRANCH  18  22
ENDBRANCH   4  14
BRANCH   8  24
HETATM   24  O17         0      38.594   9.303  19.425  1.00  0.00    -0.359 OA
HETATM   25  H17         0      37.695   9.081  19.638  1.00  0.00     0.218 HD
ENDBRANCH   8  24
TORSDOF 5
ENDMDL
MODEL 3
REMARK VINA RESULT:      -2.7      9.748     12.151
REMARK  5 active torsions:
REMARK  status: ('A' for Active; 'I' for Inactive)
REMARK    1  A    between atoms: C4_4  and  C5_5 
REMARK    2  A    between atoms: C8_8  and  O9_9 
REMARK    3  A    between atoms: C10_11  and  O11_12 
REMARK    4  A    between atoms: C16_18  and  O17_19 
REMARK    5  A    between atoms: C19_22  and  O20_23 
ROOT
HETATM    1  O1          0      47.017   8.374   2.021  1.00  0.00    -0.286 OA
HETATM    2  C2          0      47.948   7.574   2.314  1.00  0.00     0.201 C 
HETATM    3  C3          0      48.201   6.420   1.592  1.00  0.00     0.067 C 
HETATM    4  C4          0      49.165   5.503   1.996  1.00  0.00     0.103 C 
HETATM    5  O13         0      49.865   5.759   3.087  1.00  0.00    -0.307 OA
HETATM    6  C14         0      49.639   6.821   3.830  1.00  0.00     0.107 C 
HETATM    7  C15         0      50.067   6.895   5.148  1.00  0.00     0.049 C 
HETATM    8  C16         0      49.612   7.895   5.999  1.00  0.00     0.093 C 
HETATM    9  C18         0      49.179   9.053   5.365  1.00  0.00     0.048 C 
HETATM   10  C19         0      48.787   9.024   4.033  1.00  0.00     0.096 C 
HETATM   11  C21         0      48.845   7.849   3.334  1.00  0.00     0.084 C 
ENDROOT
BRANCH  10  12
HETATM   12  O20         0      47.967  10.035   3.543  1.00  0.00    -0.359 OA
HETATM   13  H20         0      47.896  10.836   4.048  1.00  0.00     0.218 HD
ENDBRANCH  10  12
BRANCH   4  14
HETATM   14  C5          0      48.976   4.110   1.591  1.00  0.00     0.025 C 
HETATM   15  C6          0      49.863   3.442   0.758  1.00  0.00     0.004 C 
HETATM   16  C7          0      50.124   2.104   1.035  1.00  0.00     0.026 C 
HETATM   17  C8          0      49.428   1.414   2.022  1.00  0.00     0.112 C 
HETATM   18  C10         0      48.185   1.948   2.335  1.00  0.00     0.112 C 
HETATM   19  C12         0      47.978   3.306   2.128  1.00  0.00     0.028 C 
BRANCH  17  20
HETATM   20  O9          0      50.042   0.415   2.755  1.00  0.00    -0.357 OA
HETATM   21  H9          0      50.958   0.431   3.007  1.00  0.00     0.218 HD
ENDBRANCH  17  20
BRANCH  18  22
HETATM   22  O11         0      47.371   1.197   3.172  1.00  0.00    -0.357 OA
HETATM   23  H11         0      46.724   1.670   3.681  1.00  0.00     0.218 HD
ENDBRANCH  18  22
ENDBRANCH   4  14
BRANCH   8  24
HETATM   24  O17         0      49.302   7.629   7.337  1.00  0.00    -0.359 OA
HETATM   25  H17         0      48.449   7.834   7.702  1.00  0.00     0.218 HD
ENDBRANCH   8  24
TORSDOF 5
ENDMDL
MODEL 4
REMARK VINA RESULT:      -2.6      3.144      6.737
REMARK  5 active torsions:
REMARK  status: ('A' for Active; 'I' for Inactive)
REMARK    1  A    between atoms: C4_4  and  C5_5 
REMARK    2  A    between atoms: C8_8  and  O9_9 
REMARK    3  A    between atoms: C10_11  and  O11_12 
REMARK    4  A    between atoms: C16_18  and  O17_19 
REMARK    5  A    between atoms: C19_22  and  O20_23 
ROOT
HETATM    1  O1          0      44.697   8.264  10.436  1.00  0.00    -0.286 OA
HETATM    2  C2          0      45.796   8.863  10.594  1.00  0.00     0.201 C 
HETATM    3  C3          0      46.666   9.122   9.548  1.00  0.00     0.067 C 
HETATM    4  C4          0      47.916   9.691   9.765  1.00  0.00     0.103 C 
HETATM    5  O13         0      48.264  10.007  11.000  1.00  0.00    -0.307 OA
HETATM    6  C14         0      47.491   9.748  12.032  1.00  0.00     0.107 C 
HETATM    7  C15         0      47.991   9.700  13.325  1.00  0.00     0.049 C 
HETATM    8  C16         0      47.238   9.181  14.371  1.00  0.00     0.093 C 
HETATM    9  C18         0      45.862   9.225  14.182  1.00  0.00     0.048 C 
HETATM   10  C19         0      45.329   9.320  12.904  1.00  0.00     0.096 C 
HETATM   11  C21         0      46.164   9.388  11.822  1.00  0.00     0.084 C 
ENDROOT
BRANCH  10  12
HETATM   12  O20         0      44.011   8.930  12.686  1.00  0.00    -0.359 OA
HETATM   13  H20         0      43.843   8.016  12.492  1.00  0.00     0.218 HD
ENDBRANCH  10  12
BRANCH   4  14
HETATM   14  C5          0      48.967   9.390   8.791  1.00  0.00     0.025 C 
HETATM   15  C6          0      49.784   8.273   8.889  1.00  0.00     0.004 C 
HETATM   16  C7          0      50.125   7.618   7.710  1.00  0.00     0.026 C 
HETATM   17  C8          0      49.778   8.131   6.465  1.00  0.00     0.112 C 
HETATM   18  C10         0      49.547   9.500   6.445  1.00  0.00     0.112 C 
HETATM   19  C12         0      49.125  10.115   7.617  1.00  0.00     0.028 C 
BRANCH  17  20
HETATM   20  O9          0      49.488   7.287   5.407  1.00  0.00    -0.357 OA
HETATM   21  H9          0      49.276   7.591   4.532  1.00  0.00     0.218 HD
ENDBRANCH  17  20
BRANCH  18  22
HETATM   22  O11         0      49.383  10.091   5.200  1.00  0.00    -0.357 OA
HETATM   23  H11         0      49.293   9.508   4.456  1.00  0.00     0.218 HD
ENDBRANCH  18  22
ENDBRANCH   4  14
BRANCH   8  24
HETATM   24  O17         0      47.819   8.383  15.362  1.00  0.00    -0.359 OA
HETATM   25  H17         0      48.324   7.608  15.146  1.00  0.00     0.218 HD
ENDBRANCH   8  24
TORSDOF 5
ENDMDL
MODEL 5
REMARK VINA RESULT:      -2.5      3.114      6.686
REMARK  5 active torsions:
REMARK  status: ('A' for Active; 'I' for Inactive)
REMARK    1  A    between atoms: C4_4  and  C5_5 
REMARK    2  A    between atoms: C8_8  and  O9_9 
REMARK    3  A    between atoms: C10_11  and  O11_12 
REMARK    4  A    between atoms: C16_18  and  O17_19 
REMARK    5  A    between atoms: C19_22  and  O20_23 
ROOT
HETATM    1  O1          0      42.656   9.757  16.008  1.00  0.00    -0.286 OA
HETATM    2  C2          0      43.852   9.357  16.040  1.00  0.00     0.201 C 
HETATM    3  C3          0      44.743   9.572  15.002  1.00  0.00     0.067 C 
HETATM    4  C4          0      46.024   9.032  15.018  1.00  0.00     0.103 C 
HETATM    5  O13         0      46.398   8.315  16.063  1.00  0.00    -0.307 OA
HETATM    6  C14         0      45.579   8.049  17.058  1.00  0.00     0.107 C 
HETATM    7  C15         0      45.811   7.000  17.935  1.00  0.00     0.049 C 
HETATM    8  C16         0      44.828   6.566  18.816  1.00  0.00     0.093 C 
HETATM    9  C18         0      43.870   7.518  19.143  1.00  0.00     0.048 C 
HETATM   10  C19         0      43.645   8.606  18.311  1.00  0.00     0.096 C 
HETATM   11  C21         0      44.384   8.752  17.168  1.00  0.00     0.084 C 
ENDROOT
BRANCH  10  12
HETATM   12  O20         0      42.437   9.291  18.398  1.00  0.00    -0.359 OA
HETATM   13  H20         0      41.820   9.021  19.067  1.00  0.00     0.218 HD
ENDBRANCH  10  12
BRANCH   4  14
HETATM   14  C5          0      46.660   8.776  13.724  1.00  0.00     0.025 C 
HETATM   15  C6          0      46.317   9.464  12.569  1.00  0.00     0.004 C 
HETATM   16  C7          0      47.342   9.798  11.690  1.00  0.00     0.026 C 
HETATM   17  C8          0      48.644   9.347  11.883  1.00  0.00     0.112 C 
HETATM   18  C10         0      48.752   8.199  12.655  1.00  0.00     0.112 C 
HETATM   19  C12         0      47.755   7.934  13.587  1.00  0.00     0.028 C 
BRANCH  17  20
HETATM   20  O9          0      49.726  10.122  11.503  1.00  0.00    -0.357 OA
HETATM   21  H9          0      50.623   9.934  11.752  1.00  0.00     0.218 HD
ENDBRANCH  17  20
BRANCH  18  22
HETATM   22  O11         0      50.002   7.601  12.722  1.00  0.00    -0.357 OA
HETATM   23  H11         0      50.084   6.836  13.279  1.00  0.00     0.218 HD
ENDBRANCH  18  22
ENDBRANCH   4  14
BRANCH   8  24
HETATM   24  O17         0      44.631   5.205  19.076  1.00  0.00    -0.359 OA
HETATM   25  H17         0      43.788   4.867  19.356  1.00  0.00     0.218 HD
ENDBRANCH   8  24
TORSDOF 5
ENDMDL
MODEL 6
REMARK VINA RESULT:      -2.5      1.828      2.326
REMARK  5 active torsions:
REMARK  status: ('A' for Active; 'I' for Inactive)
REMARK    1  A    between atoms: C4_4  and  C5_5 
REMARK    2  A    between atoms: C8_8  and  O9_9 
REMARK    3  A    between atoms: C10_11  and  O11_12 
REMARK    4  A    between atoms: C16_18  and  O17_19 
REMARK    5  A    between atoms: C19_22  and  O20_23 
ROOT
HETATM    1  O1          0      47.484   8.105  15.834  1.00  0.00    -0.286 OA
HETATM    2  C2          0      46.929   8.614  14.822  1.00  0.00     0.201 C 
HETATM    3  C3          0      45.572   8.497  14.572  1.00  0.00     0.067 C 
HETATM    4  C4          0      45.003   8.979  13.398  1.00  0.00     0.103 C 
HETATM    5  O13         0      45.782   9.579  12.515  1.00  0.00    -0.307 OA
HETATM    6  C14         0      47.081   9.684  12.686  1.00  0.00     0.107 C 
HETATM    7  C15         0      47.940   9.937  11.626  1.00  0.00     0.049 C 
HETATM    8  C16         0      49.316   9.794  11.761  1.00  0.00     0.093 C 
HETATM    9  C18         0      49.793   9.919  13.060  1.00  0.00     0.048 C 
HETATM   10  C19         0      48.950   9.719  14.145  1.00  0.00     0.096 C 
HETATM   11  C21         0      47.634   9.412  13.933  1.00  0.00     0.084 C 
ENDROOT
BRANCH  10  12
HETATM   12  O20         0      49.499   9.416  15.387  1.00  0.00    -0.359 OA
HETATM   13  H20         0      49.725   8.511  15.564  1.00  0.00     0.218 HD
ENDBRANCH  10  12
BRANCH   4  14
HETATM   14  C5          0      43.780   8.325  12.930  1.00  0.00     0.025 C 
HETATM   15  C6          0      43.301   8.465  11.635  1.00  0.00     0.004 C 
HETATM   16  C7          0      42.738   7.345  11.032  1.00  0.00     0.026 C 
HETATM   17  C8          0      42.533   6.163  11.736  1.00  0.00     0.112 C 
HETATM   18  C10         0      42.445   6.316  13.113  1.00  0.00     0.112 C 
HETATM   19  C12         0      43.089   7.398  13.700  1.00  0.00     0.028 C 
BRANCH  17  20
HETATM   20  O9          0      42.630   4.936  11.104  1.00  0.00    -0.357 OA
HETATM   21  H9          0      41.945   4.568  10.557  1.00  0.00     0.218 HD
ENDBRANCH  17  20
BRANCH  18  22
HETATM   22  O11         0      42.054   5.204  13.845  1.00  0.00    -0.357 OA
HETATM   23  H11         0      41.149   5.173  14.131  1.00  0.00     0.218 HD
ENDBRANCH  18  22
ENDBRANCH   4  14
BRANCH   8  24
HETATM   24  O17         0      50.095   9.238  10.741  1.00  0.00    -0.359 OA
HETATM   25  H17         0      49.704   8.879   9.953  1.00  0.00     0.218 HD
ENDBRANCH   8  24
TORSDOF 5
ENDMDL
MODEL 7
REMARK VINA RESULT:      -2.4      3.519      5.407
REMARK  5 active torsions:
REMARK  status: ('A' for Active; 'I' for Inactive)
REMARK    1  A    between atoms: C4_4  and  C5_5 
REMARK    2  A    between atoms: C8_8  and  O9_9 
REMARK    3  A    between atoms: C10_11  and  O11_12 
REMARK    4  A    between atoms: C16_18  and  O17_19 
REMARK    5  A    between atoms: C19_22  and  O20_23 
ROOT
HETATM    1  O1          0      42.291   5.763  15.201  1.00  0.00    -0.286 OA
HETATM    2  C2          0      42.256   6.971  15.565  1.00  0.00     0.201 C 
HETATM    3  C3          0      41.076   7.633  15.858  1.00  0.00     0.067 C 
HETATM    4  C4          0      41.057   8.991  16.157  1.00  0.00     0.103 C 
HETATM    5  O13         0      42.200   9.652  16.178  1.00  0.00    -0.307 OA
HETATM    6  C14         0      43.344   9.081  15.871  1.00  0.00     0.107 C 
HETATM    7  C15         0      44.457   9.823  15.503  1.00  0.00     0.049 C 
HETATM    8  C16         0      45.574   9.219  14.939  1.00  0.00     0.093 C 
HETATM    9  C18         0      45.734   7.874  15.250  1.00  0.00     0.048 C 
HETATM   10  C19         0      44.650   7.113  15.666  1.00  0.00     0.096 C 
HETATM   11  C21         0      43.418   7.694  15.787  1.00  0.00     0.084 C 
ENDROOT
BRANCH  10  12
HETATM   12  O20         0      44.710   5.727  15.554  1.00  0.00    -0.359 OA
HETATM   13  H20         0      44.899   5.224  16.337  1.00  0.00     0.218 HD
ENDBRANCH  10  12
BRANCH   4  14
HETATM   14  C5          0      39.824   9.724  15.863  1.00  0.00     0.025 C 
HETATM   15  C6          0      39.389   9.975  14.570  1.00  0.00     0.004 C 
HETATM   16  C7          0      38.021   9.901  14.324  1.00  0.00     0.026 C 
HETATM   17  C8          0      37.104   9.717  15.354  1.00  0.00     0.112 C 
HETATM   18  C10         0      37.554  10.108  16.608  1.00  0.00     0.112 C 
HETATM   19  C12         0      38.922  10.091  16.853  1.00  0.00     0.028 C 
BRANCH  17  20
HETATM   20  O9          0      35.936   9.005  15.144  1.00  0.00    -0.357 OA
HETATM   21  H9          0      35.067   9.366  15.277  1.00  0.00     0.218 HD
ENDBRANCH  17  20
BRANCH  18  22
HETATM   22  O11         0      36.620  10.124  17.634  1.00  0.00    -0.357 OA
HETATM   23  H11         0      36.708  10.810  18.284  1.00  0.00     0.218 HD
ENDBRANCH  18  22
ENDBRANCH   4  14
BRANCH   8  24
HETATM   24  O17         0      46.273   9.819  13.885  1.00  0.00    -0.359 OA
HETATM   25  H17         0      45.823  10.206  13.144  1.00  0.00     0.218 HD
ENDBRANCH   8  24
TORSDOF 5
ENDMDL
MODEL 8
REMARK VINA RESULT:      -2.4      8.334     10.857
REMARK  5 active torsions:
REMARK  status: ('A' for Active; 'I' for Inactive)
REMARK    1  A    between atoms: C4_4  and  C5_5 
REMARK    2  A    between atoms: C8_8  and  O9_9 
REMARK    3  A    between atoms: C10_11  and  O11_12 
REMARK    4  A    between atoms: C16_18  and  O17_19 
REMARK    5  A    between atoms: C19_22  and  O20_23 
ROOT
HETATM    1  O1          0      46.648   3.334   5.282  1.00  0.00    -0.286 OA
HETATM    2  C2          0      47.713   3.927   4.953  1.00  0.00     0.201 C 
HETATM    3  C3          0      48.457   4.682   5.843  1.00  0.00     0.067 C 
HETATM    4  C4          0      49.569   5.408   5.430  1.00  0.00     0.103 C 
HETATM    5  O13         0      49.927   5.353   4.160  1.00  0.00    -0.307 OA
HETATM    6  C14         0      49.234   4.682   3.266  1.00  0.00     0.107 C 
HETATM    7  C15         0      49.354   4.934   1.907  1.00  0.00     0.049 C 
HETATM    8  C16         0      48.447   4.412   0.993  1.00  0.00     0.093 C 
HETATM    9  C18         0      47.793   3.258   1.409  1.00  0.00     0.048 C 
HETATM   10  C19         0      47.695   2.951   2.759  1.00  0.00     0.096 C 
HETATM   11  C21         0      48.261   3.782   3.688  1.00  0.00     0.084 C 
ENDROOT
BRANCH  10  12
HETATM   12  O20         0      46.702   2.075   3.187  1.00  0.00    -0.359 OA
HETATM   13  H20         0      46.111   1.719   2.535  1.00  0.00     0.218 HD
ENDBRANCH  10  12
BRANCH   4  14
HETATM   14  C5          0      49.921   6.595   6.211  1.00  0.00     0.025 C 
HETATM   15  C6          0      50.125   7.841   5.635  1.00  0.00     0.004 C 
HETATM   16  C7          0      49.665   8.955   6.330  1.00  0.00     0.026 C 
HETATM   17  C8          0      49.141   8.850   7.614  1.00  0.00     0.112 C 
HETATM   18  C10         0      49.556   7.727   8.318  1.00  0.00     0.112 C 
HETATM   19  C12         0      49.929   6.597   7.600  1.00  0.00     0.028 C 
BRANCH  17  20
HETATM   20  O9          0      48.132   9.694   8.039  1.00  0.00    -0.357 OA
HETATM   21  H9          0      48.179  10.217   8.831  1.00  0.00     0.218 HD
ENDBRANCH  17  20
BRANCH  18  22
HETATM   22  O11         0      49.217   7.669   9.663  1.00  0.00    -0.357 OA
HETATM   23  H11         0      49.883   7.935  10.286  1.00  0.00     0.218 HD
ENDBRANCH  18  22
ENDBRANCH   4  14
BRANCH   8  24
HETATM   24  O17         0      47.989   5.166  -0.092  1.00  0.00    -0.359 OA
HETATM   25  H17         0      47.366   5.874   0.020  1.00  0.00     0.218 HD
ENDBRANCH   8  24
TORSDOF 5
ENDMDL
MODEL 9
REMARK VINA RESULT:      -2.3      3.704      5.933
REMARK  5 active torsions:
REMARK  status: ('A' for Active; 'I' for Inactive)
REMARK    1  A    between atoms: C4_4  and  C5_5 
REMARK    2  A    between atoms: C8_8  and  O9_9 
REMARK    3  A    between atoms: C10_11  and  O11_12 
REMARK    4  A    between atoms: C16_18  and  O17_19 
REMARK    5  A    between atoms: C19_22  and  O20_23 
ROOT
HETATM    1  O1          0      42.911   5.811  17.105  1.00  0.00    -0.286 OA
HETATM    2  C2          0      42.996   7.019  16.749  1.00  0.00     0.201 C 
HETATM    3  C3          0      42.908   7.419  15.427  1.00  0.00     0.067 C 
HETATM    4  C4          0      43.108   8.743  15.052  1.00  0.00     0.103 C 
HETATM    5  O13         0      43.368   9.636  15.991  1.00  0.00    -0.307 OA
HETATM    6  C14         0      43.499   9.303  17.256  1.00  0.00     0.107 C 
HETATM    7  C15         0      44.150  10.125  18.165  1.00  0.00     0.049 C 
HETATM    8  C16         0      44.509   9.664  19.426  1.00  0.00     0.093 C 
HETATM    9  C18         0      43.749   8.602  19.901  1.00  0.00     0.048 C 
HETATM   10  C19         0      43.048   7.788  19.023  1.00  0.00     0.096 C 
HETATM   11  C21         0      43.091   8.043  17.679  1.00  0.00     0.084 C 
ENDROOT
BRANCH  10  12
HETATM   12  O20         0      42.666   6.514  19.434  1.00  0.00    -0.359 OA
HETATM   13  H20         0      42.799   6.282  20.345  1.00  0.00     0.218 HD
ENDBRANCH  10  12
BRANCH   4  14
HETATM   14  C5          0      43.592   8.988  13.693  1.00  0.00     0.025 C 
HETATM   15  C6          0      44.844   9.525  13.425  1.00  0.00     0.004 C 
HETATM   16  C7          0      45.539   9.024  12.330  1.00  0.00     0.026 C 
HETATM   17  C8          0      44.958   8.117  11.450  1.00  0.00     0.112 C 
HETATM   18  C10         0      43.570   8.138  11.428  1.00  0.00     0.112 C 
HETATM   19  C12         0      42.898   8.564  12.567  1.00  0.00     0.028 C 
BRANCH  17  20
HETATM   20  O9          0      45.722   7.146  10.826  1.00  0.00    -0.357 OA
HETATM   21  H9          0      45.456   6.693  10.034  1.00  0.00     0.218 HD
ENDBRANCH  17  20
BRANCH  18  22
HETATM   22  O11         0      42.946   7.393  10.438  1.00  0.00    -0.357 OA
HETATM   23  H11         0      43.206   7.566   9.540  1.00  0.00     0.218 HD
ENDBRANCH  18  22
ENDBRANCH   4  14
BRANCH   8  24
HETATM   24  O17         0      45.734  10.012  20.008  1.00  0.00    -0.359 OA
HETATM   25  H17         0      45.779  10.485  20.830  1.00  0.00     0.218 HD
ENDBRANCH   8  24
TORSDOF 5
ENDMDL
