MODEL 1
REMARK VINA RESULT:      -6.6      0.000      0.000
REMARK  5 active torsions:
REMARK  status: ('A' for Active; 'I' for Inactive)
REMARK    1  A    between atoms: C4_4  and  C5_5 
REMARK    2  A    between atoms: C8_8  and  O9_9 
REMARK    3  A    between atoms: C10_11  and  O11_12 
REMARK    4  A    between atoms: C16_18  and  O17_19 
REMARK    5  A    between atoms: C19_22  and  O20_23 
ROOT
HETATM    1  O1          0      17.213  93.029 -15.193  1.00  0.00    -0.286 OA
HETATM    2  C2          0      16.526  92.018 -15.507  1.00  0.00     0.201 C 
HETATM    3  C3          0      15.240  91.811 -15.040  1.00  0.00     0.067 C 
HETATM    4  C4          0      14.544  90.640 -15.319  1.00  0.00     0.103 C 
HETATM    5  O13         0      15.126  89.717 -16.064  1.00  0.00    -0.307 OA
HETATM    6  C14         0      16.360  89.848 -16.501  1.00  0.00     0.107 C 
HETATM    7  C15         0      17.105  88.757 -16.925  1.00  0.00     0.049 C 
HETATM    8  C16         0      18.474  88.858 -17.141  1.00  0.00     0.093 C 
HETATM    9  C18         0      18.929  90.138 -17.430  1.00  0.00     0.048 C 
HETATM   10  C19         0      18.186  91.251 -17.062  1.00  0.00     0.096 C 
HETATM   11  C21         0      16.987  91.087 -16.424  1.00  0.00     0.084 C 
ENDROOT
BRANCH  10  12
HETATM   12  O20         0      18.819  92.486 -16.954  1.00  0.00    -0.359 OA
HETATM   13  H20         0      18.654  93.131 -17.631  1.00  0.00     0.218 HD
ENDBRANCH  10  12
BRANCH   4  14
HETATM   14  C5          0      13.518  90.226 -14.359  1.00  0.00     0.025 C 
HETATM   15  C6          0      13.700  90.296 -12.986  1.00  0.00     0.004 C 
HETATM   16  C7          0      12.611  90.679 -12.210  1.00  0.00     0.026 C 
HETATM   17  C8          0      11.348  90.856 -12.763  1.00  0.00     0.112 C 
HETATM   18  C10         0      11.134  90.171 -13.951  1.00  0.00     0.112 C 
HETATM   19  C12         0      12.232  89.875 -14.750  1.00  0.00     0.028 C 
BRANCH  17  20
HETATM   20  O9          0      10.480  91.809 -12.259  1.00  0.00    -0.357 OA
HETATM   21  H9          0      10.355  92.667 -12.647  1.00  0.00     0.218 HD
ENDBRANCH  17  20
BRANCH  18  22
HETATM   22  O11         0       9.837  90.159 -14.445  1.00  0.00    -0.357 OA
HETATM   23  H11         0       9.233  90.797 -14.083  1.00  0.00     0.218 HD
ENDBRANCH  18  22
ENDBRANCH   4  14
BRANCH   8  24
HETATM   24  O17         0      19.349  87.833 -16.764  1.00  0.00    -0.359 OA
HETATM   25  H17         0      19.052  87.083 -16.262  1.00  0.00     0.218 HD
ENDBRANCH   8  24
TORSDOF 5
ENDMDL
MODEL 2
REMARK VINA RESULT:      -6.2      1.645      6.533
REMARK  5 active torsions:
REMARK  status: ('A' for Active; 'I' for Inactive)
REMARK    1  A    between atoms: C4_4  and  C5_5 
REMARK    2  A    between atoms: C8_8  and  O9_9 
REMARK    3  A    between atoms: C10_11  and  O11_12 
REMARK    4  A    between atoms: C16_18  and  O17_19 
REMARK    5  A    between atoms: C19_22  and  O20_23 
ROOT
HETATM    1  O1          0      13.958  94.364 -14.897  1.00  0.00    -0.286 OA
HETATM    2  C2          0      14.400  93.208 -14.650  1.00  0.00     0.201 C 
HETATM    3  C3          0      15.466  92.651 -15.336  1.00  0.00     0.067 C 
HETATM    4  C4          0      15.867  91.338 -15.116  1.00  0.00     0.103 C 
HETATM    5  O13         0      15.222  90.620 -14.214  1.00  0.00    -0.307 OA
HETATM    6  C14         0      14.180  91.089 -13.562  1.00  0.00     0.107 C 
HETATM    7  C15         0      13.273  90.248 -12.933  1.00  0.00     0.049 C 
HETATM    8  C16         0      12.051  90.723 -12.470  1.00  0.00     0.093 C 
HETATM    9  C18         0      12.019  92.083 -12.186  1.00  0.00     0.048 C 
HETATM   10  C19         0      12.942  92.945 -12.762  1.00  0.00     0.096 C 
HETATM   11  C21         0      13.902  92.450 -13.602  1.00  0.00     0.084 C 
ENDROOT
BRANCH  10  12
HETATM   12  O20         0      12.651  94.304 -12.832  1.00  0.00    -0.359 OA
HETATM   13  H20         0      12.154  94.615 -13.578  1.00  0.00     0.218 HD
ENDBRANCH  10  12
BRANCH   4  14
HETATM   14  C5          0      16.533  90.647 -16.221  1.00  0.00     0.025 C 
HETATM   15  C6          0      17.380  91.292 -17.110  1.00  0.00     0.004 C 
HETATM   16  C7          0      18.510  90.604 -17.540  1.00  0.00     0.026 C 
HETATM   17  C8          0      18.724  89.271 -17.205  1.00  0.00     0.112 C 
HETATM   18  C10         0      17.574  88.564 -16.880  1.00  0.00     0.112 C 
HETATM   19  C12         0      16.487  89.267 -16.372  1.00  0.00     0.028 C 
BRANCH  17  20
HETATM   20  O9          0      20.005  88.785 -17.014  1.00  0.00    -0.357 OA
HETATM   21  H9          0      20.653  88.719 -17.706  1.00  0.00     0.218 HD
ENDBRANCH  17  20
BRANCH  18  22
HETATM   22  O11         0      17.704  87.191 -16.722  1.00  0.00    -0.357 OA
HETATM   23  H11         0      17.049  86.646 -17.143  1.00  0.00     0.218 HD
ENDBRANCH  18  22
ENDBRANCH   4  14
BRANCH   8  24
HETATM   24  O17         0      10.878  89.971 -12.605  1.00  0.00    -0.359 OA
HETATM   25  H17         0      10.848  89.049 -12.379  1.00  0.00     0.218 HD
ENDBRANCH   8  24
TORSDOF 5
ENDMDL
MODEL 3
REMARK VINA RESULT:      -6.2      1.860      6.988
REMARK  5 active torsions:
REMARK  status: ('A' for Active; 'I' for Inactive)
REMARK    1  A    between atoms: C4_4  and  C5_5 
REMARK    2  A    between atoms: C8_8  and  O9_9 
REMARK    3  A    between atoms: C10_11  and  O11_12 
REMARK    4  A    between atoms: C16_18  and  O17_19 
REMARK    5  A    between atoms: C19_22  and  O20_23 
ROOT
HETATM    1  O1          0      11.140  89.593 -14.452  1.00  0.00    -0.286 OA
HETATM    2  C2          0      12.086  90.421 -14.346  1.00  0.00     0.201 C 
HETATM    3  C3          0      13.230  90.356 -15.123  1.00  0.00     0.067 C 
HETATM    4  C4          0      14.301  91.218 -14.917  1.00  0.00     0.103 C 
HETATM    5  O13         0      14.207  92.131 -13.967  1.00  0.00    -0.307 OA
HETATM    6  C14         0      13.159  92.212 -13.176  1.00  0.00     0.107 C 
HETATM    7  C15         0      13.212  92.871 -11.957  1.00  0.00     0.049 C 
HETATM    8  C16         0      12.195  92.739 -11.019  1.00  0.00     0.093 C 
HETATM    9  C18         0      10.956  92.390 -11.543  1.00  0.00     0.048 C 
HETATM   10  C19         0      10.863  91.770 -12.782  1.00  0.00     0.096 C 
HETATM   11  C21         0      11.999  91.517 -13.501  1.00  0.00     0.084 C 
ENDROOT
BRANCH  10  12
HETATM   12  O20         0       9.717  91.048 -13.097  1.00  0.00    -0.359 OA
HETATM   13  H20         0       9.602  90.197 -12.693  1.00  0.00     0.218 HD
ENDBRANCH  10  12
BRANCH   4  14
HETATM   14  C5          0      15.630  90.741 -15.307  1.00  0.00     0.025 C 
HETATM   15  C6          0      16.341  89.808 -14.567  1.00  0.00     0.004 C 
HETATM   16  C7          0      17.077  88.856 -15.266  1.00  0.00     0.026 C 
HETATM   17  C8          0      17.212  88.911 -16.649  1.00  0.00     0.112 C 
HETATM   18  C10         0      17.022  90.170 -17.201  1.00  0.00     0.112 C 
HETATM   19  C12         0      16.212  91.073 -16.523  1.00  0.00     0.028 C 
BRANCH  17  20
HETATM   20  O9          0      17.314  87.751 -17.397  1.00  0.00    -0.357 OA
HETATM   21  H9          0      17.203  86.879 -17.037  1.00  0.00     0.218 HD
ENDBRANCH  17  20
BRANCH  18  22
HETATM   22  O11         0      17.329  90.320 -18.546  1.00  0.00    -0.357 OA
HETATM   23  H11         0      18.199  90.641 -18.756  1.00  0.00     0.218 HD
ENDBRANCH  18  22
ENDBRANCH   4  14
BRANCH   8  24
HETATM   24  O17         0      12.472  92.630  -9.652  1.00  0.00    -0.359 OA
HETATM   25  H17         0      11.836  92.880  -8.992  1.00  0.00     0.218 HD
ENDBRANCH   8  24
TORSDOF 5
ENDMDL
MODEL 4
REMARK VINA RESULT:      -6.0      1.428      6.803
REMARK  5 active torsions:
REMARK  status: ('A' for Active; 'I' for Inactive)
REMARK    1  A    between atoms: C4_4  and  C5_5 
REMARK    2  A    between atoms: C8_8  and  O9_9 
REMARK    3  A    between atoms: C10_11  and  O11_12 
REMARK    4  A    between atoms: C16_18  and  O17_19 
REMARK    5  A    between atoms: C19_22  and  O20_23 
ROOT
HETATM    1  O1          0      14.426  91.313 -12.456  1.00  0.00    -0.286 OA
HETATM    2  C2          0      14.242  90.757 -13.574  1.00  0.00     0.201 C 
HETATM    3  C3          0      15.284  90.365 -14.397  1.00  0.00     0.067 C 
HETATM    4  C4          0      15.055  89.849 -15.667  1.00  0.00     0.103 C 
HETATM    5  O13         0      13.807  89.714 -16.082  1.00  0.00    -0.307 OA
HETATM    6  C14         0      12.783  90.105 -15.356  1.00  0.00     0.107 C 
HETATM    7  C15         0      11.537  90.341 -15.917  1.00  0.00     0.049 C 
HETATM    8  C16         0      10.536  90.992 -15.205  1.00  0.00     0.093 C 
HETATM    9  C18         0      10.647  90.903 -13.823  1.00  0.00     0.048 C 
HETATM   10  C19         0      11.870  90.623 -13.230  1.00  0.00     0.096 C 
HETATM   11  C21         0      12.973  90.414 -14.013  1.00  0.00     0.084 C 
ENDROOT
BRANCH  10  12
HETATM   12  O20         0      12.073  90.960 -11.895  1.00  0.00    -0.359 OA
HETATM   13  H20         0      11.308  91.126 -11.357  1.00  0.00     0.218 HD
ENDBRANCH  10  12
BRANCH   4  14
HETATM   14  C5          0      16.113  90.025 -16.663  1.00  0.00     0.025 C 
HETATM   15  C6          0      16.325  91.221 -17.333  1.00  0.00     0.004 C 
HETATM   16  C7          0      17.641  91.599 -17.577  1.00  0.00     0.026 C 
HETATM   17  C8          0      18.708  90.756 -17.288  1.00  0.00     0.112 C 
HETATM   18  C10         0      18.382  89.407 -17.233  1.00  0.00     0.112 C 
HETATM   19  C12         0      17.079  89.055 -16.903  1.00  0.00     0.028 C 
BRANCH  17  20
HETATM   20  O9          0      19.928  91.268 -16.884  1.00  0.00    -0.357 OA
HETATM   21  H9          0      20.313  91.104 -16.031  1.00  0.00     0.218 HD
ENDBRANCH  17  20
BRANCH  18  22
HETATM   22  O11         0      19.436  88.509 -17.137  1.00  0.00    -0.357 OA
HETATM   23  H11         0      20.217  88.708 -17.639  1.00  0.00     0.218 HD
ENDBRANCH  18  22
ENDBRANCH   4  14
BRANCH   8  24
HETATM   24  O17         0       9.697  91.929 -15.817  1.00  0.00    -0.359 OA
HETATM   25  H17         0       9.383  92.696 -15.353  1.00  0.00     0.218 HD
ENDBRANCH   8  24
TORSDOF 5
ENDMDL
MODEL 5
REMARK VINA RESULT:      -5.6      1.848      7.118
REMARK  5 active torsions:
REMARK  status: ('A' for Active; 'I' for Inactive)
REMARK    1  A    between atoms: C4_4  and  C5_5 
REMARK    2  A    between atoms: C8_8  and  O9_9 
REMARK    3  A    between atoms: C10_11  and  O11_12 
REMARK    4  A    between atoms: C16_18  and  O17_19 
REMARK    5  A    between atoms: C19_22  and  O20_23 
ROOT
HETATM    1  O1          0      13.089  93.372 -11.335  1.00  0.00    -0.286 OA
HETATM    2  C2          0      12.991  92.509 -12.249  1.00  0.00     0.201 C 
HETATM    3  C3          0      14.087  92.010 -12.932  1.00  0.00     0.067 C 
HETATM    4  C4          0      13.942  91.136 -14.003  1.00  0.00     0.103 C 
HETATM    5  O13         0      12.725  90.763 -14.358  1.00  0.00    -0.307 OA
HETATM    6  C14         0      11.649  91.235 -13.767  1.00  0.00     0.107 C 
HETATM    7  C15         0      10.400  91.174 -14.367  1.00  0.00     0.049 C 
HETATM    8  C16         0       9.321  91.892 -13.864  1.00  0.00     0.093 C 
HETATM    9  C18         0       9.406  92.208 -12.514  1.00  0.00     0.048 C 
HETATM   10  C19         0      10.636  92.233 -11.871  1.00  0.00     0.096 C 
HETATM   11  C21         0      11.773  91.927 -12.568  1.00  0.00     0.084 C 
ENDROOT
BRANCH  10  12
HETATM   12  O20         0      10.770  92.951 -10.687  1.00  0.00    -0.359 OA
HETATM   13  H20         0       9.997  93.376 -10.333  1.00  0.00     0.218 HD
ENDBRANCH  10  12
BRANCH   4  14
HETATM   14  C5          0      15.002  91.133 -15.013  1.00  0.00     0.025 C 
HETATM   15  C6          0      15.456  92.289 -15.631  1.00  0.00     0.004 C 
HETATM   16  C7          0      16.820  92.391 -15.886  1.00  0.00     0.026 C 
HETATM   17  C8          0      17.686  91.327 -15.659  1.00  0.00     0.112 C 
HETATM   18  C10         0      17.081  90.077 -15.660  1.00  0.00     0.112 C 
HETATM   19  C12         0      15.736  89.994 -15.318  1.00  0.00     0.028 C 
BRANCH  17  20
HETATM   20  O9          0      18.992  91.548 -15.259  1.00  0.00    -0.357 OA
HETATM   21  H9          0      19.249  91.696 -14.356  1.00  0.00     0.218 HD
ENDBRANCH  17  20
BRANCH  18  22
HETATM   22  O11         0      17.920  88.972 -15.627  1.00  0.00    -0.357 OA
HETATM   23  H11         0      18.774  89.093 -15.228  1.00  0.00     0.218 HD
ENDBRANCH  18  22
ENDBRANCH   4  14
BRANCH   8  24
HETATM   24  O17         0       8.409  92.528 -14.713  1.00  0.00    -0.359 OA
HETATM   25  H17         0       7.472  92.472 -14.570  1.00  0.00     0.218 HD
ENDBRANCH   8  24
TORSDOF 5
ENDMDL
MODEL 6
REMARK VINA RESULT:      -5.4      1.734      2.114
REMARK  5 active torsions:
REMARK  status: ('A' for Active; 'I' for Inactive)
REMARK    1  A    between atoms: C4_4  and  C5_5 
REMARK    2  A    between atoms: C8_8  and  O9_9 
REMARK    3  A    between atoms: C10_11  and  O11_12 
REMARK    4  A    between atoms: C16_18  and  O17_19 
REMARK    5  A    between atoms: C19_22  and  O20_23 
ROOT
HETATM    1  O1          0      14.163  92.972 -17.948  1.00  0.00    -0.286 OA
HETATM    2  C2          0      14.351  92.020 -17.142  1.00  0.00     0.201 C 
HETATM    3  C3          0      13.320  91.405 -16.454  1.00  0.00     0.067 C 
HETATM    4  C4          0      13.564  90.428 -15.495  1.00  0.00     0.103 C 
HETATM    5  O13         0      14.814  90.070 -15.257  1.00  0.00    -0.307 OA
HETATM    6  C14         0      15.832  90.649 -15.855  1.00  0.00     0.107 C 
HETATM    7  C15         0      17.119  90.577 -15.341  1.00  0.00     0.049 C 
HETATM    8  C16         0      18.136  91.390 -15.826  1.00  0.00     0.093 C 
HETATM    9  C18         0      17.954  91.846 -17.126  1.00  0.00     0.048 C 
HETATM   10  C19         0      16.685  91.888 -17.688  1.00  0.00     0.096 C 
HETATM   11  C21         0      15.607  91.460 -16.962  1.00  0.00     0.084 C 
ENDROOT
BRANCH  10  12
HETATM   12  O20         0      16.450  92.723 -18.775  1.00  0.00    -0.359 OA
HETATM   13  H20         0      15.591  92.697 -19.179  1.00  0.00     0.218 HD
ENDBRANCH  10  12
BRANCH   4  14
HETATM   14  C5          0      12.571  90.270 -14.431  1.00  0.00     0.025 C 
HETATM   15  C6          0      12.914  90.179 -13.090  1.00  0.00     0.004 C 
HETATM   16  C7          0      12.086  90.811 -12.168  1.00  0.00     0.026 C 
HETATM   17  C8          0      10.886  91.401 -12.550  1.00  0.00     0.112 C 
HETATM   18  C10         0      10.344  90.903 -13.727  1.00  0.00     0.112 C 
HETATM   19  C12         0      11.205  90.353 -14.669  1.00  0.00     0.028 C 
BRANCH  17  20
HETATM   20  O9          0      10.414  92.529 -11.903  1.00  0.00    -0.357 OA
HETATM   21  H9          0      10.686  92.791 -11.031  1.00  0.00     0.218 HD
ENDBRANCH  17  20
BRANCH  18  22
HETATM   22  O11         0       9.061  91.319 -14.053  1.00  0.00    -0.357 OA
HETATM   23  H11         0       8.986  92.043 -14.665  1.00  0.00     0.218 HD
ENDBRANCH  18  22
ENDBRANCH   4  14
BRANCH   8  24
HETATM   24  O17         0      19.078  91.969 -14.968  1.00  0.00    -0.359 OA
HETATM   25  H17         0      18.815  92.479 -14.210  1.00  0.00     0.218 HD
ENDBRANCH   8  24
TORSDOF 5
ENDMDL
MODEL 7
REMARK VINA RESULT:      -5.4      1.967      6.978
REMARK  5 active torsions:
REMARK  status: ('A' for Active; 'I' for Inactive)
REMARK    1  A    between atoms: C4_4  and  C5_5 
REMARK    2  A    between atoms: C8_8  and  O9_9 
REMARK    3  A    between atoms: C10_11  and  O11_12 
REMARK    4  A    between atoms: C16_18  and  O17_19 
REMARK    5  A    between atoms: C19_22  and  O20_23 
ROOT
HETATM    1  O1          0      11.590  89.249 -15.814  1.00  0.00    -0.286 OA
HETATM    2  C2          0      12.388  90.178 -15.512  1.00  0.00     0.201 C 
HETATM    3  C3          0      13.493  90.498 -16.282  1.00  0.00     0.067 C 
HETATM    4  C4          0      14.413  91.457 -15.874  1.00  0.00     0.103 C 
HETATM    5  O13         0      14.208  92.087 -14.731  1.00  0.00    -0.307 OA
HETATM    6  C14         0      13.196  91.796 -13.944  1.00  0.00     0.107 C 
HETATM    7  C15         0      13.189  92.145 -12.601  1.00  0.00     0.049 C 
HETATM    8  C16         0      12.249  91.620 -11.723  1.00  0.00     0.093 C 
HETATM    9  C18         0      11.064  91.198 -12.316  1.00  0.00     0.048 C 
HETATM   10  C19         0      11.024  90.885 -13.668  1.00  0.00     0.096 C 
HETATM   11  C21         0      12.155  91.009 -14.427  1.00  0.00     0.084 C 
ENDROOT
BRANCH  10  12
HETATM   12  O20         0      10.002  90.072 -14.147  1.00  0.00    -0.359 OA
HETATM   13  H20         0       9.207  90.006 -13.632  1.00  0.00     0.218 HD
ENDBRANCH  10  12
BRANCH   4  14
HETATM   14  C5          0      15.785  91.323 -16.369  1.00  0.00     0.025 C 
HETATM   15  C6          0      16.131  91.543 -17.694  1.00  0.00     0.004 C 
HETATM   16  C7          0      17.344  92.175 -17.946  1.00  0.00     0.026 C 
HETATM   17  C8          0      18.245  92.459 -16.925  1.00  0.00     0.112 C 
HETATM   18  C10         0      18.111  91.663 -15.795  1.00  0.00     0.112 C 
HETATM   19  C12         0      16.865  91.112 -15.521  1.00  0.00     0.028 C 
BRANCH  17  20
HETATM   20  O9          0      19.049  93.584 -16.981  1.00  0.00    -0.357 OA
HETATM   21  H9          0      19.947  93.607 -16.671  1.00  0.00     0.218 HD
ENDBRANCH  17  20
BRANCH  18  22
HETATM   22  O11         0      19.098  91.774 -14.827  1.00  0.00    -0.357 OA
HETATM   23  H11         0      19.979  91.960 -15.131  1.00  0.00     0.218 HD
ENDBRANCH  18  22
ENDBRANCH   4  14
BRANCH   8  24
HETATM   24  O17         0      12.598  91.239 -10.423  1.00  0.00    -0.359 OA
HETATM   25  H17         0      12.438  90.360 -10.101  1.00  0.00     0.218 HD
ENDBRANCH   8  24
TORSDOF 5
ENDMDL
MODEL 8
REMARK VINA RESULT:      -5.2      2.790      5.368
REMARK  5 active torsions:
REMARK  status: ('A' for Active; 'I' for Inactive)
REMARK    1  A    between atoms: C4_4  and  C5_5 
REMARK    2  A    between atoms: C8_8  and  O9_9 
REMARK    3  A    between atoms: C10_11  and  O11_12 
REMARK    4  A    between atoms: C16_18  and  O17_19 
REMARK    5  A    between atoms: C19_22  and  O20_23 
ROOT
HETATM    1  O1          0      10.325  90.986 -16.296  1.00  0.00    -0.286 OA
HETATM    2  C2          0      10.772  90.955 -15.117  1.00  0.00     0.201 C 
HETATM    3  C3          0      10.011  91.310 -14.017  1.00  0.00     0.067 C 
HETATM    4  C4          0      10.557  91.366 -12.740  1.00  0.00     0.103 C 
HETATM    5  O13         0      11.830  91.050 -12.580  1.00  0.00    -0.307 OA
HETATM    6  C14         0      12.607  90.742 -13.595  1.00  0.00     0.107 C 
HETATM    7  C15         0      13.990  90.803 -13.503  1.00  0.00     0.049 C 
HETATM    8  C16         0      14.793  90.727 -14.634  1.00  0.00     0.093 C 
HETATM    9  C18         0      14.218  90.076 -15.719  1.00  0.00     0.048 C 
HETATM   10  C19         0      12.839  89.956 -15.820  1.00  0.00     0.096 C 
HETATM   11  C21         0      12.039  90.467 -14.835  1.00  0.00     0.084 C 
ENDROOT
BRANCH  10  12
HETATM   12  O20         0      12.266  89.713 -17.065  1.00  0.00    -0.359 OA
HETATM   13  H20         0      12.805  89.303 -17.730  1.00  0.00     0.218 HD
ENDBRANCH  10  12
BRANCH   4  14
HETATM   14  C5          0       9.933  92.282 -11.783  1.00  0.00     0.025 C 
HETATM   15  C6          0      10.648  93.249 -11.091  1.00  0.00     0.004 C 
HETATM   16  C7          0      10.036  94.482 -10.890  1.00  0.00     0.026 C 
HETATM   17  C8          0       8.709  94.704 -11.245  1.00  0.00     0.112 C 
HETATM   18  C10         0       7.930  93.558 -11.322  1.00  0.00     0.112 C 
HETATM   19  C12         0       8.557  92.351 -11.609  1.00  0.00     0.028 C 
BRANCH  17  20
HETATM   20  O9          0       8.292  95.948 -11.684  1.00  0.00    -0.357 OA
HETATM   21  H9          0       8.886  96.641 -11.948  1.00  0.00     0.218 HD
ENDBRANCH  17  20
BRANCH  18  22
HETATM   22  O11         0       6.563  93.737 -11.485  1.00  0.00    -0.357 OA
HETATM   23  H11         0       6.101  94.180 -10.783  1.00  0.00     0.218 HD
ENDBRANCH  18  22
ENDBRANCH   4  14
BRANCH   8  24
HETATM   24  O17         0      15.932  91.528 -14.776  1.00  0.00    -0.359 OA
HETATM   25  H17         0      16.760  91.170 -15.071  1.00  0.00     0.218 HD
ENDBRANCH   8  24
TORSDOF 5
ENDMDL
MODEL 9
REMARK VINA RESULT:      -5.0      3.280      5.725
REMARK  5 active torsions:
REMARK  status: ('A' for Active; 'I' for Inactive)
REMARK    1  A    between atoms: C4_4  and  C5_5 
REMARK    2  A    between atoms: C8_8  and  O9_9 
REMARK    3  A    between atoms: C10_11  and  O11_12 
REMARK    4  A    between atoms: C16_18  and  O17_19 
REMARK    5  A    between atoms: C19_22  and  O20_23 
ROOT
HETATM    1  O1          0      15.413  91.144 -14.454  1.00  0.00    -0.286 OA
HETATM    2  C2          0      14.331  91.778 -14.318  1.00  0.00     0.201 C 
HETATM    3  C3          0      14.229  92.935 -13.564  1.00  0.00     0.067 C 
HETATM    4  C4          0      13.005  93.558 -13.346  1.00  0.00     0.103 C 
HETATM    5  O13         0      11.921  93.035 -13.893  1.00  0.00    -0.307 OA
HETATM    6  C14         0      11.956  91.918 -14.585  1.00  0.00     0.107 C 
HETATM    7  C15         0      10.815  91.163 -14.814  1.00  0.00     0.049 C 
HETATM    8  C16         0      10.894  89.870 -15.318  1.00  0.00     0.093 C 
HETATM    9  C18         0      12.041  89.595 -16.052  1.00  0.00     0.048 C 
HETATM   10  C19         0      13.187  90.361 -15.882  1.00  0.00     0.096 C 
HETATM   11  C21         0      13.181  91.405 -14.998  1.00  0.00     0.084 C 
ENDROOT
BRANCH  10  12
HETATM   12  O20         0      14.418  89.837 -16.265  1.00  0.00    -0.359 OA
HETATM   13  H20         0      14.669  89.913 -17.178  1.00  0.00     0.218 HD
ENDBRANCH  10  12
BRANCH   4  14
HETATM   14  C5          0      12.865  94.351 -12.124  1.00  0.00     0.025 C 
HETATM   15  C6          0      11.634  94.672 -11.572  1.00  0.00     0.004 C 
HETATM   16  C7          0      11.527  94.664 -10.185  1.00  0.00     0.026 C 
HETATM   17  C8          0      12.637  94.476  -9.369  1.00  0.00     0.112 C 
HETATM   18  C10         0      13.852  94.797  -9.960  1.00  0.00     0.112 C 
HETATM   19  C12         0      13.956  94.714 -11.344  1.00  0.00     0.028 C 
BRANCH  17  20
HETATM   20  O9          0      12.523  93.822  -8.156  1.00  0.00    -0.357 OA
HETATM   21  H9          0      13.225  93.765  -7.518  1.00  0.00     0.218 HD
ENDBRANCH  17  20
BRANCH  18  22
HETATM   22  O11         0      14.968  94.809  -9.136  1.00  0.00    -0.357 OA
HETATM   23  H11         0      14.930  94.273  -8.352  1.00  0.00     0.218 HD
ENDBRANCH  18  22
ENDBRANCH   4  14
BRANCH   8  24
HETATM   24  O17         0      10.062  88.850 -14.842  1.00  0.00    -0.359 OA
HETATM   25  H17         0       9.125  88.973 -14.748  1.00  0.00     0.218 HD
ENDBRANCH   8  24
TORSDOF 5
ENDMDL
