MODEL 1
REMARK VINA RESULT:      -0.0      0.000      0.000
REMARK  5 active torsions:
REMARK  status: ('A' for Active; 'I' for Inactive)
REMARK    1  A    between atoms: C4_4  and  C5_5 
REMARK    2  A    between atoms: C8_8  and  O9_9 
REMARK    3  A    between atoms: C10_11  and  O11_12 
REMARK    4  A    between atoms: C16_18  and  O17_19 
REMARK    5  A    between atoms: C19_22  and  O20_23 
ROOT
HETATM    1  O1          0      33.787  85.526  33.800  1.00  0.00    -0.286 OA
HETATM    2  C2          0      33.281  84.372  33.751  1.00  0.00     0.201 C 
HETATM    3  C3          0      33.923  83.249  34.245  1.00  0.00     0.067 C 
HETATM    4  C4          0      33.389  81.975  34.086  1.00  0.00     0.103 C 
HETATM    5  O13         0      32.230  81.846  33.464  1.00  0.00    -0.307 OA
HETATM    6  C14         0      31.597  82.875  32.943  1.00  0.00     0.107 C 
HETATM    7  C15         0      30.622  82.716  31.970  1.00  0.00     0.049 C 
HETATM    8  C16         0      30.142  83.801  31.245  1.00  0.00     0.093 C 
HETATM    9  C18         0      30.269  85.031  31.878  1.00  0.00     0.048 C 
HETATM   10  C19         0      31.203  85.212  32.889  1.00  0.00     0.096 C 
HETATM   11  C21         0      31.994  84.165  33.278  1.00  0.00     0.084 C 
ENDROOT
BRANCH  10  12
HETATM   12  O20         0      31.625  86.500  33.204  1.00  0.00    -0.359 OA
HETATM   13  H20         0      32.251  86.603  33.910  1.00  0.00     0.218 HD
ENDBRANCH  10  12
BRANCH   4  14
HETATM   14  C5          0      34.329  80.853  34.066  1.00  0.00     0.025 C 
HETATM   15  C6          0      34.050  79.650  33.433  1.00  0.00     0.004 C 
HETATM   16  C7          0      35.092  79.017  32.764  1.00  0.00     0.026 C 
HETATM   17  C8          0      36.398  79.492  32.832  1.00  0.00     0.112 C 
HETATM   18  C10         0      36.674  80.270  33.948  1.00  0.00     0.112 C 
HETATM   19  C12         0      35.627  80.960  34.547  1.00  0.00     0.028 C 
BRANCH  17  20
HETATM   20  O9          0      37.258  79.358  31.757  1.00  0.00    -0.357 OA
HETATM   21  H9          0      37.726  78.557  31.551  1.00  0.00     0.218 HD
ENDBRANCH  17  20
BRANCH  18  22
HETATM   22  O11         0      38.002  80.611  34.164  1.00  0.00    -0.357 OA
HETATM   23  H11         0      38.658  80.078  33.730  1.00  0.00     0.218 HD
ENDBRANCH  18  22
ENDBRANCH   4  14
BRANCH   8  24
HETATM   24  O17         0      29.875  83.702  29.875  1.00  0.00    -0.359 OA
HETATM   25  H17         0      29.409  82.959  29.510  1.00  0.00     0.218 HD
ENDBRANCH   8  24
TORSDOF 5
ENDMDL
MODEL 2
REMARK VINA RESULT:      -0.0      4.244      6.435
REMARK  5 active torsions:
REMARK  status: ('A' for Active; 'I' for Inactive)
REMARK    1  A    between atoms: C4_4  and  C5_5 
REMARK    2  A    between atoms: C8_8  and  O9_9 
REMARK    3  A    between atoms: C10_11  and  O11_12 
REMARK    4  A    between atoms: C16_18  and  O17_19 
REMARK    5  A    between atoms: C19_22  and  O20_23 
ROOT
HETATM    1  O1          0      34.674  77.902  34.846  1.00  0.00    -0.286 OA
HETATM    2  C2          0      34.425  77.458  33.692  1.00  0.00     0.201 C 
HETATM    3  C3          0      34.775  76.180  33.288  1.00  0.00     0.067 C 
HETATM    4  C4          0      34.582  75.751  31.980  1.00  0.00     0.103 C 
HETATM    5  O13         0      34.031  76.584  31.114  1.00  0.00    -0.307 OA
HETATM    6  C14         0      33.714  77.819  31.435  1.00  0.00     0.107 C 
HETATM    7  C15         0      33.520  78.798  30.472  1.00  0.00     0.049 C 
HETATM    8  C16         0      33.440  80.142  30.815  1.00  0.00     0.093 C 
HETATM    9  C18         0      33.034  80.391  32.121  1.00  0.00     0.048 C 
HETATM   10  C19         0      33.170  79.417  33.100  1.00  0.00     0.096 C 
HETATM   11  C21         0      33.693  78.195  32.774  1.00  0.00     0.084 C 
ENDROOT
BRANCH  10  12
HETATM   12  O20         0      33.181  79.795  34.439  1.00  0.00    -0.359 OA
HETATM   13  H20         0      32.710  79.251  35.059  1.00  0.00     0.218 HD
ENDBRANCH  10  12
BRANCH   4  14
HETATM   14  C5          0      35.472  74.702  31.480  1.00  0.00     0.025 C 
HETATM   15  C6          0      35.899  74.643  30.162  1.00  0.00     0.004 C 
HETATM   16  C7          0      37.211  74.245  29.927  1.00  0.00     0.026 C 
HETATM   17  C8          0      38.031  73.791  30.954  1.00  0.00     0.112 C 
HETATM   18  C10         0      37.354  73.297  32.061  1.00  0.00     0.112 C 
HETATM   19  C12         0      36.076  73.776  32.321  1.00  0.00     0.028 C 
BRANCH  17  20
HETATM   20  O9          0      39.394  74.027  30.929  1.00  0.00    -0.357 OA
HETATM   21  H9          0      40.021  73.558  31.468  1.00  0.00     0.218 HD
ENDBRANCH  17  20
BRANCH  18  22
HETATM   22  O11         0      38.116  72.661  33.031  1.00  0.00    -0.357 OA
HETATM   23  H11         0      37.715  71.924  33.478  1.00  0.00     0.218 HD
ENDBRANCH  18  22
ENDBRANCH   4  14
BRANCH   8  24
HETATM   24  O17         0      34.040  81.133  30.030  1.00  0.00    -0.359 OA
HETATM   25  H17         0      34.984  81.229  29.983  1.00  0.00     0.218 HD
ENDBRANCH   8  24
TORSDOF 5
ENDMDL
MODEL 3
REMARK VINA RESULT:      -0.0      6.532      8.664
REMARK  5 active torsions:
REMARK  status: ('A' for Active; 'I' for Inactive)
REMARK    1  A    between atoms: C4_4  and  C5_5 
REMARK    2  A    between atoms: C8_8  and  O9_9 
REMARK    3  A    between atoms: C10_11  and  O11_12 
REMARK    4  A    between atoms: C16_18  and  O17_19 
REMARK    5  A    between atoms: C19_22  and  O20_23 
ROOT
HETATM    1  O1          0      36.873  76.573  35.091  1.00  0.00    -0.286 OA
HETATM    2  C2          0      36.031  76.628  34.153  1.00  0.00     0.201 C 
HETATM    3  C3          0      34.678  76.830  34.370  1.00  0.00     0.067 C 
HETATM    4  C4          0      33.758  76.784  33.329  1.00  0.00     0.103 C 
HETATM    5  O13         0      34.198  76.560  32.103  1.00  0.00    -0.307 OA
HETATM    6  C14         0      35.466  76.325  31.847  1.00  0.00     0.107 C 
HETATM    7  C15         0      35.873  75.708  30.673  1.00  0.00     0.049 C 
HETATM    8  C16         0      37.170  75.233  30.518  1.00  0.00     0.093 C 
HETATM    9  C18         0      38.122  75.856  31.317  1.00  0.00     0.048 C 
HETATM   10  C19         0      37.744  76.523  32.475  1.00  0.00     0.096 C 
HETATM   11  C21         0      36.422  76.582  32.824  1.00  0.00     0.084 C 
ENDROOT
BRANCH  10  12
HETATM   12  O20         0      38.692  76.753  33.467  1.00  0.00    -0.359 OA
HETATM   13  H20         0      38.784  77.638  33.798  1.00  0.00     0.218 HD
ENDBRANCH  10  12
BRANCH   4  14
HETATM   14  C5          0      32.385  76.405  33.665  1.00  0.00     0.025 C 
HETATM   15  C6          0      31.585  75.650  32.820  1.00  0.00     0.004 C 
HETATM   16  C7          0      30.748  74.702  33.400  1.00  0.00     0.026 C 
HETATM   17  C8          0      30.610  74.598  34.780  1.00  0.00     0.112 C 
HETATM   18  C10         0      30.927  75.753  35.483  1.00  0.00     0.112 C 
HETATM   19  C12         0      31.832  76.643  34.916  1.00  0.00     0.028 C 
BRANCH  17  20
HETATM   20  O9          0      30.382  73.372  35.380  1.00  0.00    -0.357 OA
HETATM   21  H9          0      30.771  72.558  35.081  1.00  0.00     0.218 HD
ENDBRANCH  17  20
BRANCH  18  22
HETATM   22  O11         0      30.628  75.767  36.838  1.00  0.00    -0.357 OA
HETATM   23  H11         0      29.885  76.293  37.109  1.00  0.00     0.218 HD
ENDBRANCH  18  22
ENDBRANCH   4  14
BRANCH   8  24
HETATM   24  O17         0      37.430  74.018  29.875  1.00  0.00    -0.359 OA
HETATM   25  H17         0      37.947  73.975  29.080  1.00  0.00     0.218 HD
ENDBRANCH   8  24
TORSDOF 5
ENDMDL
MODEL 4
REMARK VINA RESULT:      -0.0      8.953     11.141
REMARK  5 active torsions:
REMARK  status: ('A' for Active; 'I' for Inactive)
REMARK    1  A    between atoms: C4_4  and  C5_5 
REMARK    2  A    between atoms: C8_8  and  O9_9 
REMARK    3  A    between atoms: C10_11  and  O11_12 
REMARK    4  A    between atoms: C16_18  and  O17_19 
REMARK    5  A    between atoms: C19_22  and  O20_23 
ROOT
HETATM    1  O1          0      41.870  73.427  35.794  1.00  0.00    -0.286 OA
HETATM    2  C2          0      40.691  73.874  35.810  1.00  0.00     0.201 C 
HETATM    3  C3          0      39.656  73.288  35.101  1.00  0.00     0.067 C 
HETATM    4  C4          0      38.390  73.860  35.053  1.00  0.00     0.103 C 
HETATM    5  O13         0      38.173  74.980  35.721  1.00  0.00    -0.307 OA
HETATM    6  C14         0      39.130  75.597  36.380  1.00  0.00     0.107 C 
HETATM    7  C15         0      39.028  76.934  36.735  1.00  0.00     0.049 C 
HETATM    8  C16         0      40.129  77.644  37.197  1.00  0.00     0.093 C 
HETATM    9  C18         0      41.128  76.869  37.773  1.00  0.00     0.048 C 
HETATM   10  C19         0      41.231  75.516  37.476  1.00  0.00     0.096 C 
HETATM   11  C21         0      40.331  74.939  36.622  1.00  0.00     0.084 C 
ENDROOT
BRANCH  10  12
HETATM   12  O20         0      42.441  74.863  37.688  1.00  0.00    -0.359 OA
HETATM   13  H20         0      43.090  75.294  38.232  1.00  0.00     0.218 HD
ENDBRANCH  10  12
BRANCH   4  14
HETATM   14  C5          0      37.569  73.572  33.876  1.00  0.00     0.025 C 
HETATM   15  C6          0      36.703  74.502  33.317  1.00  0.00     0.004 C 
HETATM   16  C7          0      36.605  74.538  31.930  1.00  0.00     0.026 C 
HETATM   17  C8          0      37.240  73.595  31.128  1.00  0.00     0.112 C 
HETATM   18  C10         0      37.527  72.394  31.763  1.00  0.00     0.112 C 
HETATM   19  C12         0      37.705  72.401  33.141  1.00  0.00     0.028 C 
BRANCH  17  20
HETATM   20  O9          0      37.721  73.938  29.877  1.00  0.00    -0.357 OA
HETATM   21  H9          0      37.165  74.186  29.148  1.00  0.00     0.218 HD
ENDBRANCH  17  20
BRANCH  18  22
HETATM   22  O11         0      37.987  71.356  30.965  1.00  0.00    -0.357 OA
HETATM   23  H11         0      38.906  71.372  30.726  1.00  0.00     0.218 HD
ENDBRANCH  18  22
ENDBRANCH   4  14
BRANCH   8  24
HETATM   24  O17         0      40.358  78.969  36.809  1.00  0.00    -0.359 OA
HETATM   25  H17         0      41.016  79.507  37.233  1.00  0.00     0.218 HD
ENDBRANCH   8  24
TORSDOF 5
ENDMDL
MODEL 5
REMARK VINA RESULT:      -0.0      6.996      8.950
REMARK  5 active torsions:
REMARK  status: ('A' for Active; 'I' for Inactive)
REMARK    1  A    between atoms: C4_4  and  C5_5 
REMARK    2  A    between atoms: C8_8  and  O9_9 
REMARK    3  A    between atoms: C10_11  and  O11_12 
REMARK    4  A    between atoms: C16_18  and  O17_19 
REMARK    5  A    between atoms: C19_22  and  O20_23 
ROOT
HETATM    1  O1          0      37.184  78.544  35.610  1.00  0.00    -0.286 OA
HETATM    2  C2          0      38.144  78.872  34.859  1.00  0.00     0.201 C 
HETATM    3  C3          0      38.164  78.595  33.503  1.00  0.00     0.067 C 
HETATM    4  C4          0      39.277  78.876  32.718  1.00  0.00     0.103 C 
HETATM    5  O13         0      40.329  79.439  33.287  1.00  0.00    -0.307 OA
HETATM    6  C14         0      40.376  79.688  34.577  1.00  0.00     0.107 C 
HETATM    7  C15         0      41.578  79.894  35.239  1.00  0.00     0.049 C 
HETATM    8  C16         0      41.646  79.903  36.627  1.00  0.00     0.093 C 
HETATM    9  C18         0      40.458  80.228  37.270  1.00  0.00     0.048 C 
HETATM   10  C19         0      39.240  80.078  36.622  1.00  0.00     0.096 C 
HETATM   11  C21         0      39.210  79.622  35.332  1.00  0.00     0.084 C 
ENDROOT
BRANCH  10  12
HETATM   12  O20         0      38.075  79.980  37.376  1.00  0.00    -0.359 OA
HETATM   13  H20         0      37.249  79.908  36.913  1.00  0.00     0.218 HD
ENDBRANCH  10  12
BRANCH   4  14
HETATM   14  C5          0      39.478  78.056  31.522  1.00  0.00     0.025 C 
HETATM   15  C6          0      40.735  77.694  31.060  1.00  0.00     0.004 C 
HETATM   16  C7          0      40.886  76.413  30.540  1.00  0.00     0.026 C 
HETATM   17  C8          0      39.798  75.566  30.359  1.00  0.00     0.112 C 
HETATM   18  C10         0      38.574  76.211  30.244  1.00  0.00     0.112 C 
HETATM   19  C12         0      38.424  77.454  30.847  1.00  0.00     0.028 C 
BRANCH  17  20
HETATM   20  O9          0      39.935  74.197  30.501  1.00  0.00    -0.357 OA
HETATM   21  H9          0      39.433  73.561  30.004  1.00  0.00     0.218 HD
ENDBRANCH  17  20
BRANCH  18  22
HETATM   22  O11         0      37.486  75.433  29.875  1.00  0.00    -0.357 OA
HETATM   23  H11         0      37.555  74.497  30.026  1.00  0.00     0.218 HD
ENDBRANCH  18  22
ENDBRANCH   4  14
BRANCH   8  24
HETATM   24  O17         0      42.713  79.307  37.308  1.00  0.00    -0.359 OA
HETATM   25  H17         0      42.959  78.402  37.157  1.00  0.00     0.218 HD
ENDBRANCH   8  24
TORSDOF 5
ENDMDL
MODEL 6
REMARK VINA RESULT:      -0.0      4.545      6.118
REMARK  5 active torsions:
REMARK  status: ('A' for Active; 'I' for Inactive)
REMARK    1  A    between atoms: C4_4  and  C5_5 
REMARK    2  A    between atoms: C8_8  and  O9_9 
REMARK    3  A    between atoms: C10_11  and  O11_12 
REMARK    4  A    between atoms: C16_18  and  O17_19 
REMARK    5  A    between atoms: C19_22  and  O20_23 
ROOT
HETATM    1  O1          0      30.365  81.193  34.536  1.00  0.00    -0.286 OA
HETATM    2  C2          0      31.280  80.610  35.178  1.00  0.00     0.201 C 
HETATM    3  C3          0      32.041  79.585  34.640  1.00  0.00     0.067 C 
HETATM    4  C4          0      32.973  78.891  35.403  1.00  0.00     0.103 C 
HETATM    5  O13         0      33.144  79.238  36.666  1.00  0.00    -0.307 OA
HETATM    6  C14         0      32.422  80.178  37.237  1.00  0.00     0.107 C 
HETATM    7  C15         0      32.307  80.274  38.616  1.00  0.00     0.049 C 
HETATM    8  C16         0      31.353  81.096  39.205  1.00  0.00     0.093 C 
HETATM    9  C18         0      30.927  82.159  38.417  1.00  0.00     0.048 C 
HETATM   10  C19         0      31.071  82.115  37.037  1.00  0.00     0.096 C 
HETATM   11  C21         0      31.651  81.025  36.448  1.00  0.00     0.084 C 
ENDROOT
BRANCH  10  12
HETATM   12  O20         0      30.277  82.939  36.244  1.00  0.00    -0.359 OA
HETATM   13  H20         0      30.552  83.840  36.125  1.00  0.00     0.218 HD
ENDBRANCH  10  12
BRANCH   4  14
HETATM   14  C5          0      33.274  77.515  35.003  1.00  0.00     0.025 C 
HETATM   15  C6          0      33.718  76.552  35.897  1.00  0.00     0.004 C 
HETATM   16  C7          0      33.240  75.255  35.738  1.00  0.00     0.026 C 
HETATM   17  C8          0      32.454  74.897  34.648  1.00  0.00     0.112 C 
HETATM   18  C10         0      32.598  75.715  33.535  1.00  0.00     0.112 C 
HETATM   19  C12         0      32.995  77.032  33.731  1.00  0.00     0.028 C 
BRANCH  17  20
HETATM   20  O9          0      31.469  73.933  34.770  1.00  0.00    -0.357 OA
HETATM   21  H9          0      31.282  73.281  34.105  1.00  0.00     0.218 HD
ENDBRANCH  17  20
BRANCH  18  22
HETATM   22  O11         0      31.985  75.295  32.363  1.00  0.00    -0.357 OA
HETATM   23  H11         0      31.551  74.450  32.383  1.00  0.00     0.218 HD
ENDBRANCH  18  22
ENDBRANCH   4  14
BRANCH   8  24
HETATM   24  O17         0      30.644  80.692  40.341  1.00  0.00    -0.359 OA
HETATM   25  H17         0      29.811  80.240  40.275  1.00  0.00     0.218 HD
ENDBRANCH   8  24
TORSDOF 5
ENDMDL
MODEL 7
REMARK VINA RESULT:      -0.0      6.110      7.942
REMARK  5 active torsions:
REMARK  status: ('A' for Active; 'I' for Inactive)
REMARK    1  A    between atoms: C4_4  and  C5_5 
REMARK    2  A    between atoms: C8_8  and  O9_9 
REMARK    3  A    between atoms: C10_11  and  O11_12 
REMARK    4  A    between atoms: C16_18  and  O17_19 
REMARK    5  A    between atoms: C19_22  and  O20_23 
ROOT
HETATM    1  O1          0      36.829  83.273  35.470  1.00  0.00    -0.286 OA
HETATM    2  C2          0      36.811  83.619  36.683  1.00  0.00     0.201 C 
HETATM    3  C3          0      37.854  84.305  37.283  1.00  0.00     0.067 C 
HETATM    4  C4          0      37.854  84.584  38.645  1.00  0.00     0.103 C 
HETATM    5  O13         0      36.821  84.198  39.372  1.00  0.00    -0.307 OA
HETATM    6  C14         0      35.823  83.511  38.860  1.00  0.00     0.107 C 
HETATM    7  C15         0      34.960  82.772  39.656  1.00  0.00     0.049 C 
HETATM    8  C16         0      34.076  81.854  39.103  1.00  0.00     0.093 C 
HETATM    9  C18         0      33.730  82.096  37.779  1.00  0.00     0.048 C 
HETATM   10  C19         0      34.548  82.871  36.967  1.00  0.00     0.096 C 
HETATM   11  C21         0      35.694  83.414  37.479  1.00  0.00     0.084 C 
ENDROOT
BRANCH  10  12
HETATM   12  O20         0      34.443  82.752  35.584  1.00  0.00    -0.359 OA
HETATM   13  H20         0      34.711  81.933  35.186  1.00  0.00     0.218 HD
ENDBRANCH  10  12
BRANCH   4  14
HETATM   14  C5          0      39.156  84.738  39.296  1.00  0.00     0.025 C 
HETATM   15  C6          0      39.358  84.481  40.645  1.00  0.00     0.004 C 
HETATM   16  C7          0      40.554  83.874  41.013  1.00  0.00     0.026 C 
HETATM   17  C8          0      41.573  83.651  40.093  1.00  0.00     0.112 C 
HETATM   18  C10         0      41.541  84.482  38.981  1.00  0.00     0.112 C 
HETATM   19  C12         0      40.318  85.008  38.584  1.00  0.00     0.028 C 
BRANCH  17  20
HETATM   20  O9          0      42.400  82.548  40.205  1.00  0.00    -0.357 OA
HETATM   21  H9          0      42.413  81.832  39.580  1.00  0.00     0.218 HD
ENDBRANCH  17  20
BRANCH  18  22
HETATM   22  O11         0      42.635  84.432  38.129  1.00  0.00    -0.357 OA
HETATM   23  H11         0      42.971  85.263  37.811  1.00  0.00     0.218 HD
ENDBRANCH  18  22
ENDBRANCH   4  14
BRANCH   8  24
HETATM   24  O17         0      33.830  80.619  39.713  1.00  0.00    -0.359 OA
HETATM   25  H17         0      33.714  80.541  40.652  1.00  0.00     0.218 HD
ENDBRANCH   8  24
TORSDOF 5
ENDMDL
MODEL 8
REMARK VINA RESULT:      -0.0      6.362      8.278
REMARK  5 active torsions:
REMARK  status: ('A' for Active; 'I' for Inactive)
REMARK    1  A    between atoms: C4_4  and  C5_5 
REMARK    2  A    between atoms: C8_8  and  O9_9 
REMARK    3  A    between atoms: C10_11  and  O11_12 
REMARK    4  A    between atoms: C16_18  and  O17_19 
REMARK    5  A    between atoms: C19_22  and  O20_23 
ROOT
HETATM    1  O1          0      36.829  83.273  35.470  1.00  0.00    -0.286 OA
HETATM    2  C2          0      36.941  84.341  36.132  1.00  0.00     0.201 C 
HETATM    3  C3          0      37.984  85.232  35.948  1.00  0.00     0.067 C 
HETATM    4  C4          0      38.141  86.349  36.761  1.00  0.00     0.103 C 
HETATM    5  O13         0      37.255  86.567  37.717  1.00  0.00    -0.307 OA
HETATM    6  C14         0      36.267  85.733  37.959  1.00  0.00     0.107 C 
HETATM    7  C15         0      35.592  85.730  39.171  1.00  0.00     0.049 C 
HETATM    8  C16         0      34.733  84.694  39.517  1.00  0.00     0.093 C 
HETATM    9  C18         0      34.192  83.997  38.443  1.00  0.00     0.048 C 
HETATM   10  C19         0      34.817  84.016  37.203  1.00  0.00     0.096 C 
HETATM   11  C21         0      35.965  84.741  37.032  1.00  0.00     0.084 C 
ENDROOT
BRANCH  10  12
HETATM   12  O20         0      34.540  83.007  36.286  1.00  0.00    -0.359 OA
HETATM   13  H20         0      34.829  82.126  36.493  1.00  0.00     0.218 HD
ENDBRANCH  10  12
BRANCH   4  14
HETATM   14  C5          0      39.497  86.874  36.925  1.00  0.00     0.025 C 
HETATM   15  C6          0      39.901  87.579  38.049  1.00  0.00     0.004 C 
HETATM   16  C7          0      41.188  87.350  38.526  1.00  0.00     0.026 C 
HETATM   17  C8          0      42.091  86.551  37.834  1.00  0.00     0.112 C 
HETATM   18  C10         0      41.833  86.427  36.475  1.00  0.00     0.112 C 
HETATM   19  C12         0      40.523  86.577  36.036  1.00  0.00     0.028 C 
BRANCH  17  20
HETATM   20  O9          0      43.026  85.788  38.510  1.00  0.00    -0.357 OA
HETATM   21  H9          0      43.023  84.838  38.523  1.00  0.00     0.218 HD
ENDBRANCH  17  20
BRANCH  18  22
HETATM   22  O11         0      42.802  85.800  35.706  1.00  0.00    -0.357 OA
HETATM   23  H11         0      43.012  86.200  34.869  1.00  0.00     0.218 HD
ENDBRANCH  18  22
ENDBRANCH   4  14
BRANCH   8  24
HETATM   24  O17         0      34.689  84.187  40.820  1.00  0.00    -0.359 OA
HETATM   25  H17         0      34.708  84.758  41.579  1.00  0.00     0.218 HD
ENDBRANCH   8  24
TORSDOF 5
ENDMDL
MODEL 9
REMARK VINA RESULT:      -0.0      7.739     10.625
REMARK  5 active torsions:
REMARK  status: ('A' for Active; 'I' for Inactive)
REMARK    1  A    between atoms: C4_4  and  C5_5 
REMARK    2  A    between atoms: C8_8  and  O9_9 
REMARK    3  A    between atoms: C10_11  and  O11_12 
REMARK    4  A    between atoms: C16_18  and  O17_19 
REMARK    5  A    between atoms: C19_22  and  O20_23 
ROOT
HETATM    1  O1          0      40.709  86.802  39.108  1.00  0.00    -0.286 OA
HETATM    2  C2          0      41.113  85.611  39.214  1.00  0.00     0.201 C 
HETATM    3  C3          0      41.300  84.782  38.121  1.00  0.00     0.067 C 
HETATM    4  C4          0      41.647  83.444  38.273  1.00  0.00     0.103 C 
HETATM    5  O13         0      41.821  82.968  39.493  1.00  0.00    -0.307 OA
HETATM    6  C14         0      41.621  83.702  40.565  1.00  0.00     0.107 C 
HETATM    7  C15         0      41.408  83.132  41.812  1.00  0.00     0.049 C 
HETATM    8  C16         0      40.948  83.889  42.883  1.00  0.00     0.093 C 
HETATM    9  C18         0      41.222  85.249  42.801  1.00  0.00     0.048 C 
HETATM   10  C19         0      41.485  85.843  41.574  1.00  0.00     0.096 C 
HETATM   11  C21         0      41.491  85.081  40.438  1.00  0.00     0.084 C 
ENDROOT
BRANCH  10  12
HETATM   12  O20         0      41.326  87.219  41.436  1.00  0.00    -0.359 OA
HETATM   13  H20         0      41.778  87.650  40.722  1.00  0.00     0.218 HD
ENDBRANCH  10  12
BRANCH   4  14
HETATM   14  C5          0      41.247  82.524  37.207  1.00  0.00     0.025 C 
HETATM   15  C6          0      41.026  81.171  37.425  1.00  0.00     0.004 C 
HETATM   16  C7          0      39.974  80.571  36.740  1.00  0.00     0.026 C 
HETATM   17  C8          0      39.251  81.256  35.769  1.00  0.00     0.112 C 
HETATM   18  C10         0      39.924  82.325  35.191  1.00  0.00     0.112 C 
HETATM   19  C12         0      40.913  82.961  35.932  1.00  0.00     0.028 C 
BRANCH  17  20
HETATM   20  O9          0      37.905  81.001  35.576  1.00  0.00    -0.357 OA
HETATM   21  H9          0      37.299  81.624  35.193  1.00  0.00     0.218 HD
ENDBRANCH  17  20
BRANCH  18  22
HETATM   22  O11         0      39.326  82.923  34.091  1.00  0.00    -0.357 OA
HETATM   23  H11         0      39.803  83.631  33.674  1.00  0.00     0.218 HD
ENDBRANCH  18  22
ENDBRANCH   4  14
BRANCH   8  24
HETATM   24  O17         0      40.003  83.382  43.782  1.00  0.00    -0.359 OA
HETATM   25  H17         0      40.101  83.487  44.721  1.00  0.00     0.218 HD
ENDBRANCH   8  24
TORSDOF 5
ENDMDL
