MODEL 1
REMARK VINA RESULT:      -6.1      0.000      0.000
REMARK  5 active torsions:
REMARK  status: ('A' for Active; 'I' for Inactive)
REMARK    1  A    between atoms: C4_4  and  C5_5 
REMARK    2  A    between atoms: C8_8  and  O9_9 
REMARK    3  A    between atoms: C10_11  and  O11_12 
REMARK    4  A    between atoms: C16_18  and  O17_19 
REMARK    5  A    between atoms: C19_22  and  O20_23 
ROOT
HETATM    1  O1          0      40.190  96.140 -11.482  1.00  0.00    -0.286 OA
HETATM    2  C2          0      41.122  96.623 -12.181  1.00  0.00     0.201 C 
HETATM    3  C3          0      42.426  96.162 -12.116  1.00  0.00     0.067 C 
HETATM    4  C4          0      43.454  96.780 -12.819  1.00  0.00     0.103 C 
HETATM    5  O13         0      43.165  97.820 -13.582  1.00  0.00    -0.307 OA
HETATM    6  C14         0      41.951  98.321 -13.650  1.00  0.00     0.107 C 
HETATM    7  C15         0      41.718  99.611 -14.106  1.00  0.00     0.049 C 
HETATM    8  C16         0      40.481 100.222 -13.939  1.00  0.00     0.093 C 
HETATM    9  C18         0      39.408  99.350 -13.805  1.00  0.00     0.048 C 
HETATM   10  C19         0      39.611  98.039 -13.396  1.00  0.00     0.096 C 
HETATM   11  C21         0      40.880  97.597 -13.137  1.00  0.00     0.084 C 
ENDROOT
BRANCH  10  12
HETATM   12  O20         0      38.548  97.323 -12.854  1.00  0.00    -0.359 OA
HETATM   13  H20         0      38.642  96.989 -11.970  1.00  0.00     0.218 HD
ENDBRANCH  10  12
BRANCH   4  14
HETATM   14  C5          0      44.806  96.660 -12.272  1.00  0.00     0.025 C 
HETATM   15  C6          0      45.134  95.763 -11.266  1.00  0.00     0.004 C 
HETATM   16  C7          0      46.370  95.129 -11.346  1.00  0.00     0.026 C 
HETATM   17  C8          0      47.305  95.474 -12.316  1.00  0.00     0.112 C 
HETATM   18  C10         0      47.157  96.753 -12.835  1.00  0.00     0.112 C 
HETATM   19  C12         0      45.893  97.329 -12.820  1.00  0.00     0.028 C 
BRANCH  17  20
HETATM   20  O9          0      48.160  94.523 -12.845  1.00  0.00    -0.357 OA
HETATM   21  H9          0      48.577  94.603 -13.696  1.00  0.00     0.218 HD
ENDBRANCH  17  20
BRANCH  18  22
HETATM   22  O11         0      48.170  97.216 -13.663  1.00  0.00    -0.357 OA
HETATM   23  H11         0      48.347  96.711 -14.449  1.00  0.00     0.218 HD
ENDBRANCH  18  22
ENDBRANCH   4  14
BRANCH   8  24
HETATM   24  O17         0      40.378 101.575 -13.594  1.00  0.00    -0.359 OA
HETATM   25  H17         0      39.736 101.881 -12.964  1.00  0.00     0.218 HD
ENDBRANCH   8  24
TORSDOF 5
ENDMDL
MODEL 2
REMARK VINA RESULT:      -6.1      2.344      6.373
REMARK  5 active torsions:
REMARK  status: ('A' for Active; 'I' for Inactive)
REMARK    1  A    between atoms: C4_4  and  C5_5 
REMARK    2  A    between atoms: C8_8  and  O9_9 
REMARK    3  A    between atoms: C10_11  and  O11_12 
REMARK    4  A    between atoms: C16_18  and  O17_19 
REMARK    5  A    between atoms: C19_22  and  O20_23 
ROOT
HETATM    1  O1          0      46.648  95.211 -11.238  1.00  0.00    -0.286 OA
HETATM    2  C2          0      45.769  95.910 -11.813  1.00  0.00     0.201 C 
HETATM    3  C3          0      44.427  95.853 -11.477  1.00  0.00     0.067 C 
HETATM    4  C4          0      43.466  96.557 -12.194  1.00  0.00     0.103 C 
HETATM    5  O13         0      43.856  97.311 -13.207  1.00  0.00    -0.307 OA
HETATM    6  C14         0      45.112  97.371 -13.591  1.00  0.00     0.107 C 
HETATM    7  C15         0      45.469  97.818 -14.854  1.00  0.00     0.049 C 
HETATM    8  C16         0      46.758  97.642 -15.345  1.00  0.00     0.093 C 
HETATM    9  C18         0      47.742  97.510 -14.373  1.00  0.00     0.048 C 
HETATM   10  C19         0      47.413  97.110 -13.085  1.00  0.00     0.096 C 
HETATM   11  C21         0      46.107  96.859 -12.765  1.00  0.00     0.084 C 
ENDROOT
BRANCH  10  12
HETATM   12  O20         0      48.401  96.568 -12.268  1.00  0.00    -0.359 OA
HETATM   13  H20         0      48.154  95.868 -11.675  1.00  0.00     0.218 HD
ENDBRANCH  10  12
BRANCH   4  14
HETATM   14  C5          0      42.106  96.016 -12.201  1.00  0.00     0.025 C 
HETATM   15  C6          0      41.037  96.660 -11.596  1.00  0.00     0.004 C 
HETATM   16  C7          0      39.806  96.614 -12.242  1.00  0.00     0.026 C 
HETATM   17  C8          0      39.610  95.842 -13.383  1.00  0.00     0.112 C 
HETATM   18  C10         0      40.499  94.786 -13.528  1.00  0.00     0.112 C 
HETATM   19  C12         0      41.754  94.895 -12.942  1.00  0.00     0.028 C 
BRANCH  17  20
HETATM   20  O9          0      38.732  96.250 -14.372  1.00  0.00    -0.357 OA
HETATM   21  H9          0      37.882  95.853 -14.520  1.00  0.00     0.218 HD
ENDBRANCH  17  20
BRANCH  18  22
HETATM   22  O11         0      40.233  93.876 -14.541  1.00  0.00    -0.357 OA
HETATM   23  H11         0      40.283  92.954 -14.315  1.00  0.00     0.218 HD
ENDBRANCH  18  22
ENDBRANCH   4  14
BRANCH   8  24
HETATM   24  O17         0      46.988  97.289 -16.679  1.00  0.00    -0.359 OA
HETATM   25  H17         0      47.542  97.813 -17.245  1.00  0.00     0.218 HD
ENDBRANCH   8  24
TORSDOF 5
ENDMDL
MODEL 3
REMARK VINA RESULT:      -6.1      4.429      6.737
REMARK  5 active torsions:
REMARK  status: ('A' for Active; 'I' for Inactive)
REMARK    1  A    between atoms: C4_4  and  C5_5 
REMARK    2  A    between atoms: C8_8  and  O9_9 
REMARK    3  A    between atoms: C10_11  and  O11_12 
REMARK    4  A    between atoms: C16_18  and  O17_19 
REMARK    5  A    between atoms: C19_22  and  O20_23 
ROOT
HETATM    1  O1          0      35.823  93.251 -15.203  1.00  0.00    -0.286 OA
HETATM    2  C2          0      36.112  94.367 -14.691  1.00  0.00     0.201 C 
HETATM    3  C3          0      37.414  94.755 -14.424  1.00  0.00     0.067 C 
HETATM    4  C4          0      37.698  95.946 -13.766  1.00  0.00     0.103 C 
HETATM    5  O13         0      36.696  96.729 -13.407  1.00  0.00    -0.307 OA
HETATM    6  C14         0      35.440  96.390 -13.603  1.00  0.00     0.107 C 
HETATM    7  C15         0      34.404  96.983 -12.896  1.00  0.00     0.049 C 
HETATM    8  C16         0      33.120  96.452 -12.916  1.00  0.00     0.093 C 
HETATM    9  C18         0      32.820  95.686 -14.036  1.00  0.00     0.048 C 
HETATM   10  C19         0      33.834  95.116 -14.793  1.00  0.00     0.096 C 
HETATM   11  C21         0      35.140  95.325 -14.445  1.00  0.00     0.084 C 
ENDROOT
BRANCH  10  12
HETATM   12  O20         0      33.542  94.030 -15.613  1.00  0.00    -0.359 OA
HETATM   13  H20         0      32.802  93.482 -15.380  1.00  0.00     0.218 HD
ENDBRANCH  10  12
BRANCH   4  14
HETATM   14  C5          0      38.948  96.009 -13.005  1.00  0.00     0.025 C 
HETATM   15  C6          0      39.902  95.002 -13.041  1.00  0.00     0.004 C 
HETATM   16  C7          0      41.240  95.382 -13.031  1.00  0.00     0.026 C 
HETATM   17  C8          0      41.621  96.707 -12.856  1.00  0.00     0.112 C 
HETATM   18  C10         0      40.680  97.501 -12.213  1.00  0.00     0.112 C 
HETATM   19  C12         0      39.340  97.146 -12.310  1.00  0.00     0.028 C 
BRANCH  17  20
HETATM   20  O9          0      42.755  97.207 -13.472  1.00  0.00    -0.357 OA
HETATM   21  H9          0      43.373  97.790 -13.047  1.00  0.00     0.218 HD
ENDBRANCH  17  20
BRANCH  18  22
HETATM   22  O11         0      41.081  98.777 -11.844  1.00  0.00    -0.357 OA
HETATM   23  H11         0      40.772  99.497 -12.382  1.00  0.00     0.218 HD
ENDBRANCH  18  22
ENDBRANCH   4  14
BRANCH   8  24
HETATM   24  O17         0      32.329  96.411 -11.762  1.00  0.00    -0.359 OA
HETATM   25  H17         0      31.412  96.166 -11.794  1.00  0.00     0.218 HD
ENDBRANCH   8  24
TORSDOF 5
ENDMDL
MODEL 4
REMARK VINA RESULT:      -6.0      3.701      7.875
REMARK  5 active torsions:
REMARK  status: ('A' for Active; 'I' for Inactive)
REMARK    1  A    between atoms: C4_4  and  C5_5 
REMARK    2  A    between atoms: C8_8  and  O9_9 
REMARK    3  A    between atoms: C10_11  and  O11_12 
REMARK    4  A    between atoms: C16_18  and  O17_19 
REMARK    5  A    between atoms: C19_22  and  O20_23 
ROOT
HETATM    1  O1          0      40.718  94.171 -13.327  1.00  0.00    -0.286 OA
HETATM    2  C2          0      40.041  95.227 -13.465  1.00  0.00     0.201 C 
HETATM    3  C3          0      38.675  95.219 -13.687  1.00  0.00     0.067 C 
HETATM    4  C4          0      37.970  96.391 -13.937  1.00  0.00     0.103 C 
HETATM    5  O13         0      38.627  97.537 -13.941  1.00  0.00    -0.307 OA
HETATM    6  C14         0      39.930  97.597 -13.773  1.00  0.00     0.107 C 
HETATM    7  C15         0      40.667  98.705 -14.166  1.00  0.00     0.049 C 
HETATM    8  C16         0      42.055  98.665 -14.223  1.00  0.00     0.093 C 
HETATM    9  C18         0      42.649  97.718 -13.399  1.00  0.00     0.048 C 
HETATM   10  C19         0      41.927  96.621 -12.950  1.00  0.00     0.096 C 
HETATM   11  C21         0      40.614  96.480 -13.308  1.00  0.00     0.084 C 
ENDROOT
BRANCH  10  12
HETATM   12  O20         0      42.609  95.489 -12.513  1.00  0.00    -0.359 OA
HETATM   13  H20         0      43.268  95.599 -11.838  1.00  0.00     0.218 HD
ENDBRANCH  10  12
BRANCH   4  14
HETATM   14  C5          0      36.743  96.279 -14.727  1.00  0.00     0.025 C 
HETATM   15  C6          0      36.639  96.753 -16.027  1.00  0.00     0.004 C 
HETATM   16  C7          0      35.903  95.996 -16.933  1.00  0.00     0.026 C 
HETATM   17  C8          0      35.183  94.876 -16.532  1.00  0.00     0.112 C 
HETATM   18  C10         0      34.838  94.860 -15.187  1.00  0.00     0.112 C 
HETATM   19  C12         0      35.640  95.556 -14.291  1.00  0.00     0.028 C 
BRANCH  17  20
HETATM   20  O9          0      35.028  93.792 -17.378  1.00  0.00    -0.357 OA
HETATM   21  H9          0      35.319  93.783 -18.283  1.00  0.00     0.218 HD
ENDBRANCH  17  20
BRANCH  18  22
HETATM   22  O11         0      33.962  93.866 -14.775  1.00  0.00    -0.357 OA
HETATM   23  H11         0      33.406  94.064 -14.030  1.00  0.00     0.218 HD
ENDBRANCH  18  22
ENDBRANCH   4  14
BRANCH   8  24
HETATM   24  O17         0      42.760  99.282 -15.263  1.00  0.00    -0.359 OA
HETATM   25  H17         0      43.504  98.863 -15.679  1.00  0.00     0.218 HD
ENDBRANCH   8  24
TORSDOF 5
ENDMDL
MODEL 5
REMARK VINA RESULT:      -6.0      4.814      7.393
REMARK  5 active torsions:
REMARK  status: ('A' for Active; 'I' for Inactive)
REMARK    1  A    between atoms: C4_4  and  C5_5 
REMARK    2  A    between atoms: C8_8  and  O9_9 
REMARK    3  A    between atoms: C10_11  and  O11_12 
REMARK    4  A    between atoms: C16_18  and  O17_19 
REMARK    5  A    between atoms: C19_22  and  O20_23 
ROOT
HETATM    1  O1          0      34.008  97.838 -13.866  1.00  0.00    -0.286 OA
HETATM    2  C2          0      34.837  96.892 -13.962  1.00  0.00     0.201 C 
HETATM    3  C3          0      36.114  96.956 -13.430  1.00  0.00     0.067 C 
HETATM    4  C4          0      37.041  95.942 -13.639  1.00  0.00     0.103 C 
HETATM    5  O13         0      36.680  94.887 -14.348  1.00  0.00    -0.307 OA
HETATM    6  C14         0      35.493  94.793 -14.907  1.00  0.00     0.107 C 
HETATM    7  C15         0      35.245  93.917 -15.953  1.00  0.00     0.049 C 
HETATM    8  C16         0      34.078  94.000 -16.703  1.00  0.00     0.093 C 
HETATM    9  C18         0      33.003  94.595 -16.053  1.00  0.00     0.048 C 
HETATM   10  C19         0      33.213  95.441 -14.972  1.00  0.00     0.096 C 
HETATM   11  C21         0      34.487  95.678 -14.533  1.00  0.00     0.084 C 
ENDROOT
BRANCH  10  12
HETATM   12  O20         0      32.221  96.349 -14.616  1.00  0.00    -0.359 OA
HETATM   13  H20         0      31.684  96.716 -15.309  1.00  0.00     0.218 HD
ENDBRANCH  10  12
BRANCH   4  14
HETATM   14  C5          0      38.458  96.310 -13.597  1.00  0.00     0.025 C 
HETATM   15  C6          0      38.894  97.577 -13.235  1.00  0.00     0.004 C 
HETATM   16  C7          0      40.052  97.664 -12.468  1.00  0.00     0.026 C 
HETATM   17  C8          0      40.824  96.544 -12.182  1.00  0.00     0.112 C 
HETATM   18  C10         0      40.675  95.493 -13.077  1.00  0.00     0.112 C 
HETATM   19  C12         0      39.475  95.380 -13.769  1.00  0.00     0.028 C 
BRANCH  17  20
HETATM   20  O9          0      41.507  96.441 -10.983  1.00  0.00    -0.357 OA
HETATM   21  H9          0      42.434  96.626 -10.886  1.00  0.00     0.218 HD
ENDBRANCH  17  20
BRANCH  18  22
HETATM   22  O11         0      41.556  94.429 -12.950  1.00  0.00    -0.357 OA
HETATM   23  H11         0      42.108  94.236 -13.699  1.00  0.00     0.218 HD
ENDBRANCH  18  22
ENDBRANCH   4  14
BRANCH   8  24
HETATM   24  O17         0      34.088  93.816 -18.090  1.00  0.00    -0.359 OA
HETATM   25  H17         0      33.975  92.957 -18.480  1.00  0.00     0.218 HD
ENDBRANCH   8  24
TORSDOF 5
ENDMDL
MODEL 6
REMARK VINA RESULT:      -5.8      2.204      3.700
REMARK  5 active torsions:
REMARK  status: ('A' for Active; 'I' for Inactive)
REMARK    1  A    between atoms: C4_4  and  C5_5 
REMARK    2  A    between atoms: C8_8  and  O9_9 
REMARK    3  A    between atoms: C10_11  and  O11_12 
REMARK    4  A    between atoms: C16_18  and  O17_19 
REMARK    5  A    between atoms: C19_22  and  O20_23 
ROOT
HETATM    1  O1          0      40.518  99.491 -15.026  1.00  0.00    -0.286 OA
HETATM    2  C2          0      41.474  98.903 -14.451  1.00  0.00     0.201 C 
HETATM    3  C3          0      42.802  99.215 -14.693  1.00  0.00     0.067 C 
HETATM    4  C4          0      43.837  98.482 -14.124  1.00  0.00     0.103 C 
HETATM    5  O13         0      43.538  97.479 -13.319  1.00  0.00    -0.307 OA
HETATM    6  C14         0      42.295  97.117 -13.085  1.00  0.00     0.107 C 
HETATM    7  C15         0      41.981  95.861 -12.587  1.00  0.00     0.049 C 
HETATM    8  C16         0      40.672  95.393 -12.582  1.00  0.00     0.093 C 
HETATM    9  C18         0      39.695  96.382 -12.583  1.00  0.00     0.048 C 
HETATM   10  C19         0      39.988  97.663 -13.031  1.00  0.00     0.096 C 
HETATM   11  C21         0      41.253  97.959 -13.459  1.00  0.00     0.084 C 
ENDROOT
BRANCH  10  12
HETATM   12  O20         0      38.950  98.496 -13.436  1.00  0.00    -0.359 OA
HETATM   13  H20         0      38.754  99.255 -12.901  1.00  0.00     0.218 HD
ENDBRANCH  10  12
BRANCH   4  14
HETATM   14  C5          0      45.110  98.450 -14.847  1.00  0.00     0.025 C 
HETATM   15  C6          0      46.319  98.786 -14.256  1.00  0.00     0.004 C 
HETATM   16  C7          0      47.439  98.039 -14.608  1.00  0.00     0.026 C 
HETATM   17  C8          0      47.388  97.078 -15.612  1.00  0.00     0.112 C 
HETATM   18  C10         0      46.368  97.259 -16.536  1.00  0.00     0.112 C 
HETATM   19  C12         0      45.223  97.936 -16.132  1.00  0.00     0.028 C 
BRANCH  17  20
HETATM   20  O9          0      48.169  95.938 -15.542  1.00  0.00    -0.357 OA
HETATM   21  H9          0      48.410  95.416 -16.298  1.00  0.00     0.218 HD
ENDBRANCH  17  20
BRANCH  18  22
HETATM   22  O11         0      46.386  96.444 -17.659  1.00  0.00    -0.357 OA
HETATM   23  H11         0      47.086  95.804 -17.715  1.00  0.00     0.218 HD
ENDBRANCH  18  22
ENDBRANCH   4  14
BRANCH   8  24
HETATM   24  O17         0      40.372  94.063 -12.894  1.00  0.00    -0.359 OA
HETATM   25  H17         0      40.593  93.686 -13.737  1.00  0.00     0.218 HD
ENDBRANCH   8  24
TORSDOF 5
ENDMDL
MODEL 7
REMARK VINA RESULT:      -5.6      2.578      6.920
REMARK  5 active torsions:
REMARK  status: ('A' for Active; 'I' for Inactive)
REMARK    1  A    between atoms: C4_4  and  C5_5 
REMARK    2  A    between atoms: C8_8  and  O9_9 
REMARK    3  A    between atoms: C10_11  and  O11_12 
REMARK    4  A    between atoms: C16_18  and  O17_19 
REMARK    5  A    between atoms: C19_22  and  O20_23 
ROOT
HETATM    1  O1          0      42.800  96.009 -12.174  1.00  0.00    -0.286 OA
HETATM    2  C2          0      42.149  96.868 -12.829  1.00  0.00     0.201 C 
HETATM    3  C3          0      40.783  97.042 -12.688  1.00  0.00     0.067 C 
HETATM    4  C4          0      40.073  97.924 -13.495  1.00  0.00     0.103 C 
HETATM    5  O13         0      40.731  98.624 -14.402  1.00  0.00    -0.307 OA
HETATM    6  C14         0      42.022  98.470 -14.602  1.00  0.00     0.107 C 
HETATM    7  C15         0      42.633  98.880 -15.779  1.00  0.00     0.049 C 
HETATM    8  C16         0      43.930  98.491 -16.092  1.00  0.00     0.093 C 
HETATM    9  C18         0      44.723  98.161 -15.000  1.00  0.00     0.048 C 
HETATM   10  C19         0      44.144  97.791 -13.793  1.00  0.00     0.096 C 
HETATM   11  C21         0      42.782  97.768 -13.673  1.00  0.00     0.084 C 
ENDROOT
BRANCH  10  12
HETATM   12  O20         0      44.893  97.061 -12.875  1.00  0.00    -0.359 OA
HETATM   13  H20         0      45.419  96.341 -13.202  1.00  0.00     0.218 HD
ENDBRANCH  10  12
BRANCH   4  14
HETATM   14  C5          0      38.656  97.633 -13.721  1.00  0.00     0.025 C 
HETATM   15  C6          0      37.807  98.503 -14.389  1.00  0.00     0.004 C 
HETATM   16  C7          0      36.854  97.949 -15.238  1.00  0.00     0.026 C 
HETATM   17  C8          0      36.660  96.574 -15.319  1.00  0.00     0.112 C 
HETATM   18  C10         0      37.077  95.863 -14.202  1.00  0.00     0.112 C 
HETATM   19  C12         0      38.092  96.400 -13.418  1.00  0.00     0.028 C 
BRANCH  17  20
HETATM   20  O9          0      36.281  95.981 -16.510  1.00  0.00    -0.357 OA
HETATM   21  H9          0      36.275  96.433 -17.346  1.00  0.00     0.218 HD
ENDBRANCH  17  20
BRANCH  18  22
HETATM   22  O11         0      36.738  94.519 -14.150  1.00  0.00    -0.357 OA
HETATM   23  H11         0      37.159  93.944 -14.779  1.00  0.00     0.218 HD
ENDBRANCH  18  22
ENDBRANCH   4  14
BRANCH   8  24
HETATM   24  O17         0      44.291  98.138 -17.397  1.00  0.00    -0.359 OA
HETATM   25  H17         0      44.496  98.794 -18.052  1.00  0.00     0.218 HD
ENDBRANCH   8  24
TORSDOF 5
ENDMDL
MODEL 8
REMARK VINA RESULT:      -5.4     12.875     14.658
REMARK  5 active torsions:
REMARK  status: ('A' for Active; 'I' for Inactive)
REMARK    1  A    between atoms: C4_4  and  C5_5 
REMARK    2  A    between atoms: C8_8  and  O9_9 
REMARK    3  A    between atoms: C10_11  and  O11_12 
REMARK    4  A    between atoms: C16_18  and  O17_19 
REMARK    5  A    between atoms: C19_22  and  O20_23 
ROOT
HETATM    1  O1          0      32.464  95.625 -23.043  1.00  0.00    -0.286 OA
HETATM    2  C2          0      33.177  94.667 -23.449  1.00  0.00     0.201 C 
HETATM    3  C3          0      34.510  94.524 -23.103  1.00  0.00     0.067 C 
HETATM    4  C4          0      35.300  93.518 -23.647  1.00  0.00     0.103 C 
HETATM    5  O13         0      34.751  92.670 -24.499  1.00  0.00    -0.307 OA
HETATM    6  C14         0      33.500  92.784 -24.890  1.00  0.00     0.107 C 
HETATM    7  C15         0      33.039  92.175 -26.048  1.00  0.00     0.049 C 
HETATM    8  C16         0      31.801  92.501 -26.591  1.00  0.00     0.093 C 
HETATM    9  C18         0      30.880  93.013 -25.685  1.00  0.00     0.048 C 
HETATM   10  C19         0      31.305  93.587 -24.495  1.00  0.00     0.096 C 
HETATM   11  C21         0      32.641  93.634 -24.203  1.00  0.00     0.084 C 
ENDROOT
BRANCH  10  12
HETATM   12  O20         0      30.459  94.463 -23.822  1.00  0.00    -0.359 OA
HETATM   13  H20         0      30.797  95.319 -23.591  1.00  0.00     0.218 HD
ENDBRANCH  10  12
BRANCH   4  14
HETATM   14  C5          0      36.740  93.769 -23.732  1.00  0.00     0.025 C 
HETATM   15  C6          0      37.268  94.976 -24.165  1.00  0.00     0.004 C 
HETATM   16  C7          0      38.407  95.450 -23.520  1.00  0.00     0.026 C 
HETATM   17  C8          0      39.077  94.687 -22.570  1.00  0.00     0.112 C 
HETATM   18  C10         0      38.868  93.318 -22.672  1.00  0.00     0.112 C 
HETATM   19  C12         0      37.682  92.873 -23.244  1.00  0.00     0.028 C 
BRANCH  17  20
HETATM   20  O9          0      39.715  95.289 -21.500  1.00  0.00    -0.357 OA
HETATM   21  H9          0      39.408  96.085 -21.082  1.00  0.00     0.218 HD
ENDBRANCH  17  20
BRANCH  18  22
HETATM   22  O11         0      39.655  92.501 -21.874  1.00  0.00    -0.357 OA
HETATM   23  H11         0      39.646  91.571 -22.070  1.00  0.00     0.218 HD
ENDBRANCH  18  22
ENDBRANCH   4  14
BRANCH   8  24
HETATM   24  O17         0      31.620  92.622 -27.973  1.00  0.00    -0.359 OA
HETATM   25  H17         0      30.756  92.607 -28.366  1.00  0.00     0.218 HD
ENDBRANCH   8  24
TORSDOF 5
ENDMDL
MODEL 9
REMARK VINA RESULT:      -5.4      2.825      7.467
REMARK  5 active torsions:
REMARK  status: ('A' for Active; 'I' for Inactive)
REMARK    1  A    between atoms: C4_4  and  C5_5 
REMARK    2  A    between atoms: C8_8  and  O9_9 
REMARK    3  A    between atoms: C10_11  and  O11_12 
REMARK    4  A    between atoms: C16_18  and  O17_19 
REMARK    5  A    between atoms: C19_22  and  O20_23 
ROOT
HETATM    1  O1          0      41.620  95.098 -12.518  1.00  0.00    -0.286 OA
HETATM    2  C2          0      41.030  96.122 -12.961  1.00  0.00     0.201 C 
HETATM    3  C3          0      39.651  96.230 -13.014  1.00  0.00     0.067 C 
HETATM    4  C4          0      39.028  97.325 -13.601  1.00  0.00     0.103 C 
HETATM    5  O13         0      39.779  98.291 -14.100  1.00  0.00    -0.307 OA
HETATM    6  C14         0      41.092  98.221 -14.109  1.00  0.00     0.107 C 
HETATM    7  C15         0      41.860  99.002 -14.961  1.00  0.00     0.049 C 
HETATM    8  C16         0      43.213  98.748 -15.150  1.00  0.00     0.093 C 
HETATM    9  C18         0      43.836  98.079 -14.104  1.00  0.00     0.048 C 
HETATM   10  C19         0      43.093  97.325 -13.206  1.00  0.00     0.096 C 
HETATM   11  C21         0      41.733  97.255 -13.341  1.00  0.00     0.084 C 
ENDROOT
BRANCH  10  12
HETATM   12  O20         0      43.726  96.337 -12.459  1.00  0.00    -0.359 OA
HETATM   13  H20         0      43.773  95.463 -12.827  1.00  0.00     0.218 HD
ENDBRANCH  10  12
BRANCH   4  14
HETATM   14  C5          0      37.689  97.116 -14.155  1.00  0.00     0.025 C 
HETATM   15  C6          0      37.240  95.878 -14.592  1.00  0.00     0.004 C 
HETATM   16  C7          0      35.914  95.546 -14.336  1.00  0.00     0.026 C 
HETATM   17  C8          0      35.025  96.463 -13.785  1.00  0.00     0.112 C 
HETATM   18  C10         0      35.373  97.794 -13.976  1.00  0.00     0.112 C 
HETATM   19  C12         0      36.716  98.108 -14.145  1.00  0.00     0.028 C 
BRANCH  17  20
HETATM   20  O9          0      34.010  96.048 -12.942  1.00  0.00    -0.357 OA
HETATM   21  H9          0      33.792  96.481 -12.124  1.00  0.00     0.218 HD
ENDBRANCH  17  20
BRANCH  18  22
HETATM   22  O11         0      34.431  98.747 -13.615  1.00  0.00    -0.357 OA
HETATM   23  H11         0      33.805  98.500 -12.944  1.00  0.00     0.218 HD
ENDBRANCH  18  22
ENDBRANCH   4  14
BRANCH   8  24
HETATM   24  O17         0      43.804  98.851 -16.414  1.00  0.00    -0.359 OA
HETATM   25  H17         0      44.174  99.667 -16.727  1.00  0.00     0.218 HD
ENDBRANCH   8  24
TORSDOF 5
ENDMDL
