MODEL 1
REMARK VINA RESULT:      -1.7      0.000      0.000
REMARK  5 active torsions:
REMARK  status: ('A' for Active; 'I' for Inactive)
REMARK    1  A    between atoms: C4_4  and  C5_5 
REMARK    2  A    between atoms: C8_8  and  O9_9 
REMARK    3  A    between atoms: C10_11  and  O11_12 
REMARK    4  A    between atoms: C16_18  and  O17_19 
REMARK    5  A    between atoms: C19_22  and  O20_23 
ROOT
HETATM    1  O1          0      15.614  90.515 -22.806  1.00  0.00    -0.286 OA
HETATM    2  C2          0      15.951  91.718 -22.984  1.00  0.00     0.201 C 
HETATM    3  C3          0      15.667  92.413 -24.147  1.00  0.00     0.067 C 
HETATM    4  C4          0      16.139  93.704 -24.358  1.00  0.00     0.103 C 
HETATM    5  O13         0      16.859  94.279 -23.411  1.00  0.00    -0.307 OA
HETATM    6  C14         0      17.189  93.650 -22.304  1.00  0.00     0.107 C 
HETATM    7  C15         0      18.245  94.074 -21.510  1.00  0.00     0.049 C 
HETATM    8  C16         0      18.750  93.273 -20.493  1.00  0.00     0.093 C 
HETATM    9  C18         0      17.857  92.338 -19.984  1.00  0.00     0.048 C 
HETATM   10  C19         0      16.763  91.926 -20.734  1.00  0.00     0.096 C 
HETATM   11  C21         0      16.554  92.457 -21.977  1.00  0.00     0.084 C 
ENDROOT
BRANCH  10  12
HETATM   12  O20         0      16.145  90.717 -20.429  1.00  0.00    -0.359 OA
HETATM   13  H20         0      16.687  89.938 -20.387  1.00  0.00     0.218 HD
ENDBRANCH  10  12
BRANCH   4  14
HETATM   14  C5          0      16.332  94.128 -25.746  1.00  0.00     0.025 C 
HETATM   15  C6          0      16.289  95.457 -26.139  1.00  0.00     0.004 C 
HETATM   16  C7          0      17.190  95.870 -27.115  1.00  0.00     0.026 C 
HETATM   17  C8          0      18.015  94.966 -27.775  1.00  0.00     0.112 C 
HETATM   18  C10         0      17.553  93.657 -27.781  1.00  0.00     0.112 C 
HETATM   19  C12         0      16.721  93.246 -26.746  1.00  0.00     0.028 C 
BRANCH  17  20
HETATM   20  O9          0      19.281  95.336 -28.192  1.00  0.00    -0.357 OA
HETATM   21  H9          0      20.079  95.089 -27.739  1.00  0.00     0.218 HD
ENDBRANCH  17  20
BRANCH  18  22
HETATM   22  O11         0      18.236  92.753 -28.582  1.00  0.00    -0.357 OA
HETATM   23  H11         0      18.215  92.908 -29.519  1.00  0.00     0.218 HD
ENDBRANCH  18  22
ENDBRANCH   4  14
BRANCH   8  24
HETATM   24  O17         0      20.125  93.187 -20.247  1.00  0.00    -0.359 OA
HETATM   25  H17         0      20.469  92.714 -19.499  1.00  0.00     0.218 HD
ENDBRANCH   8  24
TORSDOF 5
ENDMDL
MODEL 2
REMARK VINA RESULT:      -1.7      1.805      2.249
REMARK  5 active torsions:
REMARK  status: ('A' for Active; 'I' for Inactive)
REMARK    1  A    between atoms: C4_4  and  C5_5 
REMARK    2  A    between atoms: C8_8  and  O9_9 
REMARK    3  A    between atoms: C10_11  and  O11_12 
REMARK    4  A    between atoms: C16_18  and  O17_19 
REMARK    5  A    between atoms: C19_22  and  O20_23 
ROOT
HETATM    1  O1          0      15.425  90.386 -22.484  1.00  0.00    -0.286 OA
HETATM    2  C2          0      15.611  91.615 -22.701  1.00  0.00     0.201 C 
HETATM    3  C3          0      15.027  92.286 -23.762  1.00  0.00     0.067 C 
HETATM    4  C4          0      15.329  93.615 -24.038  1.00  0.00     0.103 C 
HETATM    5  O13         0      16.180  94.249 -23.251  1.00  0.00    -0.307 OA
HETATM    6  C14         0      16.791  93.648 -22.254  1.00  0.00     0.107 C 
HETATM    7  C15         0      17.950  94.162 -21.690  1.00  0.00     0.049 C 
HETATM    8  C16         0      18.726  93.406 -20.820  1.00  0.00     0.093 C 
HETATM    9  C18         0      18.046  92.392 -20.156  1.00  0.00     0.048 C 
HETATM   10  C19         0      16.859  91.886 -20.669  1.00  0.00     0.096 C 
HETATM   11  C21         0      16.345  92.402 -21.827  1.00  0.00     0.084 C 
ENDROOT
BRANCH  10  12
HETATM   12  O20         0      16.427  90.626 -20.267  1.00  0.00    -0.359 OA
HETATM   13  H20         0      16.921  89.871 -20.565  1.00  0.00     0.218 HD
ENDBRANCH  10  12
BRANCH   4  14
HETATM   14  C5          0      15.187  94.060 -25.426  1.00  0.00     0.025 C 
HETATM   15  C6          0      14.028  93.862 -26.164  1.00  0.00     0.004 C 
HETATM   16  C7          0      13.631  94.880 -27.024  1.00  0.00     0.026 C 
HETATM   17  C8          0      14.426  95.999 -27.247  1.00  0.00     0.112 C 
HETATM   18  C10         0      15.777  95.812 -26.987  1.00  0.00     0.112 C 
HETATM   19  C12         0      16.142  94.844 -26.058  1.00  0.00     0.028 C 
BRANCH  17  20
HETATM   20  O9          0      13.856  97.235 -27.498  1.00  0.00    -0.357 OA
HETATM   21  H9          0      14.283  98.062 -27.306  1.00  0.00     0.218 HD
ENDBRANCH  17  20
BRANCH  18  22
HETATM   22  O11         0      16.638  96.830 -27.369  1.00  0.00    -0.357 OA
HETATM   23  H11         0      17.161  96.682 -28.148  1.00  0.00     0.218 HD
ENDBRANCH  18  22
ENDBRANCH   4  14
BRANCH   8  24
HETATM   24  O17         0      20.124  93.443 -20.871  1.00  0.00    -0.359 OA
HETATM   25  H17         0      20.588  93.742 -21.644  1.00  0.00     0.218 HD
ENDBRANCH   8  24
TORSDOF 5
ENDMDL
MODEL 3
REMARK VINA RESULT:      -1.6      2.772      6.077
REMARK  5 active torsions:
REMARK  status: ('A' for Active; 'I' for Inactive)
REMARK    1  A    between atoms: C4_4  and  C5_5 
REMARK    2  A    between atoms: C8_8  and  O9_9 
REMARK    3  A    between atoms: C10_11  and  O11_12 
REMARK    4  A    between atoms: C16_18  and  O17_19 
REMARK    5  A    between atoms: C19_22  and  O20_23 
ROOT
HETATM    1  O1          0      15.487  90.086 -26.031  1.00  0.00    -0.286 OA
HETATM    2  C2          0      16.018  90.814 -25.149  1.00  0.00     0.201 C 
HETATM    3  C3          0      15.439  91.037 -23.911  1.00  0.00     0.067 C 
HETATM    4  C4          0      15.994  91.925 -22.996  1.00  0.00     0.103 C 
HETATM    5  O13         0      17.113  92.551 -23.318  1.00  0.00    -0.307 OA
HETATM    6  C14         0      17.683  92.404 -24.493  1.00  0.00     0.107 C 
HETATM    7  C15         0      18.596  93.326 -24.983  1.00  0.00     0.049 C 
HETATM    8  C16         0      18.999  93.306 -26.313  1.00  0.00     0.093 C 
HETATM    9  C18         0      18.883  92.073 -26.943  1.00  0.00     0.048 C 
HETATM   10  C19         0      18.013  91.109 -26.452  1.00  0.00     0.096 C 
HETATM   11  C21         0      17.276  91.369 -25.329  1.00  0.00     0.084 C 
ENDROOT
BRANCH  10  12
HETATM   12  O20         0      17.579  90.091 -27.295  1.00  0.00    -0.359 OA
HETATM   13  H20         0      18.220  89.456 -27.593  1.00  0.00     0.218 HD
ENDBRANCH  10  12
BRANCH   4  14
HETATM   14  C5          0      15.084  92.555 -22.038  1.00  0.00     0.025 C 
HETATM   15  C6          0      14.664  93.872 -22.154  1.00  0.00     0.004 C 
HETATM   16  C7          0      13.345  94.160 -21.818  1.00  0.00     0.026 C 
HETATM   17  C8          0      12.509  93.200 -21.258  1.00  0.00     0.112 C 
HETATM   18  C10         0      13.168  92.162 -20.613  1.00  0.00     0.112 C 
HETATM   19  C12         0      14.456  91.840 -21.027  1.00  0.00     0.028 C 
BRANCH  17  20
HETATM   20  O9          0      11.151  93.200 -21.524  1.00  0.00    -0.357 OA
HETATM   21  H9          0      10.572  92.476 -21.315  1.00  0.00     0.218 HD
ENDBRANCH  17  20
BRANCH  18  22
HETATM   22  O11         0      12.388  91.282 -19.877  1.00  0.00    -0.357 OA
HETATM   23  H11         0      12.122  90.479 -20.309  1.00  0.00     0.218 HD
ENDBRANCH  18  22
ENDBRANCH   4  14
BRANCH   8  24
HETATM   24  O17         0      19.179  94.489 -27.038  1.00  0.00    -0.359 OA
HETATM   25  H17         0      19.947  95.036 -26.920  1.00  0.00     0.218 HD
ENDBRANCH   8  24
TORSDOF 5
ENDMDL
MODEL 4
REMARK VINA RESULT:      -1.5      1.517      2.267
REMARK  5 active torsions:
REMARK  status: ('A' for Active; 'I' for Inactive)
REMARK    1  A    between atoms: C4_4  and  C5_5 
REMARK    2  A    between atoms: C8_8  and  O9_9 
REMARK    3  A    between atoms: C10_11  and  O11_12 
REMARK    4  A    between atoms: C16_18  and  O17_19 
REMARK    5  A    between atoms: C19_22  and  O20_23 
ROOT
HETATM    1  O1          0      15.910  90.225 -24.336  1.00  0.00    -0.286 OA
HETATM    2  C2          0      16.483  91.349 -24.376  1.00  0.00     0.201 C 
HETATM    3  C3          0      16.922  91.925 -25.556  1.00  0.00     0.067 C 
HETATM    4  C4          0      17.641  93.115 -25.561  1.00  0.00     0.103 C 
HETATM    5  O13         0      17.889  93.713 -24.409  1.00  0.00    -0.307 OA
HETATM    6  C14         0      17.527  93.189 -23.258  1.00  0.00     0.107 C 
HETATM    7  C15         0      18.112  93.579 -22.062  1.00  0.00     0.049 C 
HETATM    8  C16         0      17.915  92.854 -20.893  1.00  0.00     0.093 C 
HETATM    9  C18         0      16.748  92.101 -20.858  1.00  0.00     0.048 C 
HETATM   10  C19         0      16.111  91.733 -22.036  1.00  0.00     0.096 C 
HETATM   11  C21         0      16.627  92.129 -23.239  1.00  0.00     0.084 C 
ENDROOT
BRANCH  10  12
HETATM   12  O20         0      15.234  90.653 -22.025  1.00  0.00    -0.359 OA
HETATM   13  H20         0      14.952  90.301 -22.861  1.00  0.00     0.218 HD
ENDBRANCH  10  12
BRANCH   4  14
HETATM   14  C5          0      18.555  93.340 -26.683  1.00  0.00     0.025 C 
HETATM   15  C6          0      18.879  92.349 -27.599  1.00  0.00     0.004 C 
HETATM   16  C7          0      19.016  92.724 -28.931  1.00  0.00     0.026 C 
HETATM   17  C8          0      18.966  94.057 -29.323  1.00  0.00     0.112 C 
HETATM   18  C10         0      19.274  94.968 -28.322  1.00  0.00     0.112 C 
HETATM   19  C12         0      19.047  94.599 -27.001  1.00  0.00     0.028 C 
BRANCH  17  20
HETATM   20  O9          0      18.441  94.415 -30.552  1.00  0.00    -0.357 OA
HETATM   21  H9          0      17.578  94.796 -30.668  1.00  0.00     0.218 HD
ENDBRANCH  17  20
BRANCH  18  22
HETATM   22  O11         0      19.423  96.294 -28.702  1.00  0.00    -0.357 OA
HETATM   23  H11         0      20.304  96.585 -28.909  1.00  0.00     0.218 HD
ENDBRANCH  18  22
ENDBRANCH   4  14
BRANCH   8  24
HETATM   24  O17         0      18.958  92.637 -19.985  1.00  0.00    -0.359 OA
HETATM   25  H17         0      19.710  93.216 -19.941  1.00  0.00     0.218 HD
ENDBRANCH   8  24
TORSDOF 5
ENDMDL
MODEL 5
REMARK VINA RESULT:      -1.5      2.921      6.106
REMARK  5 active torsions:
REMARK  status: ('A' for Active; 'I' for Inactive)
REMARK    1  A    between atoms: C4_4  and  C5_5 
REMARK    2  A    between atoms: C8_8  and  O9_9 
REMARK    3  A    between atoms: C10_11  and  O11_12 
REMARK    4  A    between atoms: C16_18  and  O17_19 
REMARK    5  A    between atoms: C19_22  and  O20_23 
ROOT
HETATM    1  O1          0      16.566  96.452 -25.247  1.00  0.00    -0.286 OA
HETATM    2  C2          0      17.286  95.947 -24.344  1.00  0.00     0.201 C 
HETATM    3  C3          0      17.248  94.602 -24.018  1.00  0.00     0.067 C 
HETATM    4  C4          0      17.977  94.089 -22.950  1.00  0.00     0.103 C 
HETATM    5  O13         0      18.737  94.911 -22.248  1.00  0.00    -0.307 OA
HETATM    6  C14         0      18.781  96.203 -22.492  1.00  0.00     0.107 C 
HETATM    7  C15         0      19.237  97.110 -21.546  1.00  0.00     0.049 C 
HETATM    8  C16         0      19.046  98.477 -21.706  1.00  0.00     0.093 C 
HETATM    9  C18         0      18.885  98.897 -23.021  1.00  0.00     0.048 C 
HETATM   10  C19         0      18.475  98.005 -24.002  1.00  0.00     0.096 C 
HETATM   11  C21         0      18.242  96.696 -23.675  1.00  0.00     0.084 C 
ENDROOT
BRANCH  10  12
HETATM   12  O20         0      17.906  98.495 -25.173  1.00  0.00    -0.359 OA
HETATM   13  H20         0      18.130  99.378 -25.441  1.00  0.00     0.218 HD
ENDBRANCH  10  12
BRANCH   4  14
HETATM   14  C5          0      17.458  92.883 -22.303  1.00  0.00     0.025 C 
HETATM   15  C6          0      17.824  92.501 -21.020  1.00  0.00     0.004 C 
HETATM   16  C7          0      16.840  91.949 -20.206  1.00  0.00     0.026 C 
HETATM   17  C8          0      15.570  91.660 -20.692  1.00  0.00     0.112 C 
HETATM   18  C10         0      15.502  91.479 -22.067  1.00  0.00     0.112 C 
HETATM   19  C12         0      16.448  92.113 -22.864  1.00  0.00     0.028 C 
BRANCH  17  20
HETATM   20  O9          0      14.458  91.764 -19.875  1.00  0.00    -0.357 OA
HETATM   21  H9          0      14.410  92.340 -19.120  1.00  0.00     0.218 HD
ENDBRANCH  17  20
BRANCH  18  22
HETATM   22  O11         0      14.303  91.005 -22.580  1.00  0.00    -0.357 OA
HETATM   23  H11         0      13.714  90.576 -21.970  1.00  0.00     0.218 HD
ENDBRANCH  18  22
ENDBRANCH   4  14
BRANCH   8  24
HETATM   24  O17         0      18.705  99.297 -20.625  1.00  0.00    -0.359 OA
HETATM   25  H17         0      19.163 100.111 -20.453  1.00  0.00     0.218 HD
ENDBRANCH   8  24
TORSDOF 5
ENDMDL
MODEL 6
REMARK VINA RESULT:      -1.5      5.649      8.100
REMARK  5 active torsions:
REMARK  status: ('A' for Active; 'I' for Inactive)
REMARK    1  A    between atoms: C4_4  and  C5_5 
REMARK    2  A    between atoms: C8_8  and  O9_9 
REMARK    3  A    between atoms: C10_11  and  O11_12 
REMARK    4  A    between atoms: C16_18  and  O17_19 
REMARK    5  A    between atoms: C19_22  and  O20_23 
ROOT
HETATM    1  O1          0       9.807  95.822 -22.740  1.00  0.00    -0.286 OA
HETATM    2  C2          0      10.226  94.695 -22.357  1.00  0.00     0.201 C 
HETATM    3  C3          0      11.548  94.463 -22.016  1.00  0.00     0.067 C 
HETATM    4  C4          0      12.004  93.189 -21.696  1.00  0.00     0.103 C 
HETATM    5  O13         0      11.143  92.186 -21.700  1.00  0.00    -0.307 OA
HETATM    6  C14         0       9.886  92.346 -22.052  1.00  0.00     0.107 C 
HETATM    7  C15         0       9.096  91.275 -22.443  1.00  0.00     0.049 C 
HETATM    8  C16         0       7.862  91.473 -23.053  1.00  0.00     0.093 C 
HETATM    9  C18         0       7.256  92.690 -22.767  1.00  0.00     0.048 C 
HETATM   10  C19         0       8.011  93.770 -22.329  1.00  0.00     0.096 C 
HETATM   11  C21         0       9.362  93.629 -22.160  1.00  0.00     0.084 C 
ENDROOT
BRANCH  10  12
HETATM   12  O20         0       7.501  95.057 -22.466  1.00  0.00    -0.359 OA
HETATM   13  H20         0       7.469  95.433 -23.337  1.00  0.00     0.218 HD
ENDBRANCH  10  12
BRANCH   4  14
HETATM   14  C5          0      13.419  92.904 -21.939  1.00  0.00     0.025 C 
HETATM   15  C6          0      14.444  93.587 -21.300  1.00  0.00     0.004 C 
HETATM   16  C7          0      15.566  92.857 -20.921  1.00  0.00     0.026 C 
HETATM   17  C8          0      15.725  91.523 -21.282  1.00  0.00     0.112 C 
HETATM   18  C10         0      15.005  91.136 -22.404  1.00  0.00     0.112 C 
HETATM   19  C12         0      13.840  91.830 -22.712  1.00  0.00     0.028 C 
BRANCH  17  20
HETATM   20  O9          0      16.382  90.636 -20.447  1.00  0.00    -0.357 OA
HETATM   21  H9          0      15.962  89.893 -20.031  1.00  0.00     0.218 HD
ENDBRANCH  17  20
BRANCH  18  22
HETATM   22  O11         0      15.271  89.875 -22.917  1.00  0.00    -0.357 OA
HETATM   23  H11         0      14.660  89.182 -22.695  1.00  0.00     0.218 HD
ENDBRANCH  18  22
ENDBRANCH   4  14
BRANCH   8  24
HETATM   24  O17         0       7.438  90.671 -24.118  1.00  0.00    -0.359 OA
HETATM   25  H17         0       7.685  90.862 -25.015  1.00  0.00     0.218 HD
ENDBRANCH   8  24
TORSDOF 5
ENDMDL
MODEL 7
REMARK VINA RESULT:      -1.5      2.532      6.697
REMARK  5 active torsions:
REMARK  status: ('A' for Active; 'I' for Inactive)
REMARK    1  A    between atoms: C4_4  and  C5_5 
REMARK    2  A    between atoms: C8_8  and  O9_9 
REMARK    3  A    between atoms: C10_11  and  O11_12 
REMARK    4  A    between atoms: C16_18  and  O17_19 
REMARK    5  A    between atoms: C19_22  and  O20_23 
ROOT
HETATM    1  O1          0      13.667  91.041 -27.629  1.00  0.00    -0.286 OA
HETATM    2  C2          0      14.733  90.958 -26.959  1.00  0.00     0.201 C 
HETATM    3  C3          0      14.758  91.035 -25.577  1.00  0.00     0.067 C 
HETATM    4  C4          0      15.956  91.045 -24.870  1.00  0.00     0.103 C 
HETATM    5  O13         0      17.090  90.957 -25.542  1.00  0.00    -0.307 OA
HETATM    6  C14         0      17.123  90.920 -26.856  1.00  0.00     0.107 C 
HETATM    7  C15         0      18.274  91.228 -27.567  1.00  0.00     0.049 C 
HETATM    8  C16         0      18.239  91.435 -28.941  1.00  0.00     0.093 C 
HETATM    9  C18         0      17.184  90.818 -29.601  1.00  0.00     0.048 C 
HETATM   10  C19         0      16.036  90.453 -28.910  1.00  0.00     0.096 C 
HETATM   11  C21         0      15.950  90.688 -27.565  1.00  0.00     0.084 C 
ENDROOT
BRANCH  10  12
HETATM   12  O20         0      14.853  90.252 -29.615  1.00  0.00    -0.359 OA
HETATM   13  H20         0      14.451  89.393 -29.574  1.00  0.00     0.218 HD
ENDBRANCH  10  12
BRANCH   4  14
HETATM   14  C5          0      15.958  91.710 -23.566  1.00  0.00     0.025 C 
HETATM   15  C6          0      15.038  91.416 -22.570  1.00  0.00     0.004 C 
HETATM   16  C7          0      15.494  91.399 -21.256  1.00  0.00     0.026 C 
HETATM   17  C8          0      16.787  91.792 -20.927  1.00  0.00     0.112 C 
HETATM   18  C10         0      17.388  92.639 -21.849  1.00  0.00     0.112 C 
HETATM   19  C12         0      16.971  92.575 -23.174  1.00  0.00     0.028 C 
BRANCH  17  20
HETATM   20  O9          0      17.463  91.199 -19.875  1.00  0.00    -0.357 OA
HETATM   21  H9          0      17.282  90.321 -19.560  1.00  0.00     0.218 HD
ENDBRANCH  17  20
BRANCH  18  22
HETATM   22  O11         0      18.598  93.210 -21.483  1.00  0.00    -0.357 OA
HETATM   23  H11         0      19.236  92.639 -21.070  1.00  0.00     0.218 HD
ENDBRANCH  18  22
ENDBRANCH   4  14
BRANCH   8  24
HETATM   24  O17         0      18.995  92.447 -29.545  1.00  0.00    -0.359 OA
HETATM   25  H17         0      18.731  93.358 -29.504  1.00  0.00     0.218 HD
ENDBRANCH   8  24
TORSDOF 5
ENDMDL
MODEL 8
REMARK VINA RESULT:      -1.5      5.028      7.336
REMARK  5 active torsions:
REMARK  status: ('A' for Active; 'I' for Inactive)
REMARK    1  A    between atoms: C4_4  and  C5_5 
REMARK    2  A    between atoms: C8_8  and  O9_9 
REMARK    3  A    between atoms: C10_11  and  O11_12 
REMARK    4  A    between atoms: C16_18  and  O17_19 
REMARK    5  A    between atoms: C19_22  and  O20_23 
ROOT
HETATM    1  O1          0      11.048  94.970 -21.939  1.00  0.00    -0.286 OA
HETATM    2  C2          0      11.484  93.964 -21.314  1.00  0.00     0.201 C 
HETATM    3  C3          0      12.835  93.688 -21.185  1.00  0.00     0.067 C 
HETATM    4  C4          0      13.286  92.520 -20.581  1.00  0.00     0.103 C 
HETATM    5  O13         0      12.396  91.668 -20.104  1.00  0.00    -0.307 OA
HETATM    6  C14         0      11.102  91.863 -20.233  1.00  0.00     0.107 C 
HETATM    7  C15         0      10.190  90.825 -20.107  1.00  0.00     0.049 C 
HETATM    8  C16         0       8.863  90.979 -20.493  1.00  0.00     0.093 C 
HETATM    9  C18         0       8.399  92.289 -20.487  1.00  0.00     0.048 C 
HETATM   10  C19         0       9.287  93.353 -20.564  1.00  0.00     0.096 C 
HETATM   11  C21         0      10.632  93.111 -20.630  1.00  0.00     0.084 C 
ENDROOT
BRANCH  10  12
HETATM   12  O20         0       8.826  94.595 -20.991  1.00  0.00    -0.359 OA
HETATM   13  H20         0       9.468  95.233 -21.280  1.00  0.00     0.218 HD
ENDBRANCH  10  12
BRANCH   4  14
HETATM   14  C5          0      14.594  92.013 -20.998  1.00  0.00     0.025 C 
HETATM   15  C6          0      14.863  91.599 -22.295  1.00  0.00     0.004 C 
HETATM   16  C7          0      16.114  91.901 -22.822  1.00  0.00     0.026 C 
HETATM   17  C8          0      17.114  92.476 -22.044  1.00  0.00     0.112 C 
HETATM   18  C10         0      16.979  92.264 -20.678  1.00  0.00     0.112 C 
HETATM   19  C12         0      15.706  92.048 -20.166  1.00  0.00     0.028 C 
BRANCH  17  20
HETATM   20  O9          0      18.026  93.355 -22.599  1.00  0.00    -0.357 OA
HETATM   21  H9          0      18.388  93.259 -23.473  1.00  0.00     0.218 HD
ENDBRANCH  17  20
BRANCH  18  22
HETATM   22  O11         0      18.043  92.651 -19.875  1.00  0.00    -0.357 OA
HETATM   23  H11         0      18.036  92.344 -18.975  1.00  0.00     0.218 HD
ENDBRANCH  18  22
ENDBRANCH   4  14
BRANCH   8  24
HETATM   24  O17         0       8.171  89.956 -21.150  1.00  0.00    -0.359 OA
HETATM   25  H17         0       7.637  89.330 -20.675  1.00  0.00     0.218 HD
ENDBRANCH   8  24
TORSDOF 5
ENDMDL
MODEL 9
REMARK VINA RESULT:      -1.4      2.215      6.645
REMARK  5 active torsions:
REMARK  status: ('A' for Active; 'I' for Inactive)
REMARK    1  A    between atoms: C4_4  and  C5_5 
REMARK    2  A    between atoms: C8_8  and  O9_9 
REMARK    3  A    between atoms: C10_11  and  O11_12 
REMARK    4  A    between atoms: C16_18  and  O17_19 
REMARK    5  A    between atoms: C19_22  and  O20_23 
ROOT
HETATM    1  O1          0      14.769  95.025 -27.513  1.00  0.00    -0.286 OA
HETATM    2  C2          0      15.255  94.075 -26.841  1.00  0.00     0.201 C 
HETATM    3  C3          0      14.871  93.804 -25.539  1.00  0.00     0.067 C 
HETATM    4  C4          0      15.495  92.816 -24.785  1.00  0.00     0.103 C 
HETATM    5  O13         0      16.464  92.111 -25.342  1.00  0.00    -0.307 OA
HETATM    6  C14         0      16.893  92.352 -26.561  1.00  0.00     0.107 C 
HETATM    7  C15         0      18.134  91.914 -27.000  1.00  0.00     0.049 C 
HETATM    8  C16         0      18.687  92.382 -28.186  1.00  0.00     0.093 C 
HETATM    9  C18         0      17.768  92.847 -29.119  1.00  0.00     0.048 C 
HETATM   10  C19         0      16.500  93.250 -28.720  1.00  0.00     0.096 C 
HETATM   11  C21         0      16.147  93.173 -27.401  1.00  0.00     0.084 C 
ENDROOT
BRANCH  10  12
HETATM   12  O20         0      15.766  94.098 -29.544  1.00  0.00    -0.359 OA
HETATM   13  H20         0      14.983  93.750 -29.955  1.00  0.00     0.218 HD
ENDBRANCH  10  12
BRANCH   4  14
HETATM   14  C5          0      15.488  92.978 -23.330  1.00  0.00     0.025 C 
HETATM   15  C6          0      14.649  93.870 -22.677  1.00  0.00     0.004 C 
HETATM   16  C7          0      14.099  93.467 -21.464  1.00  0.00     0.026 C 
HETATM   17  C8          0      14.473  92.275 -20.854  1.00  0.00     0.112 C 
HETATM   18  C10         0      15.721  91.797 -21.232  1.00  0.00     0.112 C 
HETATM   19  C12         0      16.210  92.146 -22.485  1.00  0.00     0.028 C 
BRANCH  17  20
HETATM   20  O9          0      13.566  91.548 -20.104  1.00  0.00    -0.357 OA
HETATM   21  H9          0      13.808  90.817 -19.547  1.00  0.00     0.218 HD
ENDBRANCH  17  20
BRANCH  18  22
HETATM   22  O11         0      16.223  90.719 -20.517  1.00  0.00    -0.357 OA
HETATM   23  H11         0      17.130  90.483 -20.676  1.00  0.00     0.218 HD
ENDBRANCH  18  22
ENDBRANCH   4  14
BRANCH   8  24
HETATM   24  O17         0      20.051  92.674 -28.289  1.00  0.00    -0.359 OA
HETATM   25  H17         0      20.380  93.561 -28.202  1.00  0.00     0.218 HD
ENDBRANCH   8  24
TORSDOF 5
ENDMDL
