MODEL 1
REMARK VINA RESULT:      -6.5      0.000      0.000
REMARK  5 active torsions:
REMARK  status: ('A' for Active; 'I' for Inactive)
REMARK    1  A    between atoms: C4_4  and  C5_5 
REMARK    2  A    between atoms: C8_8  and  O9_9 
REMARK    3  A    between atoms: C10_11  and  O11_12 
REMARK    4  A    between atoms: C16_18  and  O17_19 
REMARK    5  A    between atoms: C19_22  and  O20_23 
ROOT
HETATM    1  O1          0      12.098  82.817  14.338  1.00  0.00    -0.286 OA
HETATM    2  C2          0      12.170  81.661  13.840  1.00  0.00     0.201 C 
HETATM    3  C3          0      13.355  81.119  13.370  1.00  0.00     0.067 C 
HETATM    4  C4          0      13.389  79.884  12.733  1.00  0.00     0.103 C 
HETATM    5  O13         0      12.261  79.209  12.596  1.00  0.00    -0.307 OA
HETATM    6  C14         0      11.104  79.693  12.992  1.00  0.00     0.107 C 
HETATM    7  C15         0       9.901  79.199  12.509  1.00  0.00     0.049 C 
HETATM    8  C16         0       8.705  79.871  12.728  1.00  0.00     0.093 C 
HETATM    9  C18         0       8.693  80.701  13.842  1.00  0.00     0.048 C 
HETATM   10  C19         0       9.882  81.177  14.380  1.00  0.00     0.096 C 
HETATM   11  C21         0      11.075  80.811  13.819  1.00  0.00     0.084 C 
ENDROOT
BRANCH  10  12
HETATM   12  O20         0       9.859  82.314  15.181  1.00  0.00    -0.359 OA
HETATM   13  H20         0      10.113  83.140  14.789  1.00  0.00     0.218 HD
ENDBRANCH  10  12
BRANCH   4  14
HETATM   14  C5          0      14.467  79.657  11.769  1.00  0.00     0.025 C 
HETATM   15  C6          0      15.403  80.628  11.445  1.00  0.00     0.004 C 
HETATM   16  C7          0      16.717  80.216  11.244  1.00  0.00     0.026 C 
HETATM   17  C8          0      17.065  78.870  11.231  1.00  0.00     0.112 C 
HETATM   18  C10         0      16.022  78.004  10.929  1.00  0.00     0.112 C 
HETATM   19  C12         0      14.724  78.407  11.220  1.00  0.00     0.028 C 
BRANCH  17  20
HETATM   20  O9          0      18.300  78.452  11.695  1.00  0.00    -0.357 OA
HETATM   21  H9          0      18.633  77.569  11.587  1.00  0.00     0.218 HD
ENDBRANCH  17  20
BRANCH  18  22
HETATM   22  O11         0      16.351  76.673  10.718  1.00  0.00    -0.357 OA
HETATM   23  H11         0      15.962  76.248   9.962  1.00  0.00     0.218 HD
ENDBRANCH  18  22
ENDBRANCH   4  14
BRANCH   8  24
HETATM   24  O17         0       7.728  79.964  11.730  1.00  0.00    -0.359 OA
HETATM   25  H17         0       6.848  79.631  11.860  1.00  0.00     0.218 HD
ENDBRANCH   8  24
TORSDOF 5
ENDMDL
MODEL 2
REMARK VINA RESULT:      -6.2      1.631      6.768
REMARK  5 active torsions:
REMARK  status: ('A' for Active; 'I' for Inactive)
REMARK    1  A    between atoms: C4_4  and  C5_5 
REMARK    2  A    between atoms: C8_8  and  O9_9 
REMARK    3  A    between atoms: C10_11  and  O11_12 
REMARK    4  A    between atoms: C16_18  and  O17_19 
REMARK    5  A    between atoms: C19_22  and  O20_23 
ROOT
HETATM    1  O1          0      15.764  79.516  12.722  1.00  0.00    -0.286 OA
HETATM    2  C2          0      14.707  79.044  12.219  1.00  0.00     0.201 C 
HETATM    3  C3          0      13.456  79.588  12.454  1.00  0.00     0.067 C 
HETATM    4  C4          0      12.299  78.987  11.972  1.00  0.00     0.103 C 
HETATM    5  O13         0      12.408  77.881  11.257  1.00  0.00    -0.307 OA
HETATM    6  C14         0      13.568  77.303  11.036  1.00  0.00     0.107 C 
HETATM    7  C15         0      13.660  75.974  10.650  1.00  0.00     0.049 C 
HETATM    8  C16         0      14.876  75.300  10.666  1.00  0.00     0.093 C 
HETATM    9  C18         0      15.998  76.113  10.560  1.00  0.00     0.048 C 
HETATM   10  C19         0      15.929  77.458  10.893  1.00  0.00     0.096 C 
HETATM   11  C21         0      14.743  77.993  11.315  1.00  0.00     0.084 C 
ENDROOT
BRANCH  10  12
HETATM   12  O20         0      17.100  78.143  11.203  1.00  0.00    -0.359 OA
HETATM   13  H20         0      17.078  79.093  11.189  1.00  0.00     0.218 HD
ENDBRANCH  10  12
BRANCH   4  14
HETATM   14  C5          0      11.061  79.226  12.716  1.00  0.00     0.025 C 
HETATM   15  C6          0      11.040  79.484  14.079  1.00  0.00     0.004 C 
HETATM   16  C7          0      10.125  80.422  14.544  1.00  0.00     0.026 C 
HETATM   17  C8          0       9.170  80.987  13.706  1.00  0.00     0.112 C 
HETATM   18  C10         0       8.863  80.230  12.583  1.00  0.00     0.112 C 
HETATM   19  C12         0       9.829  79.361  12.089  1.00  0.00     0.028 C 
BRANCH  17  20
HETATM   20  O9          0       8.743  82.290  13.894  1.00  0.00    -0.357 OA
HETATM   21  H9          0       8.193  82.759  13.277  1.00  0.00     0.218 HD
ENDBRANCH  17  20
BRANCH  18  22
HETATM   22  O11         0       7.787  80.651  11.815  1.00  0.00    -0.357 OA
HETATM   23  H11         0       7.500  80.069  11.121  1.00  0.00     0.218 HD
ENDBRANCH  18  22
ENDBRANCH   4  14
BRANCH   8  24
HETATM   24  O17         0      14.968  73.971  11.094  1.00  0.00    -0.359 OA
HETATM   25  H17         0      14.973  73.248  10.478  1.00  0.00     0.218 HD
ENDBRANCH   8  24
TORSDOF 5
ENDMDL
MODEL 3
REMARK VINA RESULT:      -6.1      1.476      3.026
REMARK  5 active torsions:
REMARK  status: ('A' for Active; 'I' for Inactive)
REMARK    1  A    between atoms: C4_4  and  C5_5 
REMARK    2  A    between atoms: C8_8  and  O9_9 
REMARK    3  A    between atoms: C10_11  and  O11_12 
REMARK    4  A    between atoms: C16_18  and  O17_19 
REMARK    5  A    between atoms: C19_22  and  O20_23 
ROOT
HETATM    1  O1          0      10.105  78.361  11.509  1.00  0.00    -0.286 OA
HETATM    2  C2          0      10.889  79.280  11.872  1.00  0.00     0.201 C 
HETATM    3  C3          0      12.226  79.312  11.511  1.00  0.00     0.067 C 
HETATM    4  C4          0      13.092  80.280  12.008  1.00  0.00     0.103 C 
HETATM    5  O13         0      12.613  81.199  12.828  1.00  0.00    -0.307 OA
HETATM    6  C14         0      11.362  81.192  13.232  1.00  0.00     0.107 C 
HETATM    7  C15         0      10.957  81.879  14.367  1.00  0.00     0.049 C 
HETATM    8  C16         0       9.704  81.666  14.931  1.00  0.00     0.093 C 
HETATM    9  C18         0       8.740  81.185  14.054  1.00  0.00     0.048 C 
HETATM   10  C19         0       9.111  80.535  12.885  1.00  0.00     0.096 C 
HETATM   11  C21         0      10.437  80.379  12.586  1.00  0.00     0.084 C 
ENDROOT
BRANCH  10  12
HETATM   12  O20         0       8.197  79.696  12.254  1.00  0.00    -0.359 OA
HETATM   13  H20         0       8.338  78.759  12.314  1.00  0.00     0.218 HD
ENDBRANCH  10  12
BRANCH   4  14
HETATM   14  C5          0      14.510  79.929  12.093  1.00  0.00     0.025 C 
HETATM   15  C6          0      15.016  78.723  11.630  1.00  0.00     0.004 C 
HETATM   16  C7          0      16.259  78.741  11.006  1.00  0.00     0.026 C 
HETATM   17  C8          0      17.035  79.894  10.961  1.00  0.00     0.112 C 
HETATM   18  C10         0      16.755  80.821  11.957  1.00  0.00     0.112 C 
HETATM   19  C12         0      15.478  80.836  12.505  1.00  0.00     0.028 C 
BRANCH  17  20
HETATM   20  O9          0      17.855  80.155   9.877  1.00  0.00    -0.357 OA
HETATM   21  H9          0      17.964  79.562   9.143  1.00  0.00     0.218 HD
ENDBRANCH  17  20
BRANCH  18  22
HETATM   22  O11         0      17.622  81.898  12.074  1.00  0.00    -0.357 OA
HETATM   23  H11         0      18.302  81.977  11.415  1.00  0.00     0.218 HD
ENDBRANCH  18  22
ENDBRANCH   4  14
BRANCH   8  24
HETATM   24  O17         0       9.529  81.613  16.318  1.00  0.00    -0.359 OA
HETATM   25  H17         0       9.605  80.799  16.801  1.00  0.00     0.218 HD
ENDBRANCH   8  24
TORSDOF 5
ENDMDL
MODEL 4
REMARK VINA RESULT:      -6.1      0.934      1.205
REMARK  5 active torsions:
REMARK  status: ('A' for Active; 'I' for Inactive)
REMARK    1  A    between atoms: C4_4  and  C5_5 
REMARK    2  A    between atoms: C8_8  and  O9_9 
REMARK    3  A    between atoms: C10_11  and  O11_12 
REMARK    4  A    between atoms: C16_18  and  O17_19 
REMARK    5  A    between atoms: C19_22  and  O20_23 
ROOT
HETATM    1  O1          0      12.115  82.617  14.353  1.00  0.00    -0.286 OA
HETATM    2  C2          0      12.212  81.513  13.750  1.00  0.00     0.201 C 
HETATM    3  C3          0      13.390  81.076  13.170  1.00  0.00     0.067 C 
HETATM    4  C4          0      13.444  79.904  12.424  1.00  0.00     0.103 C 
HETATM    5  O13         0      12.343  79.187  12.288  1.00  0.00    -0.307 OA
HETATM    6  C14         0      11.190  79.576  12.785  1.00  0.00     0.107 C 
HETATM    7  C15         0       9.985  79.066  12.324  1.00  0.00     0.049 C 
HETATM    8  C16         0       8.773  79.655  12.665  1.00  0.00     0.093 C 
HETATM    9  C18         0       8.788  80.383  13.848  1.00  0.00     0.048 C 
HETATM   10  C19         0       9.982  80.869  14.363  1.00  0.00     0.096 C 
HETATM   11  C21         0      11.156  80.615  13.709  1.00  0.00     0.084 C 
ENDROOT
BRANCH  10  12
HETATM   12  O20         0       9.953  81.930  15.264  1.00  0.00    -0.359 OA
HETATM   13  H20         0      10.112  82.804  14.928  1.00  0.00     0.218 HD
ENDBRANCH  10  12
BRANCH   4  14
HETATM   14  C5          0      14.475  79.817  11.388  1.00  0.00     0.025 C 
HETATM   15  C6          0      14.529  80.683  10.306  1.00  0.00     0.004 C 
HETATM   16  C7          0      15.784  81.100   9.875  1.00  0.00     0.026 C 
HETATM   17  C8          0      16.952  80.571  10.413  1.00  0.00     0.112 C 
HETATM   18  C10         0      16.809  79.317  10.991  1.00  0.00     0.112 C 
HETATM   19  C12         0      15.562  78.958  11.490  1.00  0.00     0.028 C 
BRANCH  17  20
HETATM   20  O9          0      18.091  81.348  10.535  1.00  0.00    -0.357 OA
HETATM   21  H9          0      18.116  82.180  10.993  1.00  0.00     0.218 HD
ENDBRANCH  17  20
BRANCH  18  22
HETATM   22  O11         0      17.972  78.664  11.372  1.00  0.00    -0.357 OA
HETATM   23  H11         0      18.679  78.637  10.737  1.00  0.00     0.218 HD
ENDBRANCH  18  22
ENDBRANCH   4  14
BRANCH   8  24
HETATM   24  O17         0       7.738  79.786  11.733  1.00  0.00    -0.359 OA
HETATM   25  H17         0       6.854  80.009  11.997  1.00  0.00     0.218 HD
ENDBRANCH   8  24
TORSDOF 5
ENDMDL
MODEL 5
REMARK VINA RESULT:      -5.9      1.555      6.636
REMARK  5 active torsions:
REMARK  status: ('A' for Active; 'I' for Inactive)
REMARK    1  A    between atoms: C4_4  and  C5_5 
REMARK    2  A    between atoms: C8_8  and  O9_9 
REMARK    3  A    between atoms: C10_11  and  O11_12 
REMARK    4  A    between atoms: C16_18  and  O17_19 
REMARK    5  A    between atoms: C19_22  and  O20_23 
ROOT
HETATM    1  O1          0      15.398  82.492  13.337  1.00  0.00    -0.286 OA
HETATM    2  C2          0      14.892  81.486  12.768  1.00  0.00     0.201 C 
HETATM    3  C3          0      13.531  81.234  12.758  1.00  0.00     0.067 C 
HETATM    4  C4          0      13.010  80.066  12.214  1.00  0.00     0.103 C 
HETATM    5  O13         0      13.841  79.190  11.677  1.00  0.00    -0.307 OA
HETATM    6  C14         0      15.145  79.363  11.693  1.00  0.00     0.107 C 
HETATM    7  C15         0      16.024  78.306  11.508  1.00  0.00     0.049 C 
HETATM    8  C16         0      17.381  78.440  11.777  1.00  0.00     0.093 C 
HETATM    9  C18         0      17.867  79.740  11.711  1.00  0.00     0.048 C 
HETATM   10  C19         0      17.007  80.822  11.845  1.00  0.00     0.096 C 
HETATM   11  C21         0      15.668  80.607  12.028  1.00  0.00     0.084 C 
ENDROOT
BRANCH  10  12
HETATM   12  O20         0      17.524  82.061  12.212  1.00  0.00    -0.359 OA
HETATM   13  H20         0      17.358  82.800  11.639  1.00  0.00     0.218 HD
ENDBRANCH  10  12
BRANCH   4  14
HETATM   14  C5          0      11.733  79.589  12.747  1.00  0.00     0.025 C 
HETATM   15  C6          0      11.451  79.554  14.105  1.00  0.00     0.004 C 
HETATM   16  C7          0      10.161  79.886  14.505  1.00  0.00     0.026 C 
HETATM   17  C8          0       9.147  80.115  13.581  1.00  0.00     0.112 C 
HETATM   18  C10         0       9.348  79.523  12.341  1.00  0.00     0.112 C 
HETATM   19  C12         0      10.653  79.280  11.929  1.00  0.00     0.028 C 
BRANCH  17  20
HETATM   20  O9          0       8.146  81.034  13.840  1.00  0.00    -0.357 OA
HETATM   21  H9          0       7.306  81.040  13.395  1.00  0.00     0.218 HD
ENDBRANCH  17  20
BRANCH  18  22
HETATM   22  O11         0       8.287  79.560  11.447  1.00  0.00    -0.357 OA
HETATM   23  H11         0       7.779  78.764  11.351  1.00  0.00     0.218 HD
ENDBRANCH  18  22
ENDBRANCH   4  14
BRANCH   8  24
HETATM   24  O17         0      18.108  77.414  12.390  1.00  0.00    -0.359 OA
HETATM   25  H17         0      17.739  76.891  13.092  1.00  0.00     0.218 HD
ENDBRANCH   8  24
TORSDOF 5
ENDMDL
MODEL 6
REMARK VINA RESULT:      -5.4      2.816      6.783
REMARK  5 active torsions:
REMARK  status: ('A' for Active; 'I' for Inactive)
REMARK    1  A    between atoms: C4_4  and  C5_5 
REMARK    2  A    between atoms: C8_8  and  O9_9 
REMARK    3  A    between atoms: C10_11  and  O11_12 
REMARK    4  A    between atoms: C16_18  and  O17_19 
REMARK    5  A    between atoms: C19_22  and  O20_23 
ROOT
HETATM    1  O1          0      16.085  79.657  16.496  1.00  0.00    -0.286 OA
HETATM    2  C2          0      16.129  79.813  15.245  1.00  0.00     0.201 C 
HETATM    3  C3          0      15.097  80.388  14.523  1.00  0.00     0.067 C 
HETATM    4  C4          0      15.127  80.454  13.135  1.00  0.00     0.103 C 
HETATM    5  O13         0      16.180  79.972  12.499  1.00  0.00    -0.307 OA
HETATM    6  C14         0      17.170  79.381  13.133  1.00  0.00     0.107 C 
HETATM    7  C15         0      18.056  78.537  12.480  1.00  0.00     0.049 C 
HETATM    8  C16         0      18.932  77.724  13.187  1.00  0.00     0.093 C 
HETATM    9  C18         0      19.245  78.170  14.466  1.00  0.00     0.048 C 
HETATM   10  C19         0      18.404  79.052  15.130  1.00  0.00     0.096 C 
HETATM   11  C21         0      17.266  79.499  14.515  1.00  0.00     0.084 C 
ENDROOT
BRANCH  10  12
HETATM   12  O20         0      18.477  79.149  16.516  1.00  0.00    -0.359 OA
HETATM   13  H20         0      19.047  78.543  16.975  1.00  0.00     0.218 HD
ENDBRANCH  10  12
BRANCH   4  14
HETATM   14  C5          0      13.840  80.494  12.438  1.00  0.00     0.025 C 
HETATM   15  C6          0      13.693  80.129  11.108  1.00  0.00     0.004 C 
HETATM   16  C7          0      12.540  79.436  10.753  1.00  0.00     0.026 C 
HETATM   17  C8          0      11.506  79.229  11.659  1.00  0.00     0.112 C 
HETATM   18  C10         0      11.462  80.140  12.706  1.00  0.00     0.112 C 
HETATM   19  C12         0      12.645  80.755  13.097  1.00  0.00     0.028 C 
BRANCH  17  20
HETATM   20  O9          0      10.737  78.080  11.607  1.00  0.00    -0.357 OA
HETATM   21  H9          0      10.542  77.541  12.365  1.00  0.00     0.218 HD
ENDBRANCH  17  20
BRANCH  18  22
HETATM   22  O11         0      10.346  80.097  13.530  1.00  0.00    -0.357 OA
HETATM   23  H11         0      10.211  79.301  14.031  1.00  0.00     0.218 HD
ENDBRANCH  18  22
ENDBRANCH   4  14
BRANCH   8  24
HETATM   24  O17         0      19.200  76.412  12.780  1.00  0.00    -0.359 OA
HETATM   25  H17         0      18.859  76.063  11.966  1.00  0.00     0.218 HD
ENDBRANCH   8  24
TORSDOF 5
ENDMDL
MODEL 7
REMARK VINA RESULT:      -5.4      2.198      2.954
REMARK  5 active torsions:
REMARK  status: ('A' for Active; 'I' for Inactive)
REMARK    1  A    between atoms: C4_4  and  C5_5 
REMARK    2  A    between atoms: C8_8  and  O9_9 
REMARK    3  A    between atoms: C10_11  and  O11_12 
REMARK    4  A    between atoms: C16_18  and  O17_19 
REMARK    5  A    between atoms: C19_22  and  O20_23 
ROOT
HETATM    1  O1          0      13.030  80.063  16.105  1.00  0.00    -0.286 OA
HETATM    2  C2          0      12.187  79.968  15.172  1.00  0.00     0.201 C 
HETATM    3  C3          0      12.424  79.240  14.018  1.00  0.00     0.067 C 
HETATM    4  C4          0      11.521  79.236  12.961  1.00  0.00     0.103 C 
HETATM    5  O13         0      10.403  79.930  13.078  1.00  0.00    -0.307 OA
HETATM    6  C14         0      10.146  80.668  14.136  1.00  0.00     0.107 C 
HETATM    7  C15         0       9.205  81.687  14.106  1.00  0.00     0.049 C 
HETATM    8  C16         0       9.118  82.620  15.132  1.00  0.00     0.093 C 
HETATM    9  C18         0       9.605  82.188  16.360  1.00  0.00     0.048 C 
HETATM   10  C19         0      10.512  81.140  16.430  1.00  0.00     0.096 C 
HETATM   11  C21         0      10.918  80.515  15.283  1.00  0.00     0.084 C 
ENDROOT
BRANCH  10  12
HETATM   12  O20         0      11.308  81.004  17.564  1.00  0.00    -0.359 OA
HETATM   13  H20         0      11.985  81.654  17.713  1.00  0.00     0.218 HD
ENDBRANCH  10  12
BRANCH   4  14
HETATM   14  C5          0      12.059  78.986  11.622  1.00  0.00     0.025 C 
HETATM   15  C6          0      12.774  79.938  10.909  1.00  0.00     0.004 C 
HETATM   16  C7          0      13.855  79.498  10.153  1.00  0.00     0.026 C 
HETATM   17  C8          0      14.137  78.145  10.000  1.00  0.00     0.112 C 
HETATM   18  C10         0      13.052  77.301  10.198  1.00  0.00     0.112 C 
HETATM   19  C12         0      12.023  77.732  11.028  1.00  0.00     0.028 C 
BRANCH  17  20
HETATM   20  O9          0      15.442  77.702   9.875  1.00  0.00    -0.357 OA
HETATM   21  H9          0      15.897  77.629   9.044  1.00  0.00     0.218 HD
ENDBRANCH  17  20
BRANCH  18  22
HETATM   22  O11         0      13.229  75.964   9.875  1.00  0.00    -0.357 OA
HETATM   23  H11         0      12.705  75.620   9.161  1.00  0.00     0.218 HD
ENDBRANCH  18  22
ENDBRANCH   4  14
BRANCH   8  24
HETATM   24  O17         0       8.881  83.973  14.869  1.00  0.00    -0.359 OA
HETATM   25  H17         0       9.458  84.482  14.312  1.00  0.00     0.218 HD
ENDBRANCH   8  24
TORSDOF 5
ENDMDL
MODEL 8
REMARK VINA RESULT:      -5.3      2.067      2.563
REMARK  5 active torsions:
REMARK  status: ('A' for Active; 'I' for Inactive)
REMARK    1  A    between atoms: C4_4  and  C5_5 
REMARK    2  A    between atoms: C8_8  and  O9_9 
REMARK    3  A    between atoms: C10_11  and  O11_12 
REMARK    4  A    between atoms: C16_18  and  O17_19 
REMARK    5  A    between atoms: C19_22  and  O20_23 
ROOT
HETATM    1  O1          0      11.541  83.507  14.514  1.00  0.00    -0.286 OA
HETATM    2  C2          0      11.810  82.274  14.488  1.00  0.00     0.201 C 
HETATM    3  C3          0      13.082  81.778  14.719  1.00  0.00     0.067 C 
HETATM    4  C4          0      13.372  80.426  14.582  1.00  0.00     0.103 C 
HETATM    5  O13         0      12.399  79.599  14.244  1.00  0.00    -0.307 OA
HETATM    6  C14         0      11.183  80.022  13.977  1.00  0.00     0.107 C 
HETATM    7  C15         0      10.284  79.254  13.251  1.00  0.00     0.049 C 
HETATM    8  C16         0       9.105  79.797  12.755  1.00  0.00     0.093 C 
HETATM    9  C18         0       8.638  80.911  13.443  1.00  0.00     0.048 C 
HETATM   10  C19         0       9.501  81.676  14.216  1.00  0.00     0.096 C 
HETATM   11  C21         0      10.819  81.320  14.316  1.00  0.00     0.084 C 
ENDROOT
BRANCH  10  12
HETATM   12  O20         0       9.153  82.986  14.530  1.00  0.00    -0.359 OA
HETATM   13  H20         0       8.783  83.525  13.842  1.00  0.00     0.218 HD
ENDBRANCH  10  12
BRANCH   4  14
HETATM   14  C5          0      14.751  80.067  14.246  1.00  0.00     0.025 C 
HETATM   15  C6          0      15.177  79.861  12.941  1.00  0.00     0.004 C 
HETATM   16  C7          0      16.447  80.315  12.599  1.00  0.00     0.026 C 
HETATM   17  C8          0      17.317  80.835  13.551  1.00  0.00     0.112 C 
HETATM   18  C10         0      17.066  80.422  14.853  1.00  0.00     0.112 C 
HETATM   19  C12         0      15.769  80.055  15.190  1.00  0.00     0.028 C 
BRANCH  17  20
HETATM   20  O9          0      18.209  81.841  13.222  1.00  0.00    -0.357 OA
HETATM   21  H9          0      19.123  81.841  13.480  1.00  0.00     0.218 HD
ENDBRANCH  17  20
BRANCH  18  22
HETATM   22  O11         0      18.012  80.757  15.811  1.00  0.00    -0.357 OA
HETATM   23  H11         0      17.850  80.456  16.698  1.00  0.00     0.218 HD
ENDBRANCH  18  22
ENDBRANCH   4  14
BRANCH   8  24
HETATM   24  O17         0       8.626  79.463  11.484  1.00  0.00    -0.359 OA
HETATM   25  H17         0       8.973  78.724  10.998  1.00  0.00     0.218 HD
ENDBRANCH   8  24
TORSDOF 5
ENDMDL
MODEL 9
REMARK VINA RESULT:      -5.3      2.849      5.638
REMARK  5 active torsions:
REMARK  status: ('A' for Active; 'I' for Inactive)
REMARK    1  A    between atoms: C4_4  and  C5_5 
REMARK    2  A    between atoms: C8_8  and  O9_9 
REMARK    3  A    between atoms: C10_11  and  O11_12 
REMARK    4  A    between atoms: C16_18  and  O17_19 
REMARK    5  A    between atoms: C19_22  and  O20_23 
ROOT
HETATM    1  O1          0      13.786  79.880  16.254  1.00  0.00    -0.286 OA
HETATM    2  C2          0      13.911  80.392  15.107  1.00  0.00     0.201 C 
HETATM    3  C3          0      12.992  80.191  14.091  1.00  0.00     0.067 C 
HETATM    4  C4          0      13.206  80.682  12.808  1.00  0.00     0.103 C 
HETATM    5  O13         0      14.307  81.372  12.568  1.00  0.00    -0.307 OA
HETATM    6  C14         0      15.229  81.559  13.486  1.00  0.00     0.107 C 
HETATM    7  C15         0      16.528  81.916  13.155  1.00  0.00     0.049 C 
HETATM    8  C16         0      17.552  81.864  14.093  1.00  0.00     0.093 C 
HETATM    9  C18         0      17.142  81.966  15.417  1.00  0.00     0.048 C 
HETATM   10  C19         0      15.836  81.662  15.776  1.00  0.00     0.096 C 
HETATM   11  C21         0      14.941  81.274  14.816  1.00  0.00     0.084 C 
ENDROOT
BRANCH  10  12
HETATM   12  O20         0      15.550  81.345  17.100  1.00  0.00    -0.359 OA
HETATM   13  H20         0      16.090  81.736  17.777  1.00  0.00     0.218 HD
ENDBRANCH  10  12
BRANCH   4  14
HETATM   14  C5          0      12.568  79.965  11.702  1.00  0.00     0.025 C 
HETATM   15  C6          0      13.223  79.678  10.514  1.00  0.00     0.004 C 
HETATM   16  C7          0      12.968  78.447   9.918  1.00  0.00     0.026 C 
HETATM   17  C8          0      11.995  77.586  10.412  1.00  0.00     0.112 C 
HETATM   18  C10         0      11.002  78.202  11.162  1.00  0.00     0.112 C 
HETATM   19  C12         0      11.309  79.388  11.817  1.00  0.00     0.028 C 
BRANCH  17  20
HETATM   20  O9          0      12.152  76.214  10.324  1.00  0.00    -0.357 OA
HETATM   21  H9          0      11.448  75.615  10.102  1.00  0.00     0.218 HD
ENDBRANCH  17  20
BRANCH  18  22
HETATM   22  O11         0       9.909  77.424  11.518  1.00  0.00    -0.357 OA
HETATM   23  H11         0       9.611  76.784  10.882  1.00  0.00     0.218 HD
ENDBRANCH  18  22
ENDBRANCH   4  14
BRANCH   8  24
HETATM   24  O17         0      18.831  81.407  13.753  1.00  0.00    -0.359 OA
HETATM   25  H17         0      19.203  80.627  14.146  1.00  0.00     0.218 HD
ENDBRANCH   8  24
TORSDOF 5
ENDMDL
