MODEL 1
REMARK VINA RESULT:      -6.7      0.000      0.000
REMARK  5 active torsions:
REMARK  status: ('A' for Active; 'I' for Inactive)
REMARK    1  A    between atoms: C4_4  and  C5_5 
REMARK    2  A    between atoms: C8_8  and  O9_9 
REMARK    3  A    between atoms: C10_11  and  O11_12 
REMARK    4  A    between atoms: C16_18  and  O17_19 
REMARK    5  A    between atoms: C19_22  and  O20_23 
ROOT
HETATM    1  O1          0      43.774  67.534  12.708  1.00  0.00    -0.286 OA
HETATM    2  C2          0      44.380  67.074  11.702  1.00  0.00     0.201 C 
HETATM    3  C3          0      44.300  65.745  11.320  1.00  0.00     0.067 C 
HETATM    4  C4          0      45.058  65.242  10.269  1.00  0.00     0.103 C 
HETATM    5  O13         0      45.857  66.065   9.612  1.00  0.00    -0.307 OA
HETATM    6  C14         0      45.998  67.326   9.957  1.00  0.00     0.107 C 
HETATM    7  C15         0      47.094  68.075   9.554  1.00  0.00     0.049 C 
HETATM    8  C16         0      47.370  69.313  10.121  1.00  0.00     0.093 C 
HETATM    9  C18         0      46.272  69.966  10.668  1.00  0.00     0.048 C 
HETATM   10  C19         0      45.140  69.253  11.039  1.00  0.00     0.096 C 
HETATM   11  C21         0      45.099  67.898  10.849  1.00  0.00     0.084 C 
ENDROOT
BRANCH  10  12
HETATM   12  O20         0      44.255  69.810  11.957  1.00  0.00    -0.359 OA
HETATM   13  H20         0      44.490  69.781  12.876  1.00  0.00     0.218 HD
ENDBRANCH  10  12
BRANCH   4  14
HETATM   14  C5          0      45.390  63.817  10.305  1.00  0.00     0.025 C 
HETATM   15  C6          0      45.813  63.172  11.458  1.00  0.00     0.004 C 
HETATM   16  C7          0      45.356  61.876  11.676  1.00  0.00     0.026 C 
HETATM   17  C8          0      44.613  61.193  10.719  1.00  0.00     0.112 C 
HETATM   18  C10         0      44.787  61.648   9.418  1.00  0.00     0.112 C 
HETATM   19  C12         0      45.161  62.972   9.226  1.00  0.00     0.028 C 
BRANCH  17  20
HETATM   20  O9          0      43.636  60.288  11.093  1.00  0.00    -0.357 OA
HETATM   21  H9          0      43.799  59.362  11.230  1.00  0.00     0.218 HD
ENDBRANCH  17  20
BRANCH  18  22
HETATM   22  O11         0      44.220  60.887   8.406  1.00  0.00    -0.357 OA
HETATM   23  H11         0      44.375  61.174   7.513  1.00  0.00     0.218 HD
ENDBRANCH  18  22
ENDBRANCH   4  14
BRANCH   8  24
HETATM   24  O17         0      48.681  69.705  10.417  1.00  0.00    -0.359 OA
HETATM   25  H17         0      49.309  69.901   9.733  1.00  0.00     0.218 HD
ENDBRANCH   8  24
TORSDOF 5
ENDMDL
MODEL 2
REMARK VINA RESULT:      -6.6      1.668      2.183
REMARK  5 active torsions:
REMARK  status: ('A' for Active; 'I' for Inactive)
REMARK    1  A    between atoms: C4_4  and  C5_5 
REMARK    2  A    between atoms: C8_8  and  O9_9 
REMARK    3  A    between atoms: C10_11  and  O11_12 
REMARK    4  A    between atoms: C16_18  and  O17_19 
REMARK    5  A    between atoms: C19_22  and  O20_23 
ROOT
HETATM    1  O1          0      45.002  66.624  15.356  1.00  0.00    -0.286 OA
HETATM    2  C2          0      44.746  66.391  14.142  1.00  0.00     0.201 C 
HETATM    3  C3          0      44.682  65.110  13.621  1.00  0.00     0.067 C 
HETATM    4  C4          0      44.500  64.885  12.261  1.00  0.00     0.103 C 
HETATM    5  O13         0      44.365  65.925  11.458  1.00  0.00    -0.307 OA
HETATM    6  C14         0      44.455  67.162  11.896  1.00  0.00     0.107 C 
HETATM    7  C15         0      44.714  68.223  11.040  1.00  0.00     0.049 C 
HETATM    8  C16         0      45.058  69.477  11.529  1.00  0.00     0.093 C 
HETATM    9  C18         0      44.619  69.745  12.820  1.00  0.00     0.048 C 
HETATM   10  C19         0      44.307  68.707  13.688  1.00  0.00     0.096 C 
HETATM   11  C21         0      44.415  67.411  13.263  1.00  0.00     0.084 C 
ENDROOT
BRANCH  10  12
HETATM   12  O20         0      44.297  68.946  15.059  1.00  0.00    -0.359 OA
HETATM   13  H20         0      44.239  68.198  15.641  1.00  0.00     0.218 HD
ENDBRANCH  10  12
BRANCH   4  14
HETATM   14  C5          0      45.030  63.635  11.713  1.00  0.00     0.025 C 
HETATM   15  C6          0      45.587  62.642  12.505  1.00  0.00     0.004 C 
HETATM   16  C7          0      45.326  61.320  12.161  1.00  0.00     0.026 C 
HETATM   17  C8          0      44.647  60.991  10.993  1.00  0.00     0.112 C 
HETATM   18  C10         0      44.700  61.959   9.999  1.00  0.00     0.112 C 
HETATM   19  C12         0      44.877  63.285  10.377  1.00  0.00     0.028 C 
BRANCH  17  20
HETATM   20  O9          0      43.823  59.881  10.941  1.00  0.00    -0.357 OA
HETATM   21  H9          0      44.053  59.035  11.308  1.00  0.00     0.218 HD
ENDBRANCH  17  20
BRANCH  18  22
HETATM   22  O11         0      44.203  61.607   8.752  1.00  0.00    -0.357 OA
HETATM   23  H11         0      43.258  61.569   8.661  1.00  0.00     0.218 HD
ENDBRANCH  18  22
ENDBRANCH   4  14
BRANCH   8  24
HETATM   24  O17         0      46.043  70.256  10.911  1.00  0.00    -0.359 OA
HETATM   25  H17         0      45.954  70.552  10.013  1.00  0.00     0.218 HD
ENDBRANCH   8  24
TORSDOF 5
ENDMDL
MODEL 3
REMARK VINA RESULT:      -6.6      3.566      7.110
REMARK  5 active torsions:
REMARK  status: ('A' for Active; 'I' for Inactive)
REMARK    1  A    between atoms: C4_4  and  C5_5 
REMARK    2  A    between atoms: C8_8  and  O9_9 
REMARK    3  A    between atoms: C10_11  and  O11_12 
REMARK    4  A    between atoms: C16_18  and  O17_19 
REMARK    5  A    between atoms: C19_22  and  O20_23 
ROOT
HETATM    1  O1          0      45.257  62.248  12.998  1.00  0.00    -0.286 OA
HETATM    2  C2          0      46.107  62.222  12.065  1.00  0.00     0.201 C 
HETATM    3  C3          0      47.226  63.036  12.046  1.00  0.00     0.067 C 
HETATM    4  C4          0      48.091  63.061  10.959  1.00  0.00     0.103 C 
HETATM    5  O13         0      47.842  62.268   9.931  1.00  0.00    -0.307 OA
HETATM    6  C14         0      46.773  61.503   9.882  1.00  0.00     0.107 C 
HETATM    7  C15         0      46.296  60.990   8.685  1.00  0.00     0.049 C 
HETATM    8  C16         0      45.040  60.402   8.601  1.00  0.00     0.093 C 
HETATM    9  C18         0      44.551  59.889   9.796  1.00  0.00     0.048 C 
HETATM   10  C19         0      45.040  60.346  11.012  1.00  0.00     0.096 C 
HETATM   11  C21         0      46.022  61.298  11.034  1.00  0.00     0.084 C 
ENDROOT
BRANCH  10  12
HETATM   12  O20         0      44.276  60.171  12.162  1.00  0.00    -0.359 OA
HETATM   13  H20         0      43.794  59.358  12.257  1.00  0.00     0.218 HD
ENDBRANCH  10  12
BRANCH   4  14
HETATM   14  C5          0      48.845  64.295  10.730  1.00  0.00     0.025 C 
HETATM   15  C6          0      50.165  64.454  11.127  1.00  0.00     0.004 C 
HETATM   16  C7          0      51.012  65.160  10.278  1.00  0.00     0.026 C 
HETATM   17  C8          0      50.536  65.801   9.140  1.00  0.00     0.112 C 
HETATM   18  C10         0      49.185  66.118   9.176  1.00  0.00     0.112 C 
HETATM   19  C12         0      48.345  65.342   9.967  1.00  0.00     0.028 C 
BRANCH  17  20
HETATM   20  O9          0      51.320  65.906   8.005  1.00  0.00    -0.357 OA
HETATM   21  H9          0      51.566  66.733   7.607  1.00  0.00     0.218 HD
ENDBRANCH  17  20
BRANCH  18  22
HETATM   22  O11         0      48.701  66.922   8.154  1.00  0.00    -0.357 OA
HETATM   23  H11         0      48.662  66.538   7.285  1.00  0.00     0.218 HD
ENDBRANCH  18  22
ENDBRANCH   4  14
BRANCH   8  24
HETATM   24  O17         0      44.207  60.615   7.496  1.00  0.00    -0.359 OA
HETATM   25  H17         0      44.481  60.390   6.615  1.00  0.00     0.218 HD
ENDBRANCH   8  24
TORSDOF 5
ENDMDL
MODEL 4
REMARK VINA RESULT:      -6.5      2.081      2.921
REMARK  5 active torsions:
REMARK  status: ('A' for Active; 'I' for Inactive)
REMARK    1  A    between atoms: C4_4  and  C5_5 
REMARK    2  A    between atoms: C8_8  and  O9_9 
REMARK    3  A    between atoms: C10_11  and  O11_12 
REMARK    4  A    between atoms: C16_18  and  O17_19 
REMARK    5  A    between atoms: C19_22  and  O20_23 
ROOT
HETATM    1  O1          0      43.906  64.991  12.868  1.00  0.00    -0.286 OA
HETATM    2  C2          0      44.323  64.848  11.686  1.00  0.00     0.201 C 
HETATM    3  C3          0      44.447  63.610  11.079  1.00  0.00     0.067 C 
HETATM    4  C4          0      45.005  63.472   9.813  1.00  0.00     0.103 C 
HETATM    5  O13         0      45.404  64.557   9.173  1.00  0.00    -0.307 OA
HETATM    6  C14         0      45.343  65.752   9.719  1.00  0.00     0.107 C 
HETATM    7  C15         0      46.103  66.811   9.245  1.00  0.00     0.049 C 
HETATM    8  C16         0      46.230  67.990   9.971  1.00  0.00     0.093 C 
HETATM    9  C18         0      45.191  68.249  10.856  1.00  0.00     0.048 C 
HETATM   10  C19         0      44.381  67.219  11.314  1.00  0.00     0.096 C 
HETATM   11  C21         0      44.597  65.940  10.877  1.00  0.00     0.084 C 
ENDROOT
BRANCH  10  12
HETATM   12  O20         0      43.657  67.393  12.490  1.00  0.00    -0.359 OA
HETATM   13  H20         0      43.618  66.667  13.100  1.00  0.00     0.218 HD
ENDBRANCH  10  12
BRANCH   4  14
HETATM   14  C5          0      45.645  62.193   9.499  1.00  0.00     0.025 C 
HETATM   15  C6          0      45.070  61.251   8.659  1.00  0.00     0.004 C 
HETATM   16  C7          0      45.913  60.551   7.801  1.00  0.00     0.026 C 
HETATM   17  C8          0      47.296  60.685   7.869  1.00  0.00     0.112 C 
HETATM   18  C10         0      47.777  61.122   9.096  1.00  0.00     0.112 C 
HETATM   19  C12         0      46.941  61.892   9.896  1.00  0.00     0.028 C 
BRANCH  17  20
HETATM   20  O9          0      48.074  60.588   6.729  1.00  0.00    -0.357 OA
HETATM   21  H9          0      49.000  60.800   6.702  1.00  0.00     0.218 HD
ENDBRANCH  17  20
BRANCH  18  22
HETATM   22  O11         0      49.152  61.092   9.278  1.00  0.00    -0.357 OA
HETATM   23  H11         0      49.614  60.331   8.945  1.00  0.00     0.218 HD
ENDBRANCH  18  22
ENDBRANCH   4  14
BRANCH   8  24
HETATM   24  O17         0      47.451  68.669  10.050  1.00  0.00    -0.359 OA
HETATM   25  H17         0      48.281  68.214   9.980  1.00  0.00     0.218 HD
ENDBRANCH   8  24
TORSDOF 5
ENDMDL
MODEL 5
REMARK VINA RESULT:      -6.5      2.098      6.791
REMARK  5 active torsions:
REMARK  status: ('A' for Active; 'I' for Inactive)
REMARK    1  A    between atoms: C4_4  and  C5_5 
REMARK    2  A    between atoms: C8_8  and  O9_9 
REMARK    3  A    between atoms: C10_11  and  O11_12 
REMARK    4  A    between atoms: C16_18  and  O17_19 
REMARK    5  A    between atoms: C19_22  and  O20_23 
ROOT
HETATM    1  O1          0      48.768  63.237  10.748  1.00  0.00    -0.286 OA
HETATM    2  C2          0      47.637  63.781  10.612  1.00  0.00     0.201 C 
HETATM    3  C3          0      47.412  65.121  10.875  1.00  0.00     0.067 C 
HETATM    4  C4          0      46.136  65.671  10.817  1.00  0.00     0.103 C 
HETATM    5  O13         0      45.124  64.891  10.481  1.00  0.00    -0.307 OA
HETATM    6  C14         0      45.277  63.604  10.258  1.00  0.00     0.107 C 
HETATM    7  C15         0      44.206  62.723  10.303  1.00  0.00     0.049 C 
HETATM    8  C16         0      44.405  61.347  10.321  1.00  0.00     0.093 C 
HETATM    9  C18         0      45.607  60.920   9.770  1.00  0.00     0.048 C 
HETATM   10  C19         0      46.684  61.790   9.667  1.00  0.00     0.096 C 
HETATM   11  C21         0      46.556  63.083  10.095  1.00  0.00     0.084 C 
ENDROOT
BRANCH  10  12
HETATM   12  O20         0      47.968  61.271   9.535  1.00  0.00    -0.359 OA
HETATM   13  H20         0      48.488  61.551   8.792  1.00  0.00     0.218 HD
ENDBRANCH  10  12
BRANCH   4  14
HETATM   14  C5          0      45.875  66.846  11.650  1.00  0.00     0.025 C 
HETATM   15  C6          0      45.356  68.028  11.141  1.00  0.00     0.004 C 
HETATM   16  C7          0      44.436  68.718  11.924  1.00  0.00     0.026 C 
HETATM   17  C8          0      44.142  68.321  13.224  1.00  0.00     0.112 C 
HETATM   18  C10         0      45.132  67.565  13.837  1.00  0.00     0.112 C 
HETATM   19  C12         0      45.985  66.817  13.034  1.00  0.00     0.028 C 
BRANCH  17  20
HETATM   20  O9          0      42.875  68.500  13.750  1.00  0.00    -0.357 OA
HETATM   21  H9          0      42.196  69.015  13.329  1.00  0.00     0.218 HD
ENDBRANCH  17  20
BRANCH  18  22
HETATM   22  O11         0      44.975  67.304  15.191  1.00  0.00    -0.357 OA
HETATM   23  H11         0      45.728  67.459  15.749  1.00  0.00     0.218 HD
ENDBRANCH  18  22
ENDBRANCH   4  14
BRANCH   8  24
HETATM   24  O17         0      43.625  60.508  11.125  1.00  0.00    -0.359 OA
HETATM   25  H17         0      43.954  59.677  11.445  1.00  0.00     0.218 HD
ENDBRANCH   8  24
TORSDOF 5
ENDMDL
MODEL 6
REMARK VINA RESULT:      -6.3      2.501      6.446
REMARK  5 active torsions:
REMARK  status: ('A' for Active; 'I' for Inactive)
REMARK    1  A    between atoms: C4_4  and  C5_5 
REMARK    2  A    between atoms: C8_8  and  O9_9 
REMARK    3  A    between atoms: C10_11  and  O11_12 
REMARK    4  A    between atoms: C16_18  and  O17_19 
REMARK    5  A    between atoms: C19_22  and  O20_23 
ROOT
HETATM    1  O1          0      44.932  61.389   7.894  1.00  0.00    -0.286 OA
HETATM    2  C2          0      45.412  62.013   8.880  1.00  0.00     0.201 C 
HETATM    3  C3          0      44.668  62.899   9.642  1.00  0.00     0.067 C 
HETATM    4  C4          0      45.247  63.650  10.658  1.00  0.00     0.103 C 
HETATM    5  O13         0      46.535  63.494  10.908  1.00  0.00    -0.307 OA
HETATM    6  C14         0      47.294  62.695  10.191  1.00  0.00     0.107 C 
HETATM    7  C15         0      48.676  62.820  10.175  1.00  0.00     0.049 C 
HETATM    8  C16         0      49.450  62.153   9.233  1.00  0.00     0.093 C 
HETATM    9  C18         0      48.871  61.006   8.704  1.00  0.00     0.048 C 
HETATM   10  C19         0      47.495  60.827   8.745  1.00  0.00     0.096 C 
HETATM   11  C21         0      46.703  61.780   9.327  1.00  0.00     0.084 C 
ENDROOT
BRANCH  10  12
HETATM   12  O20         0      46.898  59.935   7.859  1.00  0.00    -0.359 OA
HETATM   13  H20         0      46.209  59.372   8.191  1.00  0.00     0.218 HD
ENDBRANCH  10  12
BRANCH   4  14
HETATM   14  C5          0      44.615  64.929  10.988  1.00  0.00     0.025 C 
HETATM   15  C6          0      43.959  65.156  12.190  1.00  0.00     0.004 C 
HETATM   16  C7          0      44.105  66.408  12.777  1.00  0.00     0.026 C 
HETATM   17  C8          0      44.767  67.445  12.129  1.00  0.00     0.112 C 
HETATM   18  C10         0      44.815  67.328  10.746  1.00  0.00     0.112 C 
HETATM   19  C12         0      44.753  66.056  10.189  1.00  0.00     0.028 C 
BRANCH  17  20
HETATM   20  O9          0      45.489  68.383  12.846  1.00  0.00    -0.357 OA
HETATM   21  H9          0      46.375  68.240  13.160  1.00  0.00     0.218 HD
ENDBRANCH  17  20
BRANCH  18  22
HETATM   22  O11         0      45.295  68.421  10.039  1.00  0.00    -0.357 OA
HETATM   23  H11         0      46.189  68.370   9.722  1.00  0.00     0.218 HD
ENDBRANCH  18  22
ENDBRANCH   4  14
BRANCH   8  24
HETATM   24  O17         0      50.553  62.766   8.630  1.00  0.00    -0.359 OA
HETATM   25  H17         0      50.787  62.595   7.725  1.00  0.00     0.218 HD
ENDBRANCH   8  24
TORSDOF 5
ENDMDL
MODEL 7
REMARK VINA RESULT:      -6.3      1.644      2.905
REMARK  5 active torsions:
REMARK  status: ('A' for Active; 'I' for Inactive)
REMARK    1  A    between atoms: C4_4  and  C5_5 
REMARK    2  A    between atoms: C8_8  and  O9_9 
REMARK    3  A    between atoms: C10_11  and  O11_12 
REMARK    4  A    between atoms: C16_18  and  O17_19 
REMARK    5  A    between atoms: C19_22  and  O20_23 
ROOT
HETATM    1  O1          0      46.233  68.680   9.127  1.00  0.00    -0.286 OA
HETATM    2  C2          0      46.186  67.770  10.000  1.00  0.00     0.201 C 
HETATM    3  C3          0      46.569  66.465   9.744  1.00  0.00     0.067 C 
HETATM    4  C4          0      46.411  65.460  10.692  1.00  0.00     0.103 C 
HETATM    5  O13         0      45.899  65.773  11.869  1.00  0.00    -0.307 OA
HETATM    6  C14         0      45.484  66.989  12.150  1.00  0.00     0.107 C 
HETATM    7  C15         0      44.603  67.238  13.193  1.00  0.00     0.049 C 
HETATM    8  C16         0      43.973  68.469  13.326  1.00  0.00     0.093 C 
HETATM    9  C18         0      44.640  69.537  12.738  1.00  0.00     0.048 C 
HETATM   10  C19         0      45.563  69.320  11.724  1.00  0.00     0.096 C 
HETATM   11  C21         0      45.831  68.043  11.312  1.00  0.00     0.084 C 
ENDROOT
BRANCH  10  12
HETATM   12  O20         0      45.888  70.365  10.865  1.00  0.00    -0.359 OA
HETATM   13  H20         0      46.756  70.371  10.479  1.00  0.00     0.218 HD
ENDBRANCH  10  12
BRANCH   4  14
HETATM   14  C5          0      46.255  64.091  10.197  1.00  0.00     0.025 C 
HETATM   15  C6          0      47.333  63.254   9.949  1.00  0.00     0.004 C 
HETATM   16  C7          0      47.191  61.908  10.274  1.00  0.00     0.026 C 
HETATM   17  C8          0      45.976  61.385  10.703  1.00  0.00     0.112 C 
HETATM   18  C10         0      44.861  62.117  10.318  1.00  0.00     0.112 C 
HETATM   19  C12         0      45.014  63.478  10.082  1.00  0.00     0.028 C 
BRANCH  17  20
HETATM   20  O9          0      45.935  60.345  11.615  1.00  0.00    -0.357 OA
HETATM   21  H9          0      46.164  59.447  11.402  1.00  0.00     0.218 HD
ENDBRANCH  17  20
BRANCH  18  22
HETATM   22  O11         0      43.620  61.544  10.555  1.00  0.00    -0.357 OA
HETATM   23  H11         0      43.151  61.838  11.327  1.00  0.00     0.218 HD
ENDBRANCH  18  22
ENDBRANCH   4  14
BRANCH   8  24
HETATM   24  O17         0      42.632  68.564  13.716  1.00  0.00    -0.359 OA
HETATM   25  H17         0      42.385  68.719  14.620  1.00  0.00     0.218 HD
ENDBRANCH   8  24
TORSDOF 5
ENDMDL
MODEL 8
REMARK VINA RESULT:      -6.2      1.878      6.762
REMARK  5 active torsions:
REMARK  status: ('A' for Active; 'I' for Inactive)
REMARK    1  A    between atoms: C4_4  and  C5_5 
REMARK    2  A    between atoms: C8_8  and  O9_9 
REMARK    3  A    between atoms: C10_11  and  O11_12 
REMARK    4  A    between atoms: C16_18  and  O17_19 
REMARK    5  A    between atoms: C19_22  and  O20_23 
ROOT
HETATM    1  O1          0      46.337  63.057  13.704  1.00  0.00    -0.286 OA
HETATM    2  C2          0      46.163  63.797  12.698  1.00  0.00     0.201 C 
HETATM    3  C3          0      45.941  65.160  12.797  1.00  0.00     0.067 C 
HETATM    4  C4          0      45.649  65.934  11.680  1.00  0.00     0.103 C 
HETATM    5  O13         0      45.605  65.349  10.496  1.00  0.00    -0.307 OA
HETATM    6  C14         0      45.771  64.053  10.351  1.00  0.00     0.107 C 
HETATM    7  C15         0      45.340  63.384   9.214  1.00  0.00     0.049 C 
HETATM    8  C16         0      45.284  61.996   9.171  1.00  0.00     0.093 C 
HETATM    9  C18         0      46.142  61.347  10.050  1.00  0.00     0.048 C 
HETATM   10  C19         0      46.629  62.002  11.173  1.00  0.00     0.096 C 
HETATM   11  C21         0      46.276  63.303  11.407  1.00  0.00     0.084 C 
ENDROOT
BRANCH  10  12
HETATM   12  O20         0      47.105  61.253  12.245  1.00  0.00    -0.359 OA
HETATM   13  H20         0      47.185  61.682  13.088  1.00  0.00     0.218 HD
ENDBRANCH  10  12
BRANCH   4  14
HETATM   14  C5          0      44.863  67.151  11.895  1.00  0.00     0.025 C 
HETATM   15  C6          0      43.925  67.270  12.910  1.00  0.00     0.004 C 
HETATM   16  C7          0      43.833  68.496  13.562  1.00  0.00     0.026 C 
HETATM   17  C8          0      44.552  69.607  13.132  1.00  0.00     0.112 C 
HETATM   18  C10         0      44.936  69.567  11.798  1.00  0.00     0.112 C 
HETATM   19  C12         0      45.104  68.326  11.195  1.00  0.00     0.028 C 
BRANCH  17  20
HETATM   20  O9          0      45.010  70.548  14.036  1.00  0.00    -0.357 OA
HETATM   21  H9          0      44.558  71.363  14.224  1.00  0.00     0.218 HD
ENDBRANCH  17  20
BRANCH  18  22
HETATM   22  O11         0      45.488  70.725  11.269  1.00  0.00    -0.357 OA
HETATM   23  H11         0      45.245  70.950  10.378  1.00  0.00     0.218 HD
ENDBRANCH  18  22
ENDBRANCH   4  14
BRANCH   8  24
HETATM   24  O17         0      44.223  61.328   8.549  1.00  0.00    -0.359 OA
HETATM   25  H17         0      43.454  61.054   9.033  1.00  0.00     0.218 HD
ENDBRANCH   8  24
TORSDOF 5
ENDMDL
MODEL 9
REMARK VINA RESULT:      -6.2      4.453      6.588
REMARK  5 active torsions:
REMARK  status: ('A' for Active; 'I' for Inactive)
REMARK    1  A    between atoms: C4_4  and  C5_5 
REMARK    2  A    between atoms: C8_8  and  O9_9 
REMARK    3  A    between atoms: C10_11  and  O11_12 
REMARK    4  A    between atoms: C16_18  and  O17_19 
REMARK    5  A    between atoms: C19_22  and  O20_23 
ROOT
HETATM    1  O1          0      45.351  66.803  11.678  1.00  0.00    -0.286 OA
HETATM    2  C2          0      45.354  65.787  12.426  1.00  0.00     0.201 C 
HETATM    3  C3          0      45.202  65.865  13.800  1.00  0.00     0.067 C 
HETATM    4  C4          0      45.313  64.741  14.610  1.00  0.00     0.103 C 
HETATM    5  O13         0      45.549  63.571  14.044  1.00  0.00    -0.307 OA
HETATM    6  C14         0      45.738  63.446  12.748  1.00  0.00     0.107 C 
HETATM    7  C15         0      46.367  62.336  12.204  1.00  0.00     0.049 C 
HETATM    8  C16         0      46.791  62.322  10.881  1.00  0.00     0.093 C 
HETATM    9  C18         0      46.110  63.191  10.038  1.00  0.00     0.048 C 
HETATM   10  C19         0      45.431  64.287  10.553  1.00  0.00     0.096 C 
HETATM   11  C21         0      45.418  64.504  11.904  1.00  0.00     0.084 C 
ENDROOT
BRANCH  10  12
HETATM   12  O20         0      45.137  65.360   9.717  1.00  0.00    -0.359 OA
HETATM   13  H20         0      45.799  65.633   9.094  1.00  0.00     0.218 HD
ENDBRANCH  10  12
BRANCH   4  14
HETATM   14  C5          0      45.740  64.952  15.994  1.00  0.00     0.025 C 
HETATM   15  C6          0      45.709  66.196  16.609  1.00  0.00     0.004 C 
HETATM   16  C7          0      45.334  66.243  17.948  1.00  0.00     0.026 C 
HETATM   17  C8          0      45.128  65.085  18.690  1.00  0.00     0.112 C 
HETATM   18  C10         0      45.779  63.960  18.201  1.00  0.00     0.112 C 
HETATM   19  C12         0      46.066  63.901  16.842  1.00  0.00     0.028 C 
BRANCH  17  20
HETATM   20  O9          0      44.179  65.047  19.696  1.00  0.00    -0.357 OA
HETATM   21  H9          0      43.510  65.710  19.816  1.00  0.00     0.218 HD
ENDBRANCH  17  20
BRANCH  18  22
HETATM   22  O11         0      45.762  62.827  19.001  1.00  0.00    -0.357 OA
HETATM   23  H11         0      46.106  62.918  19.883  1.00  0.00     0.218 HD
ENDBRANCH  18  22
ENDBRANCH   4  14
BRANCH   8  24
HETATM   24  O17         0      48.011  61.743  10.512  1.00  0.00    -0.359 OA
HETATM   25  H17         0      48.065  61.091   9.824  1.00  0.00     0.218 HD
ENDBRANCH   8  24
TORSDOF 5
ENDMDL
