MODEL 1
REMARK VINA RESULT:      -0.0      0.000      0.000
REMARK  5 active torsions:
REMARK  status: ('A' for Active; 'I' for Inactive)
REMARK    1  A    between atoms: C4_4  and  C5_5 
REMARK    2  A    between atoms: C8_8  and  O9_9 
REMARK    3  A    between atoms: C10_11  and  O11_12 
REMARK    4  A    between atoms: C16_18  and  O17_19 
REMARK    5  A    between atoms: C19_22  and  O20_23 
ROOT
HETATM    1  O1          0      67.049 122.380 -23.642  1.00  0.00    -0.286 OA
HETATM    2  C2          0      67.345 122.024 -24.815  1.00  0.00     0.201 C 
HETATM    3  C3          0      67.044 122.788 -25.930  1.00  0.00     0.067 C 
HETATM    4  C4          0      67.288 122.325 -27.218  1.00  0.00     0.103 C 
HETATM    5  O13         0      67.840 121.134 -27.370  1.00  0.00    -0.307 OA
HETATM    6  C14         0      68.112 120.353 -26.348  1.00  0.00     0.107 C 
HETATM    7  C15         0      68.306 118.988 -26.502  1.00  0.00     0.049 C 
HETATM    8  C16         0      68.338 118.135 -25.405  1.00  0.00     0.093 C 
HETATM    9  C18         0      68.698 118.736 -24.205  1.00  0.00     0.048 C 
HETATM   10  C19         0      68.561 120.107 -24.033  1.00  0.00     0.096 C 
HETATM   11  C21         0      68.083 120.875 -25.059  1.00  0.00     0.084 C 
ENDROOT
BRANCH  10  12
HETATM   12  O20         0      68.499 120.628 -22.744  1.00  0.00    -0.359 OA
HETATM   13  H20         0      69.075 121.352 -22.529  1.00  0.00     0.218 HD
ENDBRANCH  10  12
BRANCH   4  14
HETATM   14  C5          0      66.443 122.853 -28.291  1.00  0.00     0.025 C 
HETATM   15  C6          0      66.182 122.149 -29.458  1.00  0.00     0.004 C 
HETATM   16  C7          0      64.901 122.239 -29.992  1.00  0.00     0.026 C 
HETATM   17  C8          0      63.949 123.104 -29.463  1.00  0.00     0.112 C 
HETATM   18  C10         0      64.472 124.177 -28.753  1.00  0.00     0.112 C 
HETATM   19  C12         0      65.719 124.030 -28.157  1.00  0.00     0.028 C 
BRANCH  17  20
HETATM   20  O9          0      62.606 122.775 -29.479  1.00  0.00    -0.357 OA
HETATM   21  H9          0      61.914 123.366 -29.204  1.00  0.00     0.218 HD
ENDBRANCH  17  20
BRANCH  18  22
HETATM   22  O11         0      63.581 125.168 -28.367  1.00  0.00    -0.357 OA
HETATM   23  H11         0      63.504 125.338 -27.435  1.00  0.00     0.218 HD
ENDBRANCH  18  22
ENDBRANCH   4  14
BRANCH   8  24
HETATM   24  O17         0      67.734 116.874 -25.444  1.00  0.00    -0.359 OA
HETATM   25  H17         0      67.703 116.360 -26.243  1.00  0.00     0.218 HD
ENDBRANCH   8  24
TORSDOF 5
ENDMDL
MODEL 2
REMARK VINA RESULT:      -0.0      3.845      7.245
REMARK  5 active torsions:
REMARK  status: ('A' for Active; 'I' for Inactive)
REMARK    1  A    between atoms: C4_4  and  C5_5 
REMARK    2  A    between atoms: C8_8  and  O9_9 
REMARK    3  A    between atoms: C10_11  and  O11_12 
REMARK    4  A    between atoms: C16_18  and  O17_19 
REMARK    5  A    between atoms: C19_22  and  O20_23 
ROOT
HETATM    1  O1          0      66.983 119.717 -27.549  1.00  0.00    -0.286 OA
HETATM    2  C2          0      66.874 119.105 -26.452  1.00  0.00     0.201 C 
HETATM    3  C3          0      67.673 119.380 -25.356  1.00  0.00     0.067 C 
HETATM    4  C4          0      67.602 118.622 -24.193  1.00  0.00     0.103 C 
HETATM    5  O13         0      66.731 117.629 -24.135  1.00  0.00    -0.307 OA
HETATM    6  C14         0      65.975 117.302 -25.160  1.00  0.00     0.107 C 
HETATM    7  C15         0      65.372 116.056 -25.254  1.00  0.00     0.049 C 
HETATM    8  C16         0      64.792 115.624 -26.441  1.00  0.00     0.093 C 
HETATM    9  C18         0      64.381 116.638 -27.297  1.00  0.00     0.048 C 
HETATM   10  C19         0      64.930 117.909 -27.199  1.00  0.00     0.096 C 
HETATM   11  C21         0      65.871 118.171 -26.241  1.00  0.00     0.084 C 
ENDROOT
BRANCH  10  12
HETATM   12  O20         0      64.855 118.769 -28.291  1.00  0.00    -0.359 OA
HETATM   13  H20         0      65.668 119.035 -28.704  1.00  0.00     0.218 HD
ENDBRANCH  10  12
BRANCH   4  14
HETATM   14  C5          0      68.806 118.553 -23.363  1.00  0.00     0.025 C 
HETATM   15  C6          0      69.083 117.481 -22.527  1.00  0.00     0.004 C 
HETATM   16  C7          0      70.407 117.065 -22.430  1.00  0.00     0.026 C 
HETATM   17  C8          0      71.440 117.772 -23.035  1.00  0.00     0.112 C 
HETATM   18  C10         0      71.159 119.109 -23.284  1.00  0.00     0.112 C 
HETATM   19  C12         0      69.833 119.483 -23.462  1.00  0.00     0.028 C 
BRANCH  17  20
HETATM   20  O9          0      72.555 117.117 -23.527  1.00  0.00    -0.357 OA
HETATM   21  H9          0      73.010 116.426 -23.060  1.00  0.00     0.218 HD
ENDBRANCH  17  20
BRANCH  18  22
HETATM   22  O11         0      72.214 119.904 -23.711  1.00  0.00    -0.357 OA
HETATM   23  H11         0      72.863 119.493 -24.270  1.00  0.00     0.218 HD
ENDBRANCH  18  22
ENDBRANCH   4  14
BRANCH   8  24
HETATM   24  O17         0      64.923 114.301 -26.877  1.00  0.00    -0.359 OA
HETATM   25  H17         0      64.166 113.768 -27.090  1.00  0.00     0.218 HD
ENDBRANCH   8  24
TORSDOF 5
ENDMDL
MODEL 3
REMARK VINA RESULT:      -0.0      4.629      5.862
REMARK  5 active torsions:
REMARK  status: ('A' for Active; 'I' for Inactive)
REMARK    1  A    between atoms: C4_4  and  C5_5 
REMARK    2  A    between atoms: C8_8  and  O9_9 
REMARK    3  A    between atoms: C10_11  and  O11_12 
REMARK    4  A    between atoms: C16_18  and  O17_19 
REMARK    5  A    between atoms: C19_22  and  O20_23 
ROOT
HETATM    1  O1          0      68.105 117.727 -28.380  1.00  0.00    -0.286 OA
HETATM    2  C2          0      67.722 117.189 -27.306  1.00  0.00     0.201 C 
HETATM    3  C3          0      66.418 117.273 -26.848  1.00  0.00     0.067 C 
HETATM    4  C4          0      66.046 116.759 -25.611  1.00  0.00     0.103 C 
HETATM    5  O13         0      66.962 116.159 -24.871  1.00  0.00    -0.307 OA
HETATM    6  C14         0      68.222 116.085 -25.241  1.00  0.00     0.107 C 
HETATM    7  C15         0      69.238 115.832 -24.332  1.00  0.00     0.049 C 
HETATM    8  C16         0      70.574 116.006 -24.674  1.00  0.00     0.093 C 
HETATM    9  C18         0      70.847 115.914 -26.034  1.00  0.00     0.048 C 
HETATM   10  C19         0      69.843 116.115 -26.971  1.00  0.00     0.096 C 
HETATM   11  C21         0      68.570 116.390 -26.553  1.00  0.00     0.084 C 
ENDROOT
BRANCH  10  12
HETATM   12  O20         0      70.189 116.452 -28.276  1.00  0.00    -0.359 OA
HETATM   13  H20         0      70.993 116.938 -28.412  1.00  0.00     0.218 HD
ENDBRANCH  10  12
BRANCH   4  14
HETATM   14  C5          0      64.898 117.378 -24.946  1.00  0.00     0.025 C 
HETATM   15  C6          0      64.736 117.377 -23.568  1.00  0.00     0.004 C 
HETATM   16  C7          0      64.211 118.523 -22.980  1.00  0.00     0.026 C 
HETATM   17  C8          0      63.736 119.583 -23.745  1.00  0.00     0.112 C 
HETATM   18  C10         0      63.359 119.242 -25.038  1.00  0.00     0.112 C 
HETATM   19  C12         0      63.963 118.141 -25.633  1.00  0.00     0.028 C 
BRANCH  17  20
HETATM   20  O9          0      63.846 120.887 -23.296  1.00  0.00    -0.357 OA
HETATM   21  H9          0      63.188 121.319 -22.763  1.00  0.00     0.218 HD
ENDBRANCH  17  20
BRANCH  18  22
HETATM   22  O11         0      62.705 120.216 -25.779  1.00  0.00    -0.357 OA
HETATM   23  H11         0      62.265 120.904 -25.292  1.00  0.00     0.218 HD
ENDBRANCH  18  22
ENDBRANCH   4  14
BRANCH   8  24
HETATM   24  O17         0      71.491 116.560 -23.775  1.00  0.00    -0.359 OA
HETATM   25  H17         0      72.423 116.570 -23.956  1.00  0.00     0.218 HD
ENDBRANCH   8  24
TORSDOF 5
ENDMDL
MODEL 4
REMARK VINA RESULT:       0.0      4.056      5.885
REMARK  5 active torsions:
REMARK  status: ('A' for Active; 'I' for Inactive)
REMARK    1  A    between atoms: C4_4  and  C5_5 
REMARK    2  A    between atoms: C8_8  and  O9_9 
REMARK    3  A    between atoms: C10_11  and  O11_12 
REMARK    4  A    between atoms: C16_18  and  O17_19 
REMARK    5  A    between atoms: C19_22  and  O20_23 
ROOT
HETATM    1  O1          0      69.541 121.573 -29.243  1.00  0.00    -0.286 OA
HETATM    2  C2          0      68.805 122.483 -29.713  1.00  0.00     0.201 C 
HETATM    3  C3          0      68.336 123.538 -28.950  1.00  0.00     0.067 C 
HETATM    4  C4          0      67.444 124.471 -29.467  1.00  0.00     0.103 C 
HETATM    5  O13         0      67.056 124.350 -30.724  1.00  0.00    -0.307 OA
HETATM    6  C14         0      67.441 123.346 -31.480  1.00  0.00     0.107 C 
HETATM    7  C15         0      66.750 122.989 -32.629  1.00  0.00     0.049 C 
HETATM    8  C16         0      67.002 121.787 -33.280  1.00  0.00     0.093 C 
HETATM    9  C18         0      68.269 121.257 -33.063  1.00  0.00     0.048 C 
HETATM   10  C19         0      69.007 121.628 -31.948  1.00  0.00     0.096 C 
HETATM   11  C21         0      68.491 122.535 -31.063  1.00  0.00     0.084 C 
ENDROOT
BRANCH  10  12
HETATM   12  O20         0      70.038 120.803 -31.509  1.00  0.00    -0.359 OA
HETATM   13  H20         0      69.809 120.043 -30.988  1.00  0.00     0.218 HD
ENDBRANCH  10  12
BRANCH   4  14
HETATM   14  C5          0      66.558 125.147 -28.517  1.00  0.00     0.025 C 
HETATM   15  C6          0      65.317 125.653 -28.877  1.00  0.00     0.004 C 
HETATM   16  C7          0      64.279 125.525 -27.960  1.00  0.00     0.026 C 
HETATM   17  C8          0      64.495 125.033 -26.677  1.00  0.00     0.112 C 
HETATM   18  C10         0      65.800 125.159 -26.220  1.00  0.00     0.112 C 
HETATM   19  C12         0      66.827 125.200 -27.156  1.00  0.00     0.028 C 
BRANCH  17  20
HETATM   20  O9          0      63.522 124.294 -26.028  1.00  0.00    -0.357 OA
HETATM   21  H9          0      63.434 124.251 -25.083  1.00  0.00     0.218 HD
ENDBRANCH  17  20
BRANCH  18  22
HETATM   22  O11         0      66.030 124.859 -24.885  1.00  0.00    -0.357 OA
HETATM   23  H11         0      65.273 124.852 -24.309  1.00  0.00     0.218 HD
ENDBRANCH  18  22
ENDBRANCH   4  14
BRANCH   8  24
HETATM   24  O17         0      65.965 121.018 -33.819  1.00  0.00    -0.359 OA
HETATM   25  H17         0      65.288 120.638 -33.271  1.00  0.00     0.218 HD
ENDBRANCH   8  24
TORSDOF 5
ENDMDL
MODEL 5
REMARK VINA RESULT:       0.0      8.594     10.309
REMARK  5 active torsions:
REMARK  status: ('A' for Active; 'I' for Inactive)
REMARK    1  A    between atoms: C4_4  and  C5_5 
REMARK    2  A    between atoms: C8_8  and  O9_9 
REMARK    3  A    between atoms: C10_11  and  O11_12 
REMARK    4  A    between atoms: C16_18  and  O17_19 
REMARK    5  A    between atoms: C19_22  and  O20_23 
ROOT
HETATM    1  O1          0      77.301 121.149 -32.236  1.00  0.00    -0.286 OA
HETATM    2  C2          0      76.551 120.426 -31.524  1.00  0.00     0.201 C 
HETATM    3  C3          0      75.916 119.296 -32.009  1.00  0.00     0.067 C 
HETATM    4  C4          0      75.015 118.577 -31.233  1.00  0.00     0.103 C 
HETATM    5  O13         0      74.781 118.978 -29.996  1.00  0.00    -0.307 OA
HETATM    6  C14         0      75.329 120.065 -29.498  1.00  0.00     0.107 C 
HETATM    7  C15         0      74.802 120.705 -28.386  1.00  0.00     0.049 C 
HETATM    8  C16         0      75.222 121.978 -28.020  1.00  0.00     0.093 C 
HETATM    9  C18         0      76.495 122.325 -28.457  1.00  0.00     0.048 C 
HETATM   10  C19         0      77.071 121.672 -29.538  1.00  0.00     0.096 C 
HETATM   11  C21         0      76.388 120.668 -30.168  1.00  0.00     0.084 C 
ENDROOT
BRANCH  10  12
HETATM   12  O20         0      78.110 122.288 -30.230  1.00  0.00    -0.359 OA
HETATM   13  H20         0      78.440 121.860 -31.011  1.00  0.00     0.218 HD
ENDBRANCH  10  12
BRANCH   4  14
HETATM   14  C5          0      73.976 117.823 -31.938  1.00  0.00     0.025 C 
HETATM   15  C6          0      72.747 117.525 -31.369  1.00  0.00     0.004 C 
HETATM   16  C7          0      71.626 117.579 -32.191  1.00  0.00     0.026 C 
HETATM   17  C8          0      71.736 117.789 -33.561  1.00  0.00     0.112 C 
HETATM   18  C10         0      72.966 117.445 -34.104  1.00  0.00     0.112 C 
HETATM   19  C12         0      74.085 117.482 -33.280  1.00  0.00     0.028 C 
BRANCH  17  20
HETATM   20  O9          0      70.759 118.483 -34.252  1.00  0.00    -0.357 OA
HETATM   21  H9          0      70.852 119.386 -34.535  1.00  0.00     0.218 HD
ENDBRANCH  17  20
BRANCH  18  22
HETATM   22  O11         0      73.069 117.455 -35.488  1.00  0.00    -0.357 OA
HETATM   23  H11         0      72.273 117.286 -35.979  1.00  0.00     0.218 HD
ENDBRANCH  18  22
ENDBRANCH   4  14
BRANCH   8  24
HETATM   24  O17         0      74.318 122.939 -27.553  1.00  0.00    -0.359 OA
HETATM   25  H17         0      73.705 123.372 -28.135  1.00  0.00     0.218 HD
ENDBRANCH   8  24
TORSDOF 5
ENDMDL
MODEL 6
REMARK VINA RESULT:       0.0      4.181      7.112
REMARK  5 active torsions:
REMARK  status: ('A' for Active; 'I' for Inactive)
REMARK    1  A    between atoms: C4_4  and  C5_5 
REMARK    2  A    between atoms: C8_8  and  O9_9 
REMARK    3  A    between atoms: C10_11  and  O11_12 
REMARK    4  A    between atoms: C16_18  and  O17_19 
REMARK    5  A    between atoms: C19_22  and  O20_23 
ROOT
HETATM    1  O1          0      64.531 120.161 -26.456  1.00  0.00    -0.286 OA
HETATM    2  C2          0      65.059 119.330 -25.667  1.00  0.00     0.201 C 
HETATM    3  C3          0      65.606 118.132 -26.094  1.00  0.00     0.067 C 
HETATM    4  C4          0      66.089 117.190 -25.193  1.00  0.00     0.103 C 
HETATM    5  O13         0      66.037 117.462 -23.901  1.00  0.00    -0.307 OA
HETATM    6  C14         0      65.493 118.567 -23.440  1.00  0.00     0.107 C 
HETATM    7  C15         0      65.076 118.682 -22.122  1.00  0.00     0.049 C 
HETATM    8  C16         0      64.280 119.742 -21.707  1.00  0.00     0.093 C 
HETATM    9  C18         0      64.377 120.889 -22.486  1.00  0.00     0.048 C 
HETATM   10  C19         0      64.835 120.817 -23.795  1.00  0.00     0.096 C 
HETATM   11  C21         0      65.209 119.609 -24.317  1.00  0.00     0.084 C 
ENDROOT
BRANCH  10  12
HETATM   12  O20         0      64.525 121.843 -24.682  1.00  0.00    -0.359 OA
HETATM   13  H20         0      63.839 121.688 -25.320  1.00  0.00     0.218 HD
ENDBRANCH  10  12
BRANCH   4  14
HETATM   14  C5          0      66.078 115.789 -25.619  1.00  0.00     0.025 C 
HETATM   15  C6          0      65.999 114.731 -24.725  1.00  0.00     0.004 C 
HETATM   16  C7          0      65.229 113.633 -25.093  1.00  0.00     0.026 C 
HETATM   17  C8          0      64.666 113.528 -26.360  1.00  0.00     0.112 C 
HETATM   18  C10         0      65.302 114.277 -27.341  1.00  0.00     0.112 C 
HETATM   19  C12         0      65.994 115.418 -26.955  1.00  0.00     0.028 C 
BRANCH  17  20
HETATM   20  O9          0      63.450 112.894 -26.545  1.00  0.00    -0.357 OA
HETATM   21  H9          0      63.356 111.955 -26.658  1.00  0.00     0.218 HD
ENDBRANCH  17  20
BRANCH  18  22
HETATM   22  O11         0      64.901 114.064 -28.652  1.00  0.00    -0.357 OA
HETATM   23  H11         0      63.969 114.117 -28.831  1.00  0.00     0.218 HD
ENDBRANCH  18  22
ENDBRANCH   4  14
BRANCH   8  24
HETATM   24  O17         0      63.230 119.555 -20.801  1.00  0.00    -0.359 OA
HETATM   25  H17         0      62.928 118.687 -20.560  1.00  0.00     0.218 HD
ENDBRANCH   8  24
TORSDOF 5
ENDMDL
MODEL 7
REMARK VINA RESULT:       0.0      5.319      7.159
REMARK  5 active torsions:
REMARK  status: ('A' for Active; 'I' for Inactive)
REMARK    1  A    between atoms: C4_4  and  C5_5 
REMARK    2  A    between atoms: C8_8  and  O9_9 
REMARK    3  A    between atoms: C10_11  and  O11_12 
REMARK    4  A    between atoms: C16_18  and  O17_19 
REMARK    5  A    between atoms: C19_22  and  O20_23 
ROOT
HETATM    1  O1          0      72.648 122.386 -28.244  1.00  0.00    -0.286 OA
HETATM    2  C2          0      72.205 123.502 -27.857  1.00  0.00     0.201 C 
HETATM    3  C3          0      71.236 123.625 -26.875  1.00  0.00     0.067 C 
HETATM    4  C4          0      70.691 124.859 -26.540  1.00  0.00     0.103 C 
HETATM    5  O13         0      71.129 125.937 -27.166  1.00  0.00    -0.307 OA
HETATM    6  C14         0      72.019 125.872 -28.131  1.00  0.00     0.107 C 
HETATM    7  C15         0      72.185 126.904 -29.044  1.00  0.00     0.049 C 
HETATM    8  C16         0      72.935 126.731 -30.201  1.00  0.00     0.093 C 
HETATM    9  C18         0      73.897 125.731 -30.132  1.00  0.00     0.048 C 
HETATM   10  C19         0      73.787 124.709 -29.200  1.00  0.00     0.096 C 
HETATM   11  C21         0      72.732 124.694 -28.329  1.00  0.00     0.084 C 
ENDROOT
BRANCH  10  12
HETATM   12  O20         0      74.474 123.517 -29.412  1.00  0.00    -0.359 OA
HETATM   13  H20         0      74.191 122.962 -30.128  1.00  0.00     0.218 HD
ENDBRANCH  10  12
BRANCH   4  14
HETATM   14  C5          0      69.333 124.865 -25.992  1.00  0.00     0.025 C 
HETATM   15  C6          0      68.477 125.950 -26.115  1.00  0.00     0.004 C 
HETATM   16  C7          0      67.130 125.685 -26.340  1.00  0.00     0.026 C 
HETATM   17  C8          0      66.626 124.390 -26.310  1.00  0.00     0.112 C 
HETATM   18  C10         0      67.387 123.488 -25.578  1.00  0.00     0.112 C 
HETATM   19  C12         0      68.749 123.732 -25.440  1.00  0.00     0.028 C 
BRANCH  17  20
HETATM   20  O9          0      65.573 124.020 -27.128  1.00  0.00    -0.357 OA
HETATM   21  H9          0      64.670 123.969 -26.835  1.00  0.00     0.218 HD
ENDBRANCH  17  20
BRANCH  18  22
HETATM   22  O11         0      66.836 122.234 -25.359  1.00  0.00    -0.357 OA
HETATM   23  H11         0      66.712 121.679 -26.120  1.00  0.00     0.218 HD
ENDBRANCH  18  22
ENDBRANCH   4  14
BRANCH   8  24
HETATM   24  O17         0      72.526 127.276 -31.423  1.00  0.00    -0.359 OA
HETATM   25  H17         0      72.936 128.053 -31.785  1.00  0.00     0.218 HD
ENDBRANCH   8  24
TORSDOF 5
ENDMDL
MODEL 8
REMARK VINA RESULT:       0.0     10.973     12.739
REMARK  5 active torsions:
REMARK  status: ('A' for Active; 'I' for Inactive)
REMARK    1  A    between atoms: C4_4  and  C5_5 
REMARK    2  A    between atoms: C8_8  and  O9_9 
REMARK    3  A    between atoms: C10_11  and  O11_12 
REMARK    4  A    between atoms: C16_18  and  O17_19 
REMARK    5  A    between atoms: C19_22  and  O20_23 
ROOT
HETATM    1  O1          0      70.888 111.572 -26.443  1.00  0.00    -0.286 OA
HETATM    2  C2          0      71.780 112.208 -25.817  1.00  0.00     0.201 C 
HETATM    3  C3          0      72.899 112.737 -26.437  1.00  0.00     0.067 C 
HETATM    4  C4          0      73.917 113.343 -25.710  1.00  0.00     0.103 C 
HETATM    5  O13         0      73.795 113.428 -24.397  1.00  0.00    -0.307 OA
HETATM    6  C14         0      72.772 112.909 -23.755  1.00  0.00     0.107 C 
HETATM    7  C15         0      72.823 112.638 -22.395  1.00  0.00     0.049 C 
HETATM    8  C16         0      71.850 111.864 -21.776  1.00  0.00     0.093 C 
HETATM    9  C18         0      70.619 111.842 -22.421  1.00  0.00     0.048 C 
HETATM   10  C19         0      70.525 112.153 -23.771  1.00  0.00     0.096 C 
HETATM   11  C21         0      71.650 112.500 -24.468  1.00  0.00     0.084 C 
ENDROOT
BRANCH  10  12
HETATM   12  O20         0      69.418 111.718 -24.494  1.00  0.00    -0.359 OA
HETATM   13  H20         0      69.485 110.890 -24.954  1.00  0.00     0.218 HD
ENDBRANCH  10  12
BRANCH   4  14
HETATM   14  C5          0      75.260 113.323 -26.294  1.00  0.00     0.025 C 
HETATM   15  C6          0      76.414 113.374 -25.526  1.00  0.00     0.004 C 
HETATM   16  C7          0      77.494 112.598 -25.934  1.00  0.00     0.026 C 
HETATM   17  C8          0      77.478 111.900 -27.137  1.00  0.00     0.112 C 
HETATM   18  C10         0      76.598 112.402 -28.086  1.00  0.00     0.112 C 
HETATM   19  C12         0      75.480 113.101 -27.647  1.00  0.00     0.028 C 
BRANCH  17  20
HETATM   20  O9          0      78.135 110.689 -27.263  1.00  0.00    -0.357 OA
HETATM   21  H9          0      78.987 110.509 -26.882  1.00  0.00     0.218 HD
ENDBRANCH  17  20
BRANCH  18  22
HETATM   22  O11         0      76.677 111.864 -29.363  1.00  0.00    -0.357 OA
HETATM   23  H11         0      76.924 110.948 -29.429  1.00  0.00     0.218 HD
ENDBRANCH  18  22
ENDBRANCH   4  14
BRANCH   8  24
HETATM   24  O17         0      72.180 110.927 -20.790  1.00  0.00    -0.359 OA
HETATM   25  H17         0      71.723 110.098 -20.716  1.00  0.00     0.218 HD
ENDBRANCH   8  24
TORSDOF 5
ENDMDL
MODEL 9
REMARK VINA RESULT:       0.0      4.880      7.617
REMARK  5 active torsions:
REMARK  status: ('A' for Active; 'I' for Inactive)
REMARK    1  A    between atoms: C4_4  and  C5_5 
REMARK    2  A    between atoms: C8_8  and  O9_9 
REMARK    3  A    between atoms: C10_11  and  O11_12 
REMARK    4  A    between atoms: C16_18  and  O17_19 
REMARK    5  A    between atoms: C19_22  and  O20_23 
ROOT
HETATM    1  O1          0      65.235 119.749 -29.899  1.00  0.00    -0.286 OA
HETATM    2  C2          0      65.105 120.591 -30.829  1.00  0.00     0.201 C 
HETATM    3  C3          0      64.823 120.229 -32.135  1.00  0.00     0.067 C 
HETATM    4  C4          0      64.787 121.168 -33.160  1.00  0.00     0.103 C 
HETATM    5  O13         0      65.010 122.437 -32.866  1.00  0.00    -0.307 OA
HETATM    6  C14         0      65.320 122.829 -31.650  1.00  0.00     0.107 C 
HETATM    7  C15         0      65.934 124.049 -31.409  1.00  0.00     0.049 C 
HETATM    8  C16         0      66.486 124.347 -30.169  1.00  0.00     0.093 C 
HETATM    9  C18         0      65.943 123.644 -29.101  1.00  0.00     0.048 C 
HETATM   10  C19         0      65.281 122.442 -29.311  1.00  0.00     0.096 C 
HETATM   11  C21         0      65.146 121.955 -30.582  1.00  0.00     0.084 C 
ENDROOT
BRANCH  10  12
HETATM   12  O20         0      65.134 121.552 -28.252  1.00  0.00    -0.359 OA
HETATM   13  H20         0      65.335 121.863 -27.377  1.00  0.00     0.218 HD
ENDBRANCH  10  12
BRANCH   4  14
HETATM   14  C5          0      65.086 120.695 -34.513  1.00  0.00     0.025 C 
HETATM   15  C6          0      65.610 121.518 -35.499  1.00  0.00     0.004 C 
HETATM   16  C7          0      66.559 120.972 -36.357  1.00  0.00     0.026 C 
HETATM   17  C8          0      66.878 119.619 -36.326  1.00  0.00     0.112 C 
HETATM   18  C10         0      65.892 118.803 -35.787  1.00  0.00     0.112 C 
HETATM   19  C12         0      65.009 119.354 -34.866  1.00  0.00     0.028 C 
BRANCH  17  20
HETATM   20  O9          0      68.160 119.186 -36.615  1.00  0.00    -0.357 OA
HETATM   21  H9          0      68.354 118.359 -37.041  1.00  0.00     0.218 HD
ENDBRANCH  17  20
BRANCH  18  22
HETATM   22  O11         0      66.077 117.433 -35.904  1.00  0.00    -0.357 OA
HETATM   23  H11         0      66.473 117.119 -36.709  1.00  0.00     0.218 HD
ENDBRANCH  18  22
ENDBRANCH   4  14
BRANCH   8  24
HETATM   24  O17         0      67.701 125.033 -30.057  1.00  0.00    -0.359 OA
HETATM   25  H17         0      68.530 124.574 -29.999  1.00  0.00     0.218 HD
ENDBRANCH   8  24
TORSDOF 5
ENDMDL
