MODEL 1
REMARK VINA RESULT:      -7.5      0.000      0.000
REMARK  5 active torsions:
REMARK  status: ('A' for Active; 'I' for Inactive)
REMARK    1  A    between atoms: C4_4  and  C5_5 
REMARK    2  A    between atoms: C8_8  and  O9_9 
REMARK    3  A    between atoms: C10_11  and  O11_12 
REMARK    4  A    between atoms: C16_18  and  O17_19 
REMARK    5  A    between atoms: C19_22  and  O20_23 
ROOT
HETATM    1  O1          0      58.662  12.682  34.878  1.00  0.00    -0.286 OA
HETATM    2  C2          0      59.893  12.625  34.605  1.00  0.00     0.201 C 
HETATM    3  C3          0      60.856  12.302  35.545  1.00  0.00     0.067 C 
HETATM    4  C4          0      62.212  12.346  35.243  1.00  0.00     0.103 C 
HETATM    5  O13         0      62.580  12.686  34.021  1.00  0.00    -0.307 OA
HETATM    6  C14         0      61.708  13.039  33.101  1.00  0.00     0.107 C 
HETATM    7  C15         0      62.082  13.765  31.980  1.00  0.00     0.049 C 
HETATM    8  C16         0      61.133  14.350  31.150  1.00  0.00     0.093 C 
HETATM    9  C18         0      59.879  13.752  31.178  1.00  0.00     0.048 C 
HETATM   10  C19         0      59.491  12.980  32.265  1.00  0.00     0.096 C 
HETATM   11  C21         0      60.355  12.793  33.309  1.00  0.00     0.084 C 
ENDROOT
BRANCH  10  12
HETATM   12  O20         0      58.136  12.759  32.492  1.00  0.00    -0.359 OA
HETATM   13  H20         0      57.531  13.464  32.296  1.00  0.00     0.218 HD
ENDBRANCH  10  12
BRANCH   4  14
HETATM   14  C5          0      63.137  12.591  36.352  1.00  0.00     0.025 C 
HETATM   15  C6          0      64.119  11.685  36.726  1.00  0.00     0.004 C 
HETATM   16  C7          0      65.350  12.196  37.123  1.00  0.00     0.026 C 
HETATM   17  C8          0      65.559  13.563  37.271  1.00  0.00     0.112 C 
HETATM   18  C10         0      64.407  14.305  37.494  1.00  0.00     0.112 C 
HETATM   19  C12         0      63.200  13.811  37.013  1.00  0.00     0.028 C 
BRANCH  17  20
HETATM   20  O9          0      66.794  14.125  37.000  1.00  0.00    -0.357 OA
HETATM   21  H9          0      67.609  13.817  37.379  1.00  0.00     0.218 HD
ENDBRANCH  17  20
BRANCH  18  22
HETATM   22  O11         0      64.574  15.639  37.836  1.00  0.00    -0.357 OA
HETATM   23  H11         0      65.252  15.838  38.472  1.00  0.00     0.218 HD
ENDBRANCH  18  22
ENDBRANCH   4  14
BRANCH   8  24
HETATM   24  O17         0      61.329  15.623  30.603  1.00  0.00    -0.359 OA
HETATM   25  H17         0      61.720  15.743  29.746  1.00  0.00     0.218 HD
ENDBRANCH   8  24
TORSDOF 5
ENDMDL
MODEL 2
REMARK VINA RESULT:      -6.8      1.972      2.806
REMARK  5 active torsions:
REMARK  status: ('A' for Active; 'I' for Inactive)
REMARK    1  A    between atoms: C4_4  and  C5_5 
REMARK    2  A    between atoms: C8_8  and  O9_9 
REMARK    3  A    between atoms: C10_11  and  O11_12 
REMARK    4  A    between atoms: C16_18  and  O17_19 
REMARK    5  A    between atoms: C19_22  and  O20_23 
ROOT
HETATM    1  O1          0      61.200   9.458  36.266  1.00  0.00    -0.286 OA
HETATM    2  C2          0      61.604  10.427  35.567  1.00  0.00     0.201 C 
HETATM    3  C3          0      62.735  11.161  35.883  1.00  0.00     0.067 C 
HETATM    4  C4          0      63.099  12.287  35.154  1.00  0.00     0.103 C 
HETATM    5  O13         0      62.353  12.647  34.124  1.00  0.00    -0.307 OA
HETATM    6  C14         0      61.249  12.007  33.804  1.00  0.00     0.107 C 
HETATM    7  C15         0      60.272  12.589  33.010  1.00  0.00     0.049 C 
HETATM    8  C16         0      59.010  12.021  32.886  1.00  0.00     0.093 C 
HETATM    9  C18         0      58.956  10.653  33.127  1.00  0.00     0.048 C 
HETATM   10  C19         0      59.943  10.030  33.879  1.00  0.00     0.096 C 
HETATM   11  C21         0      60.987  10.765  34.372  1.00  0.00     0.084 C 
ENDROOT
BRANCH  10  12
HETATM   12  O20         0      59.672   8.802  34.474  1.00  0.00    -0.359 OA
HETATM   13  H20         0      59.829   8.016  33.965  1.00  0.00     0.218 HD
ENDBRANCH  10  12
BRANCH   4  14
HETATM   14  C5          0      63.879  13.312  35.851  1.00  0.00     0.025 C 
HETATM   15  C6          0      64.060  13.314  37.226  1.00  0.00     0.004 C 
HETATM   16  C7          0      65.306  13.698  37.712  1.00  0.00     0.026 C 
HETATM   17  C8          0      66.296  14.193  36.870  1.00  0.00     0.112 C 
HETATM   18  C10         0      65.828  14.736  35.681  1.00  0.00     0.112 C 
HETATM   19  C12         0      64.620  14.272  35.174  1.00  0.00     0.028 C 
BRANCH  17  20
HETATM   20  O9          0      67.634  13.954  37.131  1.00  0.00    -0.357 OA
HETATM   21  H9          0      68.185  14.537  37.640  1.00  0.00     0.218 HD
ENDBRANCH  17  20
BRANCH  18  22
HETATM   22  O11         0      66.749  15.411  34.893  1.00  0.00    -0.357 OA
HETATM   23  H11         0      66.438  15.749  34.061  1.00  0.00     0.218 HD
ENDBRANCH  18  22
ENDBRANCH   4  14
BRANCH   8  24
HETATM   24  O17         0      57.854  12.809  32.858  1.00  0.00    -0.359 OA
HETATM   25  H17         0      57.454  13.136  33.655  1.00  0.00     0.218 HD
ENDBRANCH   8  24
TORSDOF 5
ENDMDL
MODEL 3
REMARK VINA RESULT:      -6.8      1.687      3.107
REMARK  5 active torsions:
REMARK  status: ('A' for Active; 'I' for Inactive)
REMARK    1  A    between atoms: C4_4  and  C5_5 
REMARK    2  A    between atoms: C8_8  and  O9_9 
REMARK    3  A    between atoms: C10_11  and  O11_12 
REMARK    4  A    between atoms: C16_18  and  O17_19 
REMARK    5  A    between atoms: C19_22  and  O20_23 
ROOT
HETATM    1  O1          0      62.049  13.674  31.009  1.00  0.00    -0.286 OA
HETATM    2  C2          0      61.866  13.638  32.257  1.00  0.00     0.201 C 
HETATM    3  C3          0      62.855  13.960  33.170  1.00  0.00     0.067 C 
HETATM    4  C4          0      62.659  13.813  34.539  1.00  0.00     0.103 C 
HETATM    5  O13         0      61.489  13.375  34.969  1.00  0.00    -0.307 OA
HETATM    6  C14         0      60.529  13.021  34.144  1.00  0.00     0.107 C 
HETATM    7  C15         0      59.482  12.205  34.548  1.00  0.00     0.049 C 
HETATM    8  C16         0      58.618  11.629  33.624  1.00  0.00     0.093 C 
HETATM    9  C18         0      58.518  12.304  32.413  1.00  0.00     0.048 C 
HETATM   10  C19         0      59.526  13.164  32.000  1.00  0.00     0.096 C 
HETATM   11  C21         0      60.619  13.362  32.799  1.00  0.00     0.084 C 
ENDROOT
BRANCH  10  12
HETATM   12  O20         0      59.638  13.482  30.650  1.00  0.00    -0.359 OA
HETATM   13  H20         0      59.875  14.373  30.420  1.00  0.00     0.218 HD
ENDBRANCH  10  12
BRANCH   4  14
HETATM   14  C5          0      63.846  13.581  35.364  1.00  0.00     0.025 C 
HETATM   15  C6          0      64.880  14.499  35.469  1.00  0.00     0.004 C 
HETATM   16  C7          0      65.480  14.655  36.715  1.00  0.00     0.026 C 
HETATM   17  C8          0      65.156  13.832  37.789  1.00  0.00     0.112 C 
HETATM   18  C10         0      64.624  12.599  37.434  1.00  0.00     0.112 C 
HETATM   19  C12         0      63.955  12.493  36.221  1.00  0.00     0.028 C 
BRANCH  17  20
HETATM   20  O9          0      65.175  14.317  39.084  1.00  0.00    -0.357 OA
HETATM   21  H9          0      65.032  13.776  39.852  1.00  0.00     0.218 HD
ENDBRANCH  17  20
BRANCH  18  22
HETATM   22  O11         0      64.460  11.670  38.452  1.00  0.00    -0.357 OA
HETATM   23  H11         0      63.893  11.918  39.173  1.00  0.00     0.218 HD
ENDBRANCH  18  22
ENDBRANCH   4  14
BRANCH   8  24
HETATM   24  O17         0      58.161  10.315  33.773  1.00  0.00    -0.359 OA
HETATM   25  H17         0      57.933   9.778  33.024  1.00  0.00     0.218 HD
ENDBRANCH   8  24
TORSDOF 5
ENDMDL
MODEL 4
REMARK VINA RESULT:      -6.8      2.042      6.313
REMARK  5 active torsions:
REMARK  status: ('A' for Active; 'I' for Inactive)
REMARK    1  A    between atoms: C4_4  and  C5_5 
REMARK    2  A    between atoms: C8_8  and  O9_9 
REMARK    3  A    between atoms: C10_11  and  O11_12 
REMARK    4  A    between atoms: C16_18  and  O17_19 
REMARK    5  A    between atoms: C19_22  and  O20_23 
ROOT
HETATM    1  O1          0      64.591  11.102  37.142  1.00  0.00    -0.286 OA
HETATM    2  C2          0      63.959  11.912  36.411  1.00  0.00     0.201 C 
HETATM    3  C3          0      62.758  11.591  35.800  1.00  0.00     0.067 C 
HETATM    4  C4          0      62.134  12.465  34.917  1.00  0.00     0.103 C 
HETATM    5  O13         0      62.698  13.635  34.677  1.00  0.00    -0.307 OA
HETATM    6  C14         0      63.855  13.975  35.201  1.00  0.00     0.107 C 
HETATM    7  C15         0      64.632  14.990  34.663  1.00  0.00     0.049 C 
HETATM    8  C16         0      65.952  15.174  35.056  1.00  0.00     0.093 C 
HETATM    9  C18         0      66.262  14.686  36.319  1.00  0.00     0.048 C 
HETATM   10  C19         0      65.479  13.702  36.907  1.00  0.00     0.096 C 
HETATM   11  C21         0      64.382  13.222  36.245  1.00  0.00     0.084 C 
ENDROOT
BRANCH  10  12
HETATM   12  O20         0      66.015  12.927  37.930  1.00  0.00    -0.359 OA
HETATM   13  H20         0      65.548  12.894  38.756  1.00  0.00     0.218 HD
ENDBRANCH  10  12
BRANCH   4  14
HETATM   14  C5          0      61.268  11.877  33.893  1.00  0.00     0.025 C 
HETATM   15  C6          0      61.275  10.523  33.588  1.00  0.00     0.004 C 
HETATM   16  C7          0      60.055   9.920  33.303  1.00  0.00     0.026 C 
HETATM   17  C8          0      58.883  10.661  33.192  1.00  0.00     0.112 C 
HETATM   18  C10         0      59.072  12.002  32.885  1.00  0.00     0.112 C 
HETATM   19  C12         0      60.269  12.602  33.257  1.00  0.00     0.028 C 
BRANCH  17  20
HETATM   20  O9          0      57.666  10.124  33.574  1.00  0.00    -0.357 OA
HETATM   21  H9          0      57.395  10.021  34.479  1.00  0.00     0.218 HD
ENDBRANCH  17  20
BRANCH  18  22
HETATM   22  O11         0      57.939  12.741  32.578  1.00  0.00    -0.357 OA
HETATM   23  H11         0      57.143  12.526  33.051  1.00  0.00     0.218 HD
ENDBRANCH  18  22
ENDBRANCH   4  14
BRANCH   8  24
HETATM   24  O17         0      66.948  15.508  34.131  1.00  0.00    -0.359 OA
HETATM   25  H17         0      66.745  15.680  33.219  1.00  0.00     0.218 HD
ENDBRANCH   8  24
TORSDOF 5
ENDMDL
MODEL 5
REMARK VINA RESULT:      -6.8      2.266      3.801
REMARK  5 active torsions:
REMARK  status: ('A' for Active; 'I' for Inactive)
REMARK    1  A    between atoms: C4_4  and  C5_5 
REMARK    2  A    between atoms: C8_8  and  O9_9 
REMARK    3  A    between atoms: C10_11  and  O11_12 
REMARK    4  A    between atoms: C16_18  and  O17_19 
REMARK    5  A    between atoms: C19_22  and  O20_23 
ROOT
HETATM    1  O1          0      64.849  15.214  32.837  1.00  0.00    -0.286 OA
HETATM    2  C2          0      64.163  14.773  33.799  1.00  0.00     0.201 C 
HETATM    3  C3          0      64.544  14.922  35.122  1.00  0.00     0.067 C 
HETATM    4  C4          0      63.823  14.337  36.158  1.00  0.00     0.103 C 
HETATM    5  O13         0      62.739  13.641  35.863  1.00  0.00    -0.307 OA
HETATM    6  C14         0      62.355  13.438  34.622  1.00  0.00     0.107 C 
HETATM    7  C15         0      61.486  12.410  34.284  1.00  0.00     0.049 C 
HETATM    8  C16         0      61.285  12.040  32.960  1.00  0.00     0.093 C 
HETATM    9  C18         0      61.545  13.037  32.027  1.00  0.00     0.048 C 
HETATM   10  C19         0      62.373  14.104  32.346  1.00  0.00     0.096 C 
HETATM   11  C21         0      62.924  14.186  33.596  1.00  0.00     0.084 C 
ENDROOT
BRANCH  10  12
HETATM   12  O20         0      62.968  14.834  31.322  1.00  0.00    -0.359 OA
HETATM   13  H20         0      63.316  15.693  31.531  1.00  0.00     0.218 HD
ENDBRANCH  10  12
BRANCH   4  14
HETATM   14  C5          0      64.554  14.016  37.385  1.00  0.00     0.025 C 
HETATM   15  C6          0      64.340  14.681  38.583  1.00  0.00     0.004 C 
HETATM   16  C7          0      64.377  13.929  39.753  1.00  0.00     0.026 C 
HETATM   17  C8          0      64.746  12.588  39.747  1.00  0.00     0.112 C 
HETATM   18  C10         0      65.526  12.207  38.664  1.00  0.00     0.112 C 
HETATM   19  C12         0      65.407  12.924  37.479  1.00  0.00     0.028 C 
BRANCH  17  20
HETATM   20  O9          0      64.188  11.695  40.645  1.00  0.00    -0.357 OA
HETATM   21  H9          0      63.493  11.087  40.421  1.00  0.00     0.218 HD
ENDBRANCH  17  20
BRANCH  18  22
HETATM   22  O11         0      66.078  10.934  38.704  1.00  0.00    -0.357 OA
HETATM   23  H11         0      65.657  10.266  38.175  1.00  0.00     0.218 HD
ENDBRANCH  18  22
ENDBRANCH   4  14
BRANCH   8  24
HETATM   24  O17         0      61.166  10.697  32.588  1.00  0.00    -0.359 OA
HETATM   25  H17         0      61.785  10.040  32.884  1.00  0.00     0.218 HD
ENDBRANCH   8  24
TORSDOF 5
ENDMDL
MODEL 6
REMARK VINA RESULT:      -6.8      1.732      6.598
REMARK  5 active torsions:
REMARK  status: ('A' for Active; 'I' for Inactive)
REMARK    1  A    between atoms: C4_4  and  C5_5 
REMARK    2  A    between atoms: C8_8  and  O9_9 
REMARK    3  A    between atoms: C10_11  and  O11_12 
REMARK    4  A    between atoms: C16_18  and  O17_19 
REMARK    5  A    between atoms: C19_22  and  O20_23 
ROOT
HETATM    1  O1          0      64.083  16.000  34.375  1.00  0.00    -0.286 OA
HETATM    2  C2          0      63.773  14.786  34.518  1.00  0.00     0.201 C 
HETATM    3  C3          0      63.009  14.093  33.594  1.00  0.00     0.067 C 
HETATM    4  C4          0      62.595  12.786  33.826  1.00  0.00     0.103 C 
HETATM    5  O13         0      62.961  12.193  34.948  1.00  0.00    -0.307 OA
HETATM    6  C14         0      63.654  12.818  35.875  1.00  0.00     0.107 C 
HETATM    7  C15         0      63.697  12.364  37.185  1.00  0.00     0.049 C 
HETATM    8  C16         0      64.212  13.155  38.206  1.00  0.00     0.093 C 
HETATM    9  C18         0      65.122  14.122  37.797  1.00  0.00     0.048 C 
HETATM   10  C19         0      65.137  14.565  36.481  1.00  0.00     0.096 C 
HETATM   11  C21         0      64.260  14.033  35.576  1.00  0.00     0.084 C 
ENDROOT
BRANCH  10  12
HETATM   12  O20         0      65.715  15.796  36.185  1.00  0.00    -0.359 OA
HETATM   13  H20         0      65.457  16.226  35.378  1.00  0.00     0.218 HD
ENDBRANCH  10  12
BRANCH   4  14
HETATM   14  C5          0      61.363  12.347  33.166  1.00  0.00     0.025 C 
HETATM   15  C6          0      60.707  11.172  33.504  1.00  0.00     0.004 C 
HETATM   16  C7          0      59.316  11.190  33.506  1.00  0.00     0.026 C 
HETATM   17  C8          0      58.599  12.294  33.058  1.00  0.00     0.112 C 
HETATM   18  C10         0      59.292  13.118  32.182  1.00  0.00     0.112 C 
HETATM   19  C12         0      60.680  13.146  32.259  1.00  0.00     0.028 C 
BRANCH  17  20
HETATM   20  O9          0      57.381  12.626  33.625  1.00  0.00    -0.357 OA
HETATM   21  H9          0      57.271  13.310  34.276  1.00  0.00     0.218 HD
ENDBRANCH  17  20
BRANCH  18  22
HETATM   22  O11         0      58.567  14.125  31.560  1.00  0.00    -0.357 OA
HETATM   23  H11         0      57.906  13.854  30.933  1.00  0.00     0.218 HD
ENDBRANCH  18  22
ENDBRANCH   4  14
BRANCH   8  24
HETATM   24  O17         0      63.612  13.196  39.469  1.00  0.00    -0.359 OA
HETATM   25  H17         0      63.900  12.633  40.178  1.00  0.00     0.218 HD
ENDBRANCH   8  24
TORSDOF 5
ENDMDL
MODEL 7
REMARK VINA RESULT:      -6.6      1.536      6.404
REMARK  5 active torsions:
REMARK  status: ('A' for Active; 'I' for Inactive)
REMARK    1  A    between atoms: C4_4  and  C5_5 
REMARK    2  A    between atoms: C8_8  and  O9_9 
REMARK    3  A    between atoms: C10_11  and  O11_12 
REMARK    4  A    between atoms: C16_18  and  O17_19 
REMARK    5  A    between atoms: C19_22  and  O20_23 
ROOT
HETATM    1  O1          0      64.425  10.244  36.496  1.00  0.00    -0.286 OA
HETATM    2  C2          0      63.808  11.290  36.151  1.00  0.00     0.201 C 
HETATM    3  C3          0      62.673  11.265  35.358  1.00  0.00     0.067 C 
HETATM    4  C4          0      62.073  12.435  34.909  1.00  0.00     0.103 C 
HETATM    5  O13         0      62.594  13.595  35.269  1.00  0.00    -0.307 OA
HETATM    6  C14         0      63.691  13.675  35.989  1.00  0.00     0.107 C 
HETATM    7  C15         0      64.454  14.833  36.033  1.00  0.00     0.049 C 
HETATM    8  C16         0      65.732  14.835  36.580  1.00  0.00     0.093 C 
HETATM    9  C18         0      65.972  13.834  37.514  1.00  0.00     0.048 C 
HETATM   10  C19         0      65.197  12.682  37.528  1.00  0.00     0.096 C 
HETATM   11  C21         0      64.177  12.539  36.627  1.00  0.00     0.084 C 
ENDROOT
BRANCH  10  12
HETATM   12  O20         0      65.694  11.535  38.139  1.00  0.00    -0.359 OA
HETATM   13  H20         0      66.002  10.831  37.580  1.00  0.00     0.218 HD
ENDBRANCH  10  12
BRANCH   4  14
HETATM   14  C5          0      61.314  12.361  33.659  1.00  0.00     0.025 C 
HETATM   15  C6          0      60.040  11.818  33.583  1.00  0.00     0.004 C 
HETATM   16  C7          0      59.124  12.438  32.740  1.00  0.00     0.026 C 
HETATM   17  C8          0      59.497  13.480  31.898  1.00  0.00     0.112 C 
HETATM   18  C10         0      60.849  13.517  31.584  1.00  0.00     0.112 C 
HETATM   19  C12         0      61.751  12.965  32.486  1.00  0.00     0.028 C 
BRANCH  17  20
HETATM   20  O9          0      58.609  14.496  31.592  1.00  0.00    -0.357 OA
HETATM   21  H9          0      58.583  14.939  30.752  1.00  0.00     0.218 HD
ENDBRANCH  17  20
BRANCH  18  22
HETATM   22  O11         0      61.242  14.416  30.603  1.00  0.00    -0.357 OA
HETATM   23  H11         0      61.810  14.083  29.918  1.00  0.00     0.218 HD
ENDBRANCH  18  22
ENDBRANCH   4  14
BRANCH   8  24
HETATM   24  O17         0      66.775  15.561  35.995  1.00  0.00    -0.359 OA
HETATM   25  H17         0      67.162  16.314  36.424  1.00  0.00     0.218 HD
ENDBRANCH   8  24
TORSDOF 5
ENDMDL
MODEL 8
REMARK VINA RESULT:      -6.4      4.625      6.694
REMARK  5 active torsions:
REMARK  status: ('A' for Active; 'I' for Inactive)
REMARK    1  A    between atoms: C4_4  and  C5_5 
REMARK    2  A    between atoms: C8_8  and  O9_9 
REMARK    3  A    between atoms: C10_11  and  O11_12 
REMARK    4  A    between atoms: C16_18  and  O17_19 
REMARK    5  A    between atoms: C19_22  and  O20_23 
ROOT
HETATM    1  O1          0      60.260   7.405  35.705  1.00  0.00    -0.286 OA
HETATM    2  C2          0      60.569   7.981  34.626  1.00  0.00     0.201 C 
HETATM    3  C3          0      60.873   9.330  34.556  1.00  0.00     0.067 C 
HETATM    4  C4          0      61.110   9.961  33.340  1.00  0.00     0.103 C 
HETATM    5  O13         0      61.062   9.243  32.232  1.00  0.00    -0.307 OA
HETATM    6  C14         0      60.742   7.968  32.239  1.00  0.00     0.107 C 
HETATM    7  C15         0      60.304   7.318  31.094  1.00  0.00     0.049 C 
HETATM    8  C16         0      59.729   6.055  31.157  1.00  0.00     0.093 C 
HETATM    9  C18         0      60.096   5.297  32.263  1.00  0.00     0.048 C 
HETATM   10  C19         0      60.582   5.912  33.408  1.00  0.00     0.096 C 
HETATM   11  C21         0      60.719   7.273  33.443  1.00  0.00     0.084 C 
ENDROOT
BRANCH  10  12
HETATM   12  O20         0      60.530   5.230  34.620  1.00  0.00    -0.359 OA
HETATM   13  H20         0      61.257   5.336  35.222  1.00  0.00     0.218 HD
ENDBRANCH  10  12
BRANCH   4  14
HETATM   14  C5          0      60.825  11.396  33.264  1.00  0.00     0.025 C 
HETATM   15  C6          0      61.818  12.363  33.324  1.00  0.00     0.004 C 
HETATM   16  C7          0      61.679  13.480  32.506  1.00  0.00     0.026 C 
HETATM   17  C8          0      60.530  13.695  31.753  1.00  0.00     0.112 C 
HETATM   18  C10         0      59.396  13.051  32.230  1.00  0.00     0.112 C 
HETATM   19  C12         0      59.560  11.889  32.974  1.00  0.00     0.028 C 
BRANCH  17  20
HETATM   20  O9          0      60.596  14.325  30.524  1.00  0.00    -0.357 OA
HETATM   21  H9          0      60.891  15.221  30.404  1.00  0.00     0.218 HD
ENDBRANCH  17  20
BRANCH  18  22
HETATM   22  O11         0      58.188  13.380  31.631  1.00  0.00    -0.357 OA
HETATM   23  H11         0      57.561  12.676  31.513  1.00  0.00     0.218 HD
ENDBRANCH  18  22
ENDBRANCH   4  14
BRANCH   8  24
HETATM   24  O17         0      58.627   5.715  30.365  1.00  0.00    -0.359 OA
HETATM   25  H17         0      58.729   5.268  29.533  1.00  0.00     0.218 HD
ENDBRANCH   8  24
TORSDOF 5
ENDMDL
MODEL 9
REMARK VINA RESULT:      -6.3      3.444      6.332
REMARK  5 active torsions:
REMARK  status: ('A' for Active; 'I' for Inactive)
REMARK    1  A    between atoms: C4_4  and  C5_5 
REMARK    2  A    between atoms: C8_8  and  O9_9 
REMARK    3  A    between atoms: C10_11  and  O11_12 
REMARK    4  A    between atoms: C16_18  and  O17_19 
REMARK    5  A    between atoms: C19_22  and  O20_23 
ROOT
HETATM    1  O1          0      63.271  11.075  36.217  1.00  0.00    -0.286 OA
HETATM    2  C2          0      62.412  11.373  35.343  1.00  0.00     0.201 C 
HETATM    3  C3          0      61.362  10.536  35.005  1.00  0.00     0.067 C 
HETATM    4  C4          0      60.490  10.843  33.967  1.00  0.00     0.103 C 
HETATM    5  O13         0      60.664  11.974  33.306  1.00  0.00    -0.307 OA
HETATM    6  C14         0      61.666  12.787  33.561  1.00  0.00     0.107 C 
HETATM    7  C15         0      62.087  13.739  32.645  1.00  0.00     0.049 C 
HETATM    8  C16         0      63.290  14.415  32.807  1.00  0.00     0.093 C 
HETATM    9  C18         0      63.748  14.491  34.116  1.00  0.00     0.048 C 
HETATM   10  C19         0      63.312  13.582  35.071  1.00  0.00     0.096 C 
HETATM   11  C21         0      62.410  12.614  34.723  1.00  0.00     0.084 C 
ENDROOT
BRANCH  10  12
HETATM   12  O20         0      64.071  13.385  36.220  1.00  0.00    -0.359 OA
HETATM   13  H20         0      64.087  14.079  36.868  1.00  0.00     0.218 HD
ENDBRANCH  10  12
BRANCH   4  14
HETATM   14  C5          0      59.836   9.723  33.287  1.00  0.00     0.025 C 
HETATM   15  C6          0      60.542   8.664  32.734  1.00  0.00     0.004 C 
HETATM   16  C7          0      59.992   7.392  32.853  1.00  0.00     0.026 C 
HETATM   17  C8          0      58.722   7.192  33.384  1.00  0.00     0.112 C 
HETATM   18  C10         0      57.883   8.296  33.310  1.00  0.00     0.112 C 
HETATM   19  C12         0      58.457   9.561  33.278  1.00  0.00     0.028 C 
BRANCH  17  20
HETATM   20  O9          0      58.428   6.051  34.108  1.00  0.00    -0.357 OA
HETATM   21  H9          0      57.564   5.849  34.448  1.00  0.00     0.218 HD
ENDBRANCH  17  20
BRANCH  18  22
HETATM   22  O11         0      56.553   8.097  33.650  1.00  0.00    -0.357 OA
HETATM   23  H11         0      56.205   7.220  33.534  1.00  0.00     0.218 HD
ENDBRANCH  18  22
ENDBRANCH   4  14
BRANCH   8  24
HETATM   24  O17         0      64.125  14.688  31.718  1.00  0.00    -0.359 OA
HETATM   25  H17         0      64.282  14.047  31.035  1.00  0.00     0.218 HD
ENDBRANCH   8  24
TORSDOF 5
ENDMDL
