MODEL 1
REMARK VINA RESULT:      -5.7      0.000      0.000
REMARK  5 active torsions:
REMARK  status: ('A' for Active; 'I' for Inactive)
REMARK    1  A    between atoms: C4_4  and  C5_5 
REMARK    2  A    between atoms: C8_8  and  O9_9 
REMARK    3  A    between atoms: C10_11  and  O11_12 
REMARK    4  A    between atoms: C16_18  and  O17_19 
REMARK    5  A    between atoms: C19_22  and  O20_23 
ROOT
HETATM    1  O1          0      16.622  94.219 -14.573  1.00  0.00    -0.286 OA
HETATM    2  C2          0      16.122  93.180 -15.086  1.00  0.00     0.201 C 
HETATM    3  C3          0      14.899  92.663 -14.693  1.00  0.00     0.067 C 
HETATM    4  C4          0      14.419  91.461 -15.201  1.00  0.00     0.103 C 
HETATM    5  O13         0      15.146  90.815 -16.095  1.00  0.00    -0.307 OA
HETATM    6  C14         0      16.330  91.242 -16.474  1.00  0.00     0.107 C 
HETATM    7  C15         0      17.252  90.400 -17.081  1.00  0.00     0.049 C 
HETATM    8  C16         0      18.578  90.781 -17.246  1.00  0.00     0.093 C 
HETATM    9  C18         0      18.794  92.154 -17.280  1.00  0.00     0.048 C 
HETATM   10  C19         0      17.870  93.028 -16.724  1.00  0.00     0.096 C 
HETATM   11  C21         0      16.728  92.535 -16.153  1.00  0.00     0.084 C 
ENDROOT
BRANCH  10  12
HETATM   12  O20         0      18.274  94.312 -16.372  1.00  0.00    -0.359 OA
HETATM   13  H20         0      17.608  94.925 -16.086  1.00  0.00     0.218 HD
ENDBRANCH  10  12
BRANCH   4  14
HETATM   14  C5          0      13.497  90.699 -14.358  1.00  0.00     0.025 C 
HETATM   15  C6          0      13.647  90.593 -12.983  1.00  0.00     0.004 C 
HETATM   16  C7          0      12.494  90.614 -12.204  1.00  0.00     0.026 C 
HETATM   17  C8          0      11.227  90.605 -12.777  1.00  0.00     0.112 C 
HETATM   18  C10         0      11.176  90.082 -14.062  1.00  0.00     0.112 C 
HETATM   19  C12         0      12.319  90.150 -14.850  1.00  0.00     0.028 C 
BRANCH  17  20
HETATM   20  O9          0      10.172  91.265 -12.173  1.00  0.00    -0.357 OA
HETATM   21  H9          0       9.264  91.161 -12.436  1.00  0.00     0.218 HD
ENDBRANCH  17  20
BRANCH  18  22
HETATM   22  O11         0       9.916  89.875 -14.606  1.00  0.00    -0.357 OA
HETATM   23  H11         0       9.764  89.040 -15.033  1.00  0.00     0.218 HD
ENDBRANCH  18  22
ENDBRANCH   4  14
BRANCH   8  24
HETATM   24  O17         0      19.626  89.876 -17.051  1.00  0.00    -0.359 OA
HETATM   25  H17         0      20.484  90.014 -17.436  1.00  0.00     0.218 HD
ENDBRANCH   8  24
TORSDOF 5
ENDMDL
MODEL 2
REMARK VINA RESULT:      -5.5      1.744      6.721
REMARK  5 active torsions:
REMARK  status: ('A' for Active; 'I' for Inactive)
REMARK    1  A    between atoms: C4_4  and  C5_5 
REMARK    2  A    between atoms: C8_8  and  O9_9 
REMARK    3  A    between atoms: C10_11  and  O11_12 
REMARK    4  A    between atoms: C16_18  and  O17_19 
REMARK    5  A    between atoms: C19_22  and  O20_23 
ROOT
HETATM    1  O1          0      13.581  90.782 -12.136  1.00  0.00    -0.286 OA
HETATM    2  C2          0      13.740  90.442 -13.340  1.00  0.00     0.201 C 
HETATM    3  C3          0      14.988  90.235 -13.903  1.00  0.00     0.067 C 
HETATM    4  C4          0      15.140  89.961 -15.258  1.00  0.00     0.103 C 
HETATM    5  O13         0      14.059  89.878 -16.013  1.00  0.00    -0.307 OA
HETATM    6  C14         0      12.854  90.103 -15.537  1.00  0.00     0.107 C 
HETATM    7  C15         0      11.786  90.411 -16.367  1.00  0.00     0.049 C 
HETATM    8  C16         0      10.588  90.893 -15.853  1.00  0.00     0.093 C 
HETATM    9  C18         0      10.337  90.550 -14.531  1.00  0.00     0.048 C 
HETATM   10  C19         0      11.377  90.191 -13.685  1.00  0.00     0.096 C 
HETATM   11  C21         0      12.660  90.159 -14.161  1.00  0.00     0.084 C 
ENDROOT
BRANCH  10  12
HETATM   12  O20         0      11.195  90.277 -12.308  1.00  0.00    -0.359 OA
HETATM   13  H20         0      11.280  91.130 -11.900  1.00  0.00     0.218 HD
ENDBRANCH  10  12
BRANCH   4  14
HETATM   14  C5          0      16.408  90.345 -15.880  1.00  0.00     0.025 C 
HETATM   15  C6          0      16.563  90.471 -17.253  1.00  0.00     0.004 C 
HETATM   16  C7          0      17.364  91.510 -17.718  1.00  0.00     0.026 C 
HETATM   17  C8          0      18.094  92.313 -16.849  1.00  0.00     0.112 C 
HETATM   18  C10         0      18.372  91.733 -15.619  1.00  0.00     0.112 C 
HETATM   19  C12         0      17.507  90.757 -15.138  1.00  0.00     0.028 C 
BRANCH  17  20
HETATM   20  O9          0      18.321  93.647 -17.138  1.00  0.00    -0.357 OA
HETATM   21  H9          0      19.147  93.983 -17.468  1.00  0.00     0.218 HD
ENDBRANCH  17  20
BRANCH  18  22
HETATM   22  O11         0      19.254  92.411 -14.789  1.00  0.00    -0.357 OA
HETATM   23  H11         0      19.288  92.134 -13.880  1.00  0.00     0.218 HD
ENDBRANCH  18  22
ENDBRANCH   4  14
BRANCH   8  24
HETATM   24  O17         0       9.875  91.910 -16.498  1.00  0.00    -0.359 OA
HETATM   25  H17         0      10.314  92.650 -16.900  1.00  0.00     0.218 HD
ENDBRANCH   8  24
TORSDOF 5
ENDMDL
MODEL 3
REMARK VINA RESULT:      -5.4     10.346     12.988
REMARK  5 active torsions:
REMARK  status: ('A' for Active; 'I' for Inactive)
REMARK    1  A    between atoms: C4_4  and  C5_5 
REMARK    2  A    between atoms: C8_8  and  O9_9 
REMARK    3  A    between atoms: C10_11  and  O11_12 
REMARK    4  A    between atoms: C16_18  and  O17_19 
REMARK    5  A    between atoms: C19_22  and  O20_23 
ROOT
HETATM    1  O1          0      26.900  90.831 -10.539  1.00  0.00    -0.286 OA
HETATM    2  C2          0      27.249  92.001 -10.856  1.00  0.00     0.201 C 
HETATM    3  C3          0      26.543  93.126 -10.466  1.00  0.00     0.067 C 
HETATM    4  C4          0      26.890  94.396 -10.914  1.00  0.00     0.103 C 
HETATM    5  O13         0      27.933  94.523 -11.716  1.00  0.00    -0.307 OA
HETATM    6  C14         0      28.614  93.484 -12.147  1.00  0.00     0.107 C 
HETATM    7  C15         0      29.426  93.557 -13.269  1.00  0.00     0.049 C 
HETATM    8  C16         0      29.937  92.410 -13.867  1.00  0.00     0.093 C 
HETATM    9  C18         0      30.047  91.310 -13.025  1.00  0.00     0.048 C 
HETATM   10  C19         0      29.283  91.226 -11.869  1.00  0.00     0.096 C 
HETATM   11  C21         0      28.427  92.243 -11.546  1.00  0.00     0.084 C 
ENDROOT
BRANCH  10  12
HETATM   12  O20         0      29.068  89.982 -11.284  1.00  0.00    -0.359 OA
HETATM   13  H20         0      28.361  89.902 -10.655  1.00  0.00     0.218 HD
ENDBRANCH  10  12
BRANCH   4  14
HETATM   14  C5          0      25.825  95.397 -10.979  1.00  0.00     0.025 C 
HETATM   15  C6          0      25.501  96.077 -12.144  1.00  0.00     0.004 C 
HETATM   16  C7          0      24.156  96.330 -12.391  1.00  0.00     0.026 C 
HETATM   17  C8          0      23.175  96.039 -11.449  1.00  0.00     0.112 C 
HETATM   18  C10         0      23.630  95.973 -10.139  1.00  0.00     0.112 C 
HETATM   19  C12         0      24.960  95.634  -9.918  1.00  0.00     0.028 C 
BRANCH  17  20
HETATM   20  O9          0      21.909  95.644 -11.843  1.00  0.00    -0.357 OA
HETATM   21  H9          0      21.527  94.801 -11.627  1.00  0.00     0.218 HD
ENDBRANCH  17  20
BRANCH  18  22
HETATM   22  O11         0      22.668  95.874  -9.144  1.00  0.00    -0.357 OA
HETATM   23  H11         0      21.764  96.008  -9.404  1.00  0.00     0.218 HD
ENDBRANCH  18  22
ENDBRANCH   4  14
BRANCH   8  24
HETATM   24  O17         0      30.008  92.283 -15.258  1.00  0.00    -0.359 OA
HETATM   25  H17         0      30.752  91.876 -15.685  1.00  0.00     0.218 HD
ENDBRANCH   8  24
TORSDOF 5
ENDMDL
MODEL 4
REMARK VINA RESULT:      -5.4      1.776      2.736
REMARK  5 active torsions:
REMARK  status: ('A' for Active; 'I' for Inactive)
REMARK    1  A    between atoms: C4_4  and  C5_5 
REMARK    2  A    between atoms: C8_8  and  O9_9 
REMARK    3  A    between atoms: C10_11  and  O11_12 
REMARK    4  A    between atoms: C16_18  and  O17_19 
REMARK    5  A    between atoms: C19_22  and  O20_23 
ROOT
HETATM    1  O1          0      15.397  92.001 -18.972  1.00  0.00    -0.286 OA
HETATM    2  C2          0      15.689  91.802 -17.761  1.00  0.00     0.201 C 
HETATM    3  C3          0      14.735  91.554 -16.790  1.00  0.00     0.067 C 
HETATM    4  C4          0      15.075  91.441 -15.446  1.00  0.00     0.103 C 
HETATM    5  O13         0      16.345  91.554 -15.102  1.00  0.00    -0.307 OA
HETATM    6  C14         0      17.286  91.827 -15.979  1.00  0.00     0.107 C 
HETATM    7  C15         0      18.519  92.335 -15.595  1.00  0.00     0.049 C 
HETATM    8  C16         0      19.407  92.857 -16.528  1.00  0.00     0.093 C 
HETATM    9  C18         0      19.250  92.373 -17.821  1.00  0.00     0.048 C 
HETATM   10  C19         0      18.045  91.816 -18.225  1.00  0.00     0.096 C 
HETATM   11  C21         0      17.007  91.726 -17.338  1.00  0.00     0.084 C 
ENDROOT
BRANCH  10  12
HETATM   12  O20         0      17.750  91.743 -19.583  1.00  0.00    -0.359 OA
HETATM   13  H20         0      18.057  92.445 -20.144  1.00  0.00     0.218 HD
ENDBRANCH  10  12
BRANCH   4  14
HETATM   14  C5          0      14.045  91.782 -14.464  1.00  0.00     0.025 C 
HETATM   15  C6          0      12.792  92.258 -14.822  1.00  0.00     0.004 C 
HETATM   16  C7          0      11.699  91.818 -14.081  1.00  0.00     0.026 C 
HETATM   17  C8          0      11.858  91.040 -12.940  1.00  0.00     0.112 C 
HETATM   18  C10         0      13.098  91.155 -12.327  1.00  0.00     0.112 C 
HETATM   19  C12         0      14.190  91.513 -13.109  1.00  0.00     0.028 C 
BRANCH  17  20
HETATM   20  O9          0      10.917  90.084 -12.598  1.00  0.00    -0.357 OA
HETATM   21  H9          0      10.321  90.170 -11.862  1.00  0.00     0.218 HD
ENDBRANCH  17  20
BRANCH  18  22
HETATM   22  O11         0      13.245  90.550 -11.087  1.00  0.00    -0.357 OA
HETATM   23  H11         0      12.459  90.447 -10.563  1.00  0.00     0.218 HD
ENDBRANCH  18  22
ENDBRANCH   4  14
BRANCH   8  24
HETATM   24  O17         0      20.155  94.008 -16.258  1.00  0.00    -0.359 OA
HETATM   25  H17         0      21.089  93.969 -16.093  1.00  0.00     0.218 HD
ENDBRANCH   8  24
TORSDOF 5
ENDMDL
MODEL 5
REMARK VINA RESULT:      -5.2      1.894      6.852
REMARK  5 active torsions:
REMARK  status: ('A' for Active; 'I' for Inactive)
REMARK    1  A    between atoms: C4_4  and  C5_5 
REMARK    2  A    between atoms: C8_8  and  O9_9 
REMARK    3  A    between atoms: C10_11  and  O11_12 
REMARK    4  A    between atoms: C16_18  and  O17_19 
REMARK    5  A    between atoms: C19_22  and  O20_23 
ROOT
HETATM    1  O1          0      11.503  89.978 -15.099  1.00  0.00    -0.286 OA
HETATM    2  C2          0      12.212  91.000 -14.886  1.00  0.00     0.201 C 
HETATM    3  C3          0      13.256  91.374 -15.715  1.00  0.00     0.067 C 
HETATM    4  C4          0      14.086  92.445 -15.403  1.00  0.00     0.103 C 
HETATM    5  O13         0      13.851  93.129 -14.297  1.00  0.00    -0.307 OA
HETATM    6  C14         0      12.896  92.793 -13.457  1.00  0.00     0.107 C 
HETATM    7  C15         0      12.893  93.231 -12.140  1.00  0.00     0.049 C 
HETATM    8  C16         0      12.037  92.676 -11.197  1.00  0.00     0.093 C 
HETATM    9  C18         0      10.884  92.100 -11.718  1.00  0.00     0.048 C 
HETATM   10  C19         0      10.837  91.693 -13.044  1.00  0.00     0.096 C 
HETATM   11  C21         0      11.927  91.876 -13.850  1.00  0.00     0.084 C 
ENDROOT
BRANCH  10  12
HETATM   12  O20         0       9.889  90.752 -13.434  1.00  0.00    -0.359 OA
HETATM   13  H20         0       9.531  90.817 -14.311  1.00  0.00     0.218 HD
ENDBRANCH  10  12
BRANCH   4  14
HETATM   14  C5          0      15.449  92.414 -15.936  1.00  0.00     0.025 C 
HETATM   15  C6          0      16.233  93.551 -16.062  1.00  0.00     0.004 C 
HETATM   16  C7          0      17.590  93.433 -15.781  1.00  0.00     0.026 C 
HETATM   17  C8          0      18.175  92.200 -15.513  1.00  0.00     0.112 C 
HETATM   18  C10         0      17.484  91.108 -16.021  1.00  0.00     0.112 C 
HETATM   19  C12         0      16.113  91.226 -16.213  1.00  0.00     0.028 C 
BRANCH  17  20
HETATM   20  O9          0      19.236  92.095 -14.631  1.00  0.00    -0.357 OA
HETATM   21  H9          0      19.730  91.295 -14.492  1.00  0.00     0.218 HD
ENDBRANCH  17  20
BRANCH  18  22
HETATM   22  O11         0      18.116  89.875 -15.948  1.00  0.00    -0.357 OA
HETATM   23  H11         0      19.042  89.853 -16.161  1.00  0.00     0.218 HD
ENDBRANCH  18  22
ENDBRANCH   4  14
BRANCH   8  24
HETATM   24  O17         0      12.460  92.421  -9.888  1.00  0.00    -0.359 OA
HETATM   25  H17         0      11.923  92.646  -9.137  1.00  0.00     0.218 HD
ENDBRANCH   8  24
TORSDOF 5
ENDMDL
MODEL 6
REMARK VINA RESULT:      -5.2     11.356     13.291
REMARK  5 active torsions:
REMARK  status: ('A' for Active; 'I' for Inactive)
REMARK    1  A    between atoms: C4_4  and  C5_5 
REMARK    2  A    between atoms: C8_8  and  O9_9 
REMARK    3  A    between atoms: C10_11  and  O11_12 
REMARK    4  A    between atoms: C16_18  and  O17_19 
REMARK    5  A    between atoms: C19_22  and  O20_23 
ROOT
HETATM    1  O1          0      24.715  94.748 -12.881  1.00  0.00    -0.286 OA
HETATM    2  C2          0      25.745  94.500 -13.565  1.00  0.00     0.201 C 
HETATM    3  C3          0      25.830  94.774 -14.920  1.00  0.00     0.067 C 
HETATM    4  C4          0      26.938  94.397 -15.671  1.00  0.00     0.103 C 
HETATM    5  O13         0      27.937  93.781 -15.064  1.00  0.00    -0.307 OA
HETATM    6  C14         0      27.891  93.464 -13.788  1.00  0.00     0.107 C 
HETATM    7  C15         0      28.721  92.493 -13.246  1.00  0.00     0.049 C 
HETATM    8  C16         0      28.499  91.983 -11.972  1.00  0.00     0.093 C 
HETATM    9  C18         0      27.798  92.825 -11.117  1.00  0.00     0.048 C 
HETATM   10  C19         0      26.995  93.837 -11.625  1.00  0.00     0.096 C 
HETATM   11  C21         0      26.905  94.018 -12.979  1.00  0.00     0.084 C 
ENDROOT
BRANCH  10  12
HETATM   12  O20         0      25.987  94.371 -10.828  1.00  0.00    -0.359 OA
HETATM   13  H20         0      25.881  94.021  -9.951  1.00  0.00     0.218 HD
ENDBRANCH  10  12
BRANCH   4  14
HETATM   14  C5          0      26.729  94.161 -17.100  1.00  0.00     0.025 C 
HETATM   15  C6          0      27.550  94.700 -18.080  1.00  0.00     0.004 C 
HETATM   16  C7          0      27.844  93.905 -19.183  1.00  0.00     0.026 C 
HETATM   17  C8          0      27.237  92.669 -19.374  1.00  0.00     0.112 C 
HETATM   18  C10         0      26.020  92.514 -18.725  1.00  0.00     0.112 C 
HETATM   19  C12         0      25.785  93.259 -17.575  1.00  0.00     0.028 C 
BRANCH  17  20
HETATM   20  O9          0      27.918  91.632 -19.988  1.00  0.00    -0.357 OA
HETATM   21  H9          0      28.379  91.719 -20.814  1.00  0.00     0.218 HD
ENDBRANCH  17  20
BRANCH  18  22
HETATM   22  O11         0      25.284  91.378 -19.032  1.00  0.00    -0.357 OA
HETATM   23  H11         0      25.694  90.742 -19.607  1.00  0.00     0.218 HD
ENDBRANCH  18  22
ENDBRANCH   4  14
BRANCH   8  24
HETATM   24  O17         0      28.665  90.622 -11.693  1.00  0.00    -0.359 OA
HETATM   25  H17         0      28.163  89.955 -12.146  1.00  0.00     0.218 HD
ENDBRANCH   8  24
TORSDOF 5
ENDMDL
MODEL 7
REMARK VINA RESULT:      -5.0      1.712      6.619
REMARK  5 active torsions:
REMARK  status: ('A' for Active; 'I' for Inactive)
REMARK    1  A    between atoms: C4_4  and  C5_5 
REMARK    2  A    between atoms: C8_8  and  O9_9 
REMARK    3  A    between atoms: C10_11  and  O11_12 
REMARK    4  A    between atoms: C16_18  and  O17_19 
REMARK    5  A    between atoms: C19_22  and  O20_23 
ROOT
HETATM    1  O1          0      13.784  94.697 -14.145  1.00  0.00    -0.286 OA
HETATM    2  C2          0      14.227  93.516 -14.144  1.00  0.00     0.201 C 
HETATM    3  C3          0      15.270  93.105 -14.956  1.00  0.00     0.067 C 
HETATM    4  C4          0      15.671  91.775 -15.010  1.00  0.00     0.103 C 
HETATM    5  O13         0      15.048  90.893 -14.248  1.00  0.00    -0.307 OA
HETATM    6  C14         0      14.028  91.223 -13.487  1.00  0.00     0.107 C 
HETATM    7  C15         0      13.135  90.275 -13.009  1.00  0.00     0.049 C 
HETATM    8  C16         0      11.929  90.648 -12.427  1.00  0.00     0.093 C 
HETATM    9  C18         0      11.912  91.926 -11.881  1.00  0.00     0.048 C 
HETATM   10  C19         0      12.822  92.886 -12.302  1.00  0.00     0.096 C 
HETATM   11  C21         0      13.755  92.566 -13.251  1.00  0.00     0.084 C 
ENDROOT
BRANCH  10  12
HETATM   12  O20         0      12.536  94.232 -12.095  1.00  0.00    -0.359 OA
HETATM   13  H20         0      12.863  94.859 -12.729  1.00  0.00     0.218 HD
ENDBRANCH  10  12
BRANCH   4  14
HETATM   14  C5          0      16.302  91.315 -16.248  1.00  0.00     0.025 C 
HETATM   15  C6          0      15.929  91.781 -17.500  1.00  0.00     0.004 C 
HETATM   16  C7          0      16.936  91.984 -18.438  1.00  0.00     0.026 C 
HETATM   17  C8          0      18.252  91.611 -18.188  1.00  0.00     0.112 C 
HETATM   18  C10         0      18.401  90.618 -17.229  1.00  0.00     0.112 C 
HETATM   19  C12         0      17.421  90.492 -16.252  1.00  0.00     0.028 C 
BRANCH  17  20
HETATM   20  O9          0      19.307  92.338 -18.712  1.00  0.00    -0.357 OA
HETATM   21  H9          0      19.844  92.042 -19.438  1.00  0.00     0.218 HD
ENDBRANCH  17  20
BRANCH  18  22
HETATM   22  O11         0      19.670  90.077 -17.077  1.00  0.00    -0.357 OA
HETATM   23  H11         0      19.763  89.146 -17.242  1.00  0.00     0.218 HD
ENDBRANCH  18  22
ENDBRANCH   4  14
BRANCH   8  24
HETATM   24  O17         0      10.750  89.937 -12.673  1.00  0.00    -0.359 OA
HETATM   25  H17         0      10.497  89.679 -13.551  1.00  0.00     0.218 HD
ENDBRANCH   8  24
TORSDOF 5
ENDMDL
MODEL 8
REMARK VINA RESULT:      -5.0     15.041     16.833
REMARK  5 active torsions:
REMARK  status: ('A' for Active; 'I' for Inactive)
REMARK    1  A    between atoms: C4_4  and  C5_5 
REMARK    2  A    between atoms: C8_8  and  O9_9 
REMARK    3  A    between atoms: C10_11  and  O11_12 
REMARK    4  A    between atoms: C16_18  and  O17_19 
REMARK    5  A    between atoms: C19_22  and  O20_23 
ROOT
HETATM    1  O1          0      20.951  92.426  -0.476  1.00  0.00    -0.286 OA
HETATM    2  C2          0      22.009  92.634  -1.130  1.00  0.00     0.201 C 
HETATM    3  C3          0      22.803  93.752  -0.937  1.00  0.00     0.067 C 
HETATM    4  C4          0      23.907  94.009  -1.741  1.00  0.00     0.103 C 
HETATM    5  O13         0      24.209  93.150  -2.699  1.00  0.00    -0.307 OA
HETATM    6  C14         0      23.467  92.093  -2.949  1.00  0.00     0.107 C 
HETATM    7  C15         0      23.532  91.425  -4.164  1.00  0.00     0.049 C 
HETATM    8  C16         0      22.578  90.479  -4.519  1.00  0.00     0.093 C 
HETATM    9  C18         0      21.925  89.875  -3.452  1.00  0.00     0.048 C 
HETATM   10  C19         0      21.880  90.494  -2.210  1.00  0.00     0.096 C 
HETATM   11  C21         0      22.499  91.701  -2.031  1.00  0.00     0.084 C 
ENDROOT
BRANCH  10  12
HETATM   12  O20         0      20.893  90.125  -1.301  1.00  0.00    -0.359 OA
HETATM   13  H20         0      20.136  89.657  -1.632  1.00  0.00     0.218 HD
ENDBRANCH  10  12
BRANCH   4  14
HETATM   14  C5          0      24.312  95.407  -1.896  1.00  0.00     0.025 C 
HETATM   15  C6          0      23.680  96.451  -1.236  1.00  0.00     0.004 C 
HETATM   16  C7          0      24.474  97.491  -0.765  1.00  0.00     0.026 C 
HETATM   17  C8          0      25.832  97.562  -1.057  1.00  0.00     0.112 C 
HETATM   18  C10         0      26.217  96.869  -2.197  1.00  0.00     0.112 C 
HETATM   19  C12         0      25.452  95.779  -2.597  1.00  0.00     0.028 C 
BRANCH  17  20
HETATM   20  O9          0      26.725  98.104  -0.150  1.00  0.00    -0.357 OA
HETATM   21  H9          0      27.103  98.972  -0.236  1.00  0.00     0.218 HD
ENDBRANCH  17  20
BRANCH  18  22
HETATM   22  O11         0      27.518  97.059  -2.639  1.00  0.00    -0.357 OA
HETATM   23  H11         0      27.629  97.504  -3.472  1.00  0.00     0.218 HD
ENDBRANCH  18  22
ENDBRANCH   4  14
BRANCH   8  24
HETATM   24  O17         0      22.086  90.396  -5.826  1.00  0.00    -0.359 OA
HETATM   25  H17         0      21.681  89.603  -6.157  1.00  0.00     0.218 HD
ENDBRANCH   8  24
TORSDOF 5
ENDMDL
MODEL 9
REMARK VINA RESULT:      -4.9      1.739      2.286
REMARK  5 active torsions:
REMARK  status: ('A' for Active; 'I' for Inactive)
REMARK    1  A    between atoms: C4_4  and  C5_5 
REMARK    2  A    between atoms: C8_8  and  O9_9 
REMARK    3  A    between atoms: C10_11  and  O11_12 
REMARK    4  A    between atoms: C16_18  and  O17_19 
REMARK    5  A    between atoms: C19_22  and  O20_23 
ROOT
HETATM    1  O1          0      18.195  94.919 -14.640  1.00  0.00    -0.286 OA
HETATM    2  C2          0      17.421  94.075 -15.168  1.00  0.00     0.201 C 
HETATM    3  C3          0      16.092  93.945 -14.804  1.00  0.00     0.067 C 
HETATM    4  C4          0      15.288  92.938 -15.328  1.00  0.00     0.103 C 
HETATM    5  O13         0      15.810  92.103 -16.209  1.00  0.00    -0.307 OA
HETATM    6  C14         0      17.075  92.159 -16.561  1.00  0.00     0.107 C 
HETATM    7  C15         0      17.718  91.081 -17.152  1.00  0.00     0.049 C 
HETATM    8  C16         0      19.101  91.051 -17.287  1.00  0.00     0.093 C 
HETATM    9  C18         0      19.716  92.297 -17.310  1.00  0.00     0.048 C 
HETATM   10  C19         0      19.081  93.407 -16.770  1.00  0.00     0.096 C 
HETATM   11  C21         0      17.832  93.277 -16.225  1.00  0.00     0.084 C 
ENDROOT
BRANCH  10  12
HETATM   12  O20         0      19.840  94.514 -16.403  1.00  0.00    -0.359 OA
HETATM   13  H20         0      20.785  94.441 -16.451  1.00  0.00     0.218 HD
ENDBRANCH  10  12
BRANCH   4  14
HETATM   14  C5          0      14.162  92.485 -14.508  1.00  0.00     0.025 C 
HETATM   15  C6          0      13.517  91.276 -14.720  1.00  0.00     0.004 C 
HETATM   16  C7          0      13.107  90.560 -13.600  1.00  0.00     0.026 C 
HETATM   17  C8          0      13.212  91.088 -12.317  1.00  0.00     0.112 C 
HETATM   18  C10         0      13.260  92.474 -12.264  1.00  0.00     0.112 C 
HETATM   19  C12         0      13.754  93.162 -13.366  1.00  0.00     0.028 C 
BRANCH  17  20
HETATM   20  O9          0      13.463  90.268 -11.232  1.00  0.00    -0.357 OA
HETATM   21  H9          0      13.102  90.415 -10.365  1.00  0.00     0.218 HD
ENDBRANCH  17  20
BRANCH  18  22
HETATM   22  O11         0      13.174  93.058 -11.008  1.00  0.00    -0.357 OA
HETATM   23  H11         0      12.867  93.956 -10.970  1.00  0.00     0.218 HD
ENDBRANCH  18  22
ENDBRANCH   4  14
BRANCH   8  24
HETATM   24  O17         0      19.829  89.875 -17.074  1.00  0.00    -0.359 OA
HETATM   25  H17         0      20.749  89.894 -16.837  1.00  0.00     0.218 HD
ENDBRANCH   8  24
TORSDOF 5
ENDMDL
