MODEL 1
REMARK VINA RESULT:      -0.0      0.000      0.000
REMARK  5 active torsions:
REMARK  status: ('A' for Active; 'I' for Inactive)
REMARK    1  A    between atoms: C4_4  and  C5_5 
REMARK    2  A    between atoms: C8_8  and  O9_9 
REMARK    3  A    between atoms: C10_11  and  O11_12 
REMARK    4  A    between atoms: C16_18  and  O17_19 
REMARK    5  A    between atoms: C19_22  and  O20_23 
ROOT
HETATM    1  O1          0      61.739  95.649  37.833  1.00  0.00    -0.286 OA
HETATM    2  C2          0      62.129  94.864  36.926  1.00  0.00     0.201 C 
HETATM    3  C3          0      61.696  93.552  36.831  1.00  0.00     0.067 C 
HETATM    4  C4          0      62.219  92.679  35.884  1.00  0.00     0.103 C 
HETATM    5  O13         0      63.136  93.127  35.045  1.00  0.00    -0.307 OA
HETATM    6  C14         0      63.609  94.353  35.116  1.00  0.00     0.107 C 
HETATM    7  C15         0      64.817  94.705  34.532  1.00  0.00     0.049 C 
HETATM    8  C16         0      65.432  95.917  34.821  1.00  0.00     0.093 C 
HETATM    9  C18         0      64.575  96.921  35.255  1.00  0.00     0.048 C 
HETATM   10  C19         0      63.339  96.606  35.801  1.00  0.00     0.096 C 
HETATM   11  C21         0      62.953  95.297  35.899  1.00  0.00     0.084 C 
ENDROOT
BRANCH  10  12
HETATM   12  O20         0      62.695  97.537  36.611  1.00  0.00    -0.359 OA
HETATM   13  H20         0      61.954  97.243  37.125  1.00  0.00     0.218 HD
ENDBRANCH  10  12
BRANCH   4  14
HETATM   14  C5          0      62.195  91.251  36.204  1.00  0.00     0.025 C 
HETATM   15  C6          0      63.106  90.346  35.678  1.00  0.00     0.004 C 
HETATM   16  C7          0      63.565  89.333  36.513  1.00  0.00     0.026 C 
HETATM   17  C8          0      63.039  89.143  37.786  1.00  0.00     0.112 C 
HETATM   18  C10         0      61.759  89.650  37.966  1.00  0.00     0.112 C 
HETATM   19  C12         0      61.355  90.719  37.175  1.00  0.00     0.028 C 
BRANCH  17  20
HETATM   20  O9          0      63.832  88.675  38.819  1.00  0.00    -0.357 OA
HETATM   21  H9          0      63.549  88.021  39.447  1.00  0.00     0.218 HD
ENDBRANCH  17  20
BRANCH  18  22
HETATM   22  O11         0      61.114  89.324  39.150  1.00  0.00    -0.357 OA
HETATM   23  H11         0      60.225  89.642  39.258  1.00  0.00     0.218 HD
ENDBRANCH  18  22
ENDBRANCH   4  14
BRANCH   8  24
HETATM   24  O17         0      66.819  96.010  34.987  1.00  0.00    -0.359 OA
HETATM   25  H17         0      67.422  95.582  34.391  1.00  0.00     0.218 HD
ENDBRANCH   8  24
TORSDOF 5
ENDMDL
MODEL 2
REMARK VINA RESULT:      -0.0      7.068      9.276
REMARK  5 active torsions:
REMARK  status: ('A' for Active; 'I' for Inactive)
REMARK    1  A    between atoms: C4_4  and  C5_5 
REMARK    2  A    between atoms: C8_8  and  O9_9 
REMARK    3  A    between atoms: C10_11  and  O11_12 
REMARK    4  A    between atoms: C16_18  and  O17_19 
REMARK    5  A    between atoms: C19_22  and  O20_23 
ROOT
HETATM    1  O1          0      58.874  88.102  31.053  1.00  0.00    -0.286 OA
HETATM    2  C2          0      59.806  88.000  31.897  1.00  0.00     0.201 C 
HETATM    3  C3          0      61.086  88.475  31.662  1.00  0.00     0.067 C 
HETATM    4  C4          0      62.120  88.259  32.566  1.00  0.00     0.103 C 
HETATM    5  O13         0      61.861  87.601  33.682  1.00  0.00    -0.307 OA
HETATM    6  C14         0      60.674  87.097  33.937  1.00  0.00     0.107 C 
HETATM    7  C15         0      60.492  86.091  34.875  1.00  0.00     0.049 C 
HETATM    8  C16         0      59.296  85.390  34.959  1.00  0.00     0.093 C 
HETATM    9  C18         0      58.183  86.066  34.473  1.00  0.00     0.048 C 
HETATM   10  C19         0      58.332  87.109  33.568  1.00  0.00     0.096 C 
HETATM   11  C21         0      59.584  87.485  33.165  1.00  0.00     0.084 C 
ENDROOT
BRANCH  10  12
HETATM   12  O20         0      57.251  87.477  32.772  1.00  0.00    -0.359 OA
HETATM   13  H20         0      57.411  88.082  32.057  1.00  0.00     0.218 HD
ENDBRANCH  10  12
BRANCH   4  14
HETATM   14  C5          0      63.482  88.229  32.030  1.00  0.00     0.025 C 
HETATM   15  C6          0      64.513  87.524  32.634  1.00  0.00     0.004 C 
HETATM   16  C7          0      65.423  86.876  31.806  1.00  0.00     0.026 C 
HETATM   17  C8          0      65.391  87.031  30.425  1.00  0.00     0.112 C 
HETATM   18  C10         0      64.777  88.197  29.986  1.00  0.00     0.112 C 
HETATM   19  C12         0      63.809  88.778  30.796  1.00  0.00     0.028 C 
BRANCH  17  20
HETATM   20  O9          0      65.757  85.993  29.586  1.00  0.00    -0.357 OA
HETATM   21  H9          0      66.658  85.740  29.422  1.00  0.00     0.218 HD
ENDBRANCH  17  20
BRANCH  18  22
HETATM   22  O11         0      64.884  88.493  28.635  1.00  0.00    -0.357 OA
HETATM   23  H11         0      65.375  89.274  28.403  1.00  0.00     0.218 HD
ENDBRANCH  18  22
ENDBRANCH   4  14
BRANCH   8  24
HETATM   24  O17         0      59.274  84.010  35.193  1.00  0.00    -0.359 OA
HETATM   25  H17         0      58.473  83.504  35.120  1.00  0.00     0.218 HD
ENDBRANCH   8  24
TORSDOF 5
ENDMDL
MODEL 3
REMARK VINA RESULT:       0.0     12.670     14.668
REMARK  5 active torsions:
REMARK  status: ('A' for Active; 'I' for Inactive)
REMARK    1  A    between atoms: C4_4  and  C5_5 
REMARK    2  A    between atoms: C8_8  and  O9_9 
REMARK    3  A    between atoms: C10_11  and  O11_12 
REMARK    4  A    between atoms: C16_18  and  O17_19 
REMARK    5  A    between atoms: C19_22  and  O20_23 
ROOT
HETATM    1  O1          0      62.479  90.070  25.275  1.00  0.00    -0.286 OA
HETATM    2  C2          0      63.183  89.888  24.244  1.00  0.00     0.201 C 
HETATM    3  C3          0      64.551  89.684  24.296  1.00  0.00     0.067 C 
HETATM    4  C4          0      65.318  89.590  23.140  1.00  0.00     0.103 C 
HETATM    5  O13         0      64.714  89.678  21.968  1.00  0.00    -0.307 OA
HETATM    6  C14         0      63.423  89.909  21.863  1.00  0.00     0.107 C 
HETATM    7  C15         0      62.861  90.393  20.691  1.00  0.00     0.049 C 
HETATM    8  C16         0      61.557  90.874  20.660  1.00  0.00     0.093 C 
HETATM    9  C18         0      60.723  90.369  21.650  1.00  0.00     0.048 C 
HETATM   10  C19         0      61.254  89.834  22.816  1.00  0.00     0.096 C 
HETATM   11  C21         0      62.611  89.788  22.985  1.00  0.00     0.084 C 
ENDROOT
BRANCH  10  12
HETATM   12  O20         0      60.451  89.741  23.949  1.00  0.00    -0.359 OA
HETATM   13  H20         0      60.219  88.874  24.260  1.00  0.00     0.218 HD
ENDBRANCH  10  12
BRANCH   4  14
HETATM   14  C5          0      66.727  89.976  23.238  1.00  0.00     0.025 C 
HETATM   15  C6          0      67.453  90.449  22.154  1.00  0.00     0.004 C 
HETATM   16  C7          0      68.366  91.473  22.388  1.00  0.00     0.026 C 
HETATM   17  C8          0      68.645  91.922  23.674  1.00  0.00     0.112 C 
HETATM   18  C10         0      68.376  91.003  24.680  1.00  0.00     0.112 C 
HETATM   19  C12         0      67.398  90.042  24.452  1.00  0.00     0.028 C 
BRANCH  17  20
HETATM   20  O9          0      68.960  93.248  23.909  1.00  0.00    -0.357 OA
HETATM   21  H9          0      69.832  93.552  24.133  1.00  0.00     0.218 HD
ENDBRANCH  17  20
BRANCH  18  22
HETATM   22  O11         0      68.810  91.326  25.958  1.00  0.00    -0.357 OA
HETATM   23  H11         0      69.682  91.694  26.035  1.00  0.00     0.218 HD
ENDBRANCH  18  22
ENDBRANCH   4  14
BRANCH   8  24
HETATM   24  O17         0      61.216  92.011  19.920  1.00  0.00    -0.359 OA
HETATM   25  H17         0      61.794  92.365  19.254  1.00  0.00     0.218 HD
ENDBRANCH   8  24
TORSDOF 5
ENDMDL
MODEL 4
REMARK VINA RESULT:       0.0     10.219     11.718
REMARK  5 active torsions:
REMARK  status: ('A' for Active; 'I' for Inactive)
REMARK    1  A    between atoms: C4_4  and  C5_5 
REMARK    2  A    between atoms: C8_8  and  O9_9 
REMARK    3  A    between atoms: C10_11  and  O11_12 
REMARK    4  A    between atoms: C16_18  and  O17_19 
REMARK    5  A    between atoms: C19_22  and  O20_23 
ROOT
HETATM    1  O1          0      55.085  94.858  26.945  1.00  0.00    -0.286 OA
HETATM    2  C2          0      55.400  95.898  27.586  1.00  0.00     0.201 C 
HETATM    3  C3          0      56.624  96.051  28.214  1.00  0.00     0.067 C 
HETATM    4  C4          0      56.906  97.163  28.999  1.00  0.00     0.103 C 
HETATM    5  O13         0      55.984  98.100  29.127  1.00  0.00    -0.307 OA
HETATM    6  C14         0      54.792  97.987  28.583  1.00  0.00     0.107 C 
HETATM    7  C15         0      53.712  98.738  29.026  1.00  0.00     0.049 C 
HETATM    8  C16         0      52.414  98.438  28.630  1.00  0.00     0.093 C 
HETATM    9  C18         0      52.311  97.754  27.425  1.00  0.00     0.048 C 
HETATM   10  C19         0      53.388  97.031  26.930  1.00  0.00     0.096 C 
HETATM   11  C21         0      54.566  97.005  27.625  1.00  0.00     0.084 C 
ENDROOT
BRANCH  10  12
HETATM   12  O20         0      53.160  96.026  25.994  1.00  0.00    -0.359 OA
HETATM   13  H20         0      53.355  96.213  25.084  1.00  0.00     0.218 HD
ENDBRANCH  10  12
BRANCH   4  14
HETATM   14  C5          0      57.894  96.996  30.067  1.00  0.00     0.025 C 
HETATM   15  C6          0      57.894  97.769  31.219  1.00  0.00     0.004 C 
HETATM   16  C7          0      58.217  97.141  32.417  1.00  0.00     0.026 C 
HETATM   17  C8          0      58.655  95.821  32.454  1.00  0.00     0.112 C 
HETATM   18  C10         0      59.215  95.363  31.269  1.00  0.00     0.112 C 
HETATM   19  C12         0      58.810  95.952  30.076  1.00  0.00     0.028 C 
BRANCH  17  20
HETATM   20  O9          0      58.349  95.002  33.526  1.00  0.00    -0.357 OA
HETATM   21  H9          0      57.553  95.081  34.040  1.00  0.00     0.218 HD
ENDBRANCH  17  20
BRANCH  18  22
HETATM   22  O11         0      59.837  94.123  31.305  1.00  0.00    -0.357 OA
HETATM   23  H11         0      60.715  94.071  30.945  1.00  0.00     0.218 HD
ENDBRANCH  18  22
ENDBRANCH   4  14
BRANCH   8  24
HETATM   24  O17         0      51.343  98.514  29.527  1.00  0.00    -0.359 OA
HETATM   25  H17         0      51.228  97.877  30.223  1.00  0.00     0.218 HD
ENDBRANCH   8  24
TORSDOF 5
ENDMDL
MODEL 5
REMARK VINA RESULT:       0.0      7.961      9.192
REMARK  5 active torsions:
REMARK  status: ('A' for Active; 'I' for Inactive)
REMARK    1  A    between atoms: C4_4  and  C5_5 
REMARK    2  A    between atoms: C8_8  and  O9_9 
REMARK    3  A    between atoms: C10_11  and  O11_12 
REMARK    4  A    between atoms: C16_18  and  O17_19 
REMARK    5  A    between atoms: C19_22  and  O20_23 
ROOT
HETATM    1  O1          0      59.713  89.733  27.683  1.00  0.00    -0.286 OA
HETATM    2  C2          0      59.390  90.029  28.866  1.00  0.00     0.201 C 
HETATM    3  C3          0      58.798  89.125  29.731  1.00  0.00     0.067 C 
HETATM    4  C4          0      58.359  89.505  30.994  1.00  0.00     0.103 C 
HETATM    5  O13         0      58.533  90.757  31.376  1.00  0.00    -0.307 OA
HETATM    6  C14         0      59.055  91.665  30.581  1.00  0.00     0.107 C 
HETATM    7  C15         0      58.880  93.023  30.806  1.00  0.00     0.049 C 
HETATM    8  C16         0      59.209  93.963  29.837  1.00  0.00     0.093 C 
HETATM    9  C18         0      60.169  93.551  28.921  1.00  0.00     0.048 C 
HETATM   10  C19         0      60.403  92.199  28.705  1.00  0.00     0.096 C 
HETATM   11  C21         0      59.696  91.266  29.412  1.00  0.00     0.084 C 
ENDROOT
BRANCH  10  12
HETATM   12  O20         0      61.015  91.796  27.522  1.00  0.00    -0.359 OA
HETATM   13  H20         0      60.630  91.070  27.047  1.00  0.00     0.218 HD
ENDBRANCH  10  12
BRANCH   4  14
HETATM   14  C5          0      57.259  88.736  31.581  1.00  0.00     0.025 C 
HETATM   15  C6          0      56.380  89.270  32.511  1.00  0.00     0.004 C 
HETATM   16  C7          0      55.043  88.898  32.422  1.00  0.00     0.026 C 
HETATM   17  C8          0      54.614  87.925  31.525  1.00  0.00     0.112 C 
HETATM   18  C10         0      55.601  87.036  31.120  1.00  0.00     0.112 C 
HETATM   19  C12         0      56.923  87.462  31.139  1.00  0.00     0.028 C 
BRANCH  17  20
HETATM   20  O9          0      53.361  87.999  30.943  1.00  0.00    -0.357 OA
HETATM   21  H9          0      53.202  87.877  30.015  1.00  0.00     0.218 HD
ENDBRANCH  17  20
BRANCH  18  22
HETATM   22  O11         0      55.190  85.937  30.378  1.00  0.00    -0.357 OA
HETATM   23  H11         0      54.264  85.724  30.402  1.00  0.00     0.218 HD
ENDBRANCH  18  22
ENDBRANCH   4  14
BRANCH   8  24
HETATM   24  O17         0      58.404  95.084  29.605  1.00  0.00    -0.359 OA
HETATM   25  H17         0      57.981  95.551  30.316  1.00  0.00     0.218 HD
ENDBRANCH   8  24
TORSDOF 5
ENDMDL
MODEL 6
REMARK VINA RESULT:       0.0      5.961      7.540
REMARK  5 active torsions:
REMARK  status: ('A' for Active; 'I' for Inactive)
REMARK    1  A    between atoms: C4_4  and  C5_5 
REMARK    2  A    between atoms: C8_8  and  O9_9 
REMARK    3  A    between atoms: C10_11  and  O11_12 
REMARK    4  A    between atoms: C16_18  and  O17_19 
REMARK    5  A    between atoms: C19_22  and  O20_23 
ROOT
HETATM    1  O1          0      66.114  96.964  31.550  1.00  0.00    -0.286 OA
HETATM    2  C2          0      65.517  96.456  30.561  1.00  0.00     0.201 C 
HETATM    3  C3          0      64.501  95.525  30.694  1.00  0.00     0.067 C 
HETATM    4  C4          0      63.930  94.906  29.588  1.00  0.00     0.103 C 
HETATM    5  O13         0      64.361  95.236  28.383  1.00  0.00    -0.307 OA
HETATM    6  C14         0      65.348  96.086  28.202  1.00  0.00     0.107 C 
HETATM    7  C15         0      66.061  96.136  27.013  1.00  0.00     0.049 C 
HETATM    8  C16         0      67.252  96.846  26.915  1.00  0.00     0.093 C 
HETATM    9  C18         0      67.395  97.881  27.831  1.00  0.00     0.048 C 
HETATM   10  C19         0      66.662  97.887  29.010  1.00  0.00     0.096 C 
HETATM   11  C21         0      65.778  96.874  29.265  1.00  0.00     0.084 C 
ENDROOT
BRANCH  10  12
HETATM   12  O20         0      67.108  98.649  30.085  1.00  0.00    -0.359 OA
HETATM   13  H20         0      67.863  99.210  29.950  1.00  0.00     0.218 HD
ENDBRANCH  10  12
BRANCH   4  14
HETATM   14  C5          0      63.350  93.577  29.789  1.00  0.00     0.025 C 
HETATM   15  C6          0      63.247  92.639  28.772  1.00  0.00     0.004 C 
HETATM   16  C7          0      63.478  91.307  29.098  1.00  0.00     0.026 C 
HETATM   17  C8          0      63.671  90.900  30.414  1.00  0.00     0.112 C 
HETATM   18  C10         0      63.138  91.756  31.369  1.00  0.00     0.112 C 
HETATM   19  C12         0      62.998  93.101  31.046  1.00  0.00     0.028 C 
BRANCH  17  20
HETATM   20  O9          0      64.511  89.843  30.713  1.00  0.00    -0.357 OA
HETATM   21  H9          0      65.458  89.911  30.738  1.00  0.00     0.218 HD
ENDBRANCH  17  20
BRANCH  18  22
HETATM   22  O11         0      63.136  91.309  32.682  1.00  0.00    -0.357 OA
HETATM   23  H11         0      63.963  91.339  33.149  1.00  0.00     0.218 HD
ENDBRANCH  18  22
ENDBRANCH   4  14
BRANCH   8  24
HETATM   24  O17         0      68.341  96.346  26.193  1.00  0.00    -0.359 OA
HETATM   25  H17         0      69.234  96.592  26.403  1.00  0.00     0.218 HD
ENDBRANCH   8  24
TORSDOF 5
ENDMDL
MODEL 7
REMARK VINA RESULT:       0.0      9.249     10.530
REMARK  5 active torsions:
REMARK  status: ('A' for Active; 'I' for Inactive)
REMARK    1  A    between atoms: C4_4  and  C5_5 
REMARK    2  A    between atoms: C8_8  and  O9_9 
REMARK    3  A    between atoms: C10_11  and  O11_12 
REMARK    4  A    between atoms: C16_18  and  O17_19 
REMARK    5  A    between atoms: C19_22  and  O20_23 
ROOT
HETATM    1  O1          0      64.484  91.501  29.690  1.00  0.00    -0.286 OA
HETATM    2  C2          0      64.492  90.967  28.547  1.00  0.00     0.201 C 
HETATM    3  C3          0      64.849  89.645  28.339  1.00  0.00     0.067 C 
HETATM    4  C4          0      64.949  89.111  27.059  1.00  0.00     0.103 C 
HETATM    5  O13         0      64.676  89.885  26.024  1.00  0.00    -0.307 OA
HETATM    6  C14         0      64.370  91.156  26.164  1.00  0.00     0.107 C 
HETATM    7  C15         0      64.475  92.054  25.111  1.00  0.00     0.049 C 
HETATM    8  C16         0      64.399  93.425  25.322  1.00  0.00     0.093 C 
HETATM    9  C18         0      63.707  93.806  26.465  1.00  0.00     0.048 C 
HETATM   10  C19         0      63.542  92.917  27.519  1.00  0.00     0.096 C 
HETATM   11  C21         0      64.051  91.651  27.424  1.00  0.00     0.084 C 
ENDROOT
BRANCH  10  12
HETATM   12  O20         0      63.254  93.412  28.787  1.00  0.00    -0.359 OA
HETATM   13  H20         0      63.974  93.749  29.308  1.00  0.00     0.218 HD
ENDBRANCH  10  12
BRANCH   4  14
HETATM   14  C5          0      65.866  87.984  26.874  1.00  0.00     0.025 C 
HETATM   15  C6          0      66.476  87.703  25.661  1.00  0.00     0.004 C 
HETATM   16  C7          0      67.794  87.258  25.689  1.00  0.00     0.026 C 
HETATM   17  C8          0      68.442  86.974  26.887  1.00  0.00     0.112 C 
HETATM   18  C10         0      67.596  86.677  27.947  1.00  0.00     0.112 C 
HETATM   19  C12         0      66.310  87.204  27.934  1.00  0.00     0.028 C 
BRANCH  17  20
HETATM   20  O9          0      69.802  87.188  27.025  1.00  0.00    -0.357 OA
HETATM   21  H9          0      70.351  86.714  27.639  1.00  0.00     0.218 HD
ENDBRANCH  17  20
BRANCH  18  22
HETATM   22  O11         0      68.188  86.203  29.109  1.00  0.00    -0.357 OA
HETATM   23  H11         0      67.622  85.757  29.729  1.00  0.00     0.218 HD
ENDBRANCH  18  22
ENDBRANCH   4  14
BRANCH   8  24
HETATM   24  O17         0      65.231  94.316  24.635  1.00  0.00    -0.359 OA
HETATM   25  H17         0      65.102  95.256  24.679  1.00  0.00     0.218 HD
ENDBRANCH   8  24
TORSDOF 5
ENDMDL
MODEL 8
REMARK VINA RESULT:       0.0      4.498      7.688
REMARK  5 active torsions:
REMARK  status: ('A' for Active; 'I' for Inactive)
REMARK    1  A    between atoms: C4_4  and  C5_5 
REMARK    2  A    between atoms: C8_8  and  O9_9 
REMARK    3  A    between atoms: C10_11  and  O11_12 
REMARK    4  A    between atoms: C16_18  and  O17_19 
REMARK    5  A    between atoms: C19_22  and  O20_23 
ROOT
HETATM    1  O1          0      58.066  94.600  32.627  1.00  0.00    -0.286 OA
HETATM    2  C2          0      58.120  94.463  33.880  1.00  0.00     0.201 C 
HETATM    3  C3          0      57.495  95.332  34.758  1.00  0.00     0.067 C 
HETATM    4  C4          0      57.656  95.218  36.134  1.00  0.00     0.103 C 
HETATM    5  O13         0      58.409  94.240  36.606  1.00  0.00    -0.307 OA
HETATM    6  C14         0      59.054  93.411  35.816  1.00  0.00     0.107 C 
HETATM    7  C15         0      60.132  92.662  36.265  1.00  0.00     0.049 C 
HETATM    8  C16         0      60.963  91.988  35.378  1.00  0.00     0.093 C 
HETATM    9  C18         0      60.382  91.666  34.158  1.00  0.00     0.048 C 
HETATM   10  C19         0      59.273  92.365  33.699  1.00  0.00     0.096 C 
HETATM   11  C21         0      58.738  93.367  34.462  1.00  0.00     0.084 C 
ENDROOT
BRANCH  10  12
HETATM   12  O20         0      58.973  92.348  32.341  1.00  0.00    -0.359 OA
HETATM   13  H20         0      58.091  92.583  32.077  1.00  0.00     0.218 HD
ENDBRANCH  10  12
BRANCH   4  14
HETATM   14  C5          0      57.504  96.438  36.929  1.00  0.00     0.025 C 
HETATM   15  C6          0      58.130  96.620  38.154  1.00  0.00     0.004 C 
HETATM   16  C7          0      58.622  97.889  38.444  1.00  0.00     0.026 C 
HETATM   17  C8          0      58.381  98.973  37.607  1.00  0.00     0.112 C 
HETATM   18  C10         0      57.263  98.841  36.794  1.00  0.00     0.112 C 
HETATM   19  C12         0      56.844  97.562  36.450  1.00  0.00     0.028 C 
BRANCH  17  20
HETATM   20  O9          0      59.317  99.983  37.468  1.00  0.00    -0.357 OA
HETATM   21  H9          0      59.508 100.622  38.145  1.00  0.00     0.218 HD
ENDBRANCH  17  20
BRANCH  18  22
HETATM   22  O11         0      56.869  99.964  36.080  1.00  0.00    -0.357 OA
HETATM   23  H11         0      56.115  99.868  35.510  1.00  0.00     0.218 HD
ENDBRANCH  18  22
ENDBRANCH   4  14
BRANCH   8  24
HETATM   24  O17         0      62.349  91.946  35.567  1.00  0.00    -0.359 OA
HETATM   25  H17         0      62.741  91.467  36.287  1.00  0.00     0.218 HD
ENDBRANCH   8  24
TORSDOF 5
ENDMDL
MODEL 9
REMARK VINA RESULT:       0.0      3.833      5.172
REMARK  5 active torsions:
REMARK  status: ('A' for Active; 'I' for Inactive)
REMARK    1  A    between atoms: C4_4  and  C5_5 
REMARK    2  A    between atoms: C8_8  and  O9_9 
REMARK    3  A    between atoms: C10_11  and  O11_12 
REMARK    4  A    between atoms: C16_18  and  O17_19 
REMARK    5  A    between atoms: C19_22  and  O20_23 
ROOT
HETATM    1  O1          0      57.097  90.711  34.452  1.00  0.00    -0.286 OA
HETATM    2  C2          0      58.259  91.066  34.113  1.00  0.00     0.201 C 
HETATM    3  C3          0      59.212  90.172  33.655  1.00  0.00     0.067 C 
HETATM    4  C4          0      60.516  90.573  33.386  1.00  0.00     0.103 C 
HETATM    5  O13         0      60.838  91.843  33.556  1.00  0.00    -0.307 OA
HETATM    6  C14         0      59.982  92.724  34.024  1.00  0.00     0.107 C 
HETATM    7  C15         0      60.399  93.927  34.575  1.00  0.00     0.049 C 
HETATM    8  C16         0      59.525  94.734  35.292  1.00  0.00     0.093 C 
HETATM    9  C18         0      58.181  94.566  34.981  1.00  0.00     0.048 C 
HETATM   10  C19         0      57.737  93.393  34.386  1.00  0.00     0.096 C 
HETATM   11  C21         0      58.631  92.401  34.089  1.00  0.00     0.084 C 
ENDROOT
BRANCH  10  12
HETATM   12  O20         0      56.391  93.052  34.477  1.00  0.00    -0.359 OA
HETATM   13  H20         0      56.060  92.765  35.320  1.00  0.00     0.218 HD
ENDBRANCH  10  12
BRANCH   4  14
HETATM   14  C5          0      61.566  89.558  33.501  1.00  0.00     0.025 C 
HETATM   15  C6          0      62.884  89.871  33.798  1.00  0.00     0.004 C 
HETATM   16  C7          0      63.579  89.005  34.637  1.00  0.00     0.026 C 
HETATM   17  C8          0      63.028  87.800  35.059  1.00  0.00     0.112 C 
HETATM   18  C10         0      62.028  87.300  34.236  1.00  0.00     0.112 C 
HETATM   19  C12         0      61.292  88.197  33.471  1.00  0.00     0.028 C 
BRANCH  17  20
HETATM   20  O9          0      63.324  87.283  36.308  1.00  0.00    -0.357 OA
HETATM   21  H9          0      62.723  87.301  37.043  1.00  0.00     0.218 HD
ENDBRANCH  17  20
BRANCH  18  22
HETATM   22  O11         0      61.577  86.015  34.504  1.00  0.00    -0.357 OA
HETATM   23  H11         0      60.641  85.864  34.433  1.00  0.00     0.218 HD
ENDBRANCH  18  22
ENDBRANCH   4  14
BRANCH   8  24
HETATM   24  O17         0      59.933  95.400  36.454  1.00  0.00    -0.359 OA
HETATM   25  H17         0      59.806  96.335  36.564  1.00  0.00     0.218 HD
ENDBRANCH   8  24
TORSDOF 5
ENDMDL
