MODEL 1
REMARK VINA RESULT:      -6.8      0.000      0.000
REMARK  5 active torsions:
REMARK  status: ('A' for Active; 'I' for Inactive)
REMARK    1  A    between atoms: C4_4  and  C5_5 
REMARK    2  A    between atoms: C8_8  and  O9_9 
REMARK    3  A    between atoms: C10_11  and  O11_12 
REMARK    4  A    between atoms: C16_18  and  O17_19 
REMARK    5  A    between atoms: C19_22  and  O20_23 
ROOT
HETATM    1  O1          0      63.484  24.107  -5.287  1.00  0.00    -0.286 OA
HETATM    2  C2          0      62.722  23.462  -4.516  1.00  0.00     0.201 C 
HETATM    3  C3          0      61.738  22.604  -4.978  1.00  0.00     0.067 C 
HETATM    4  C4          0      60.845  21.985  -4.111  1.00  0.00     0.103 C 
HETATM    5  O13         0      60.959  22.212  -2.814  1.00  0.00    -0.307 OA
HETATM    6  C14         0      61.851  23.046  -2.326  1.00  0.00     0.107 C 
HETATM    7  C15         0      61.725  23.590  -1.056  1.00  0.00     0.049 C 
HETATM    8  C16         0      62.519  24.654  -0.644  1.00  0.00     0.093 C 
HETATM    9  C18         0      63.732  24.773  -1.311  1.00  0.00     0.048 C 
HETATM   10  C19         0      63.907  24.201  -2.564  1.00  0.00     0.096 C 
HETATM   11  C21         0      62.883  23.500  -3.140  1.00  0.00     0.084 C 
ENDROOT
BRANCH  10  12
HETATM   12  O20         0      64.920  24.675  -3.392  1.00  0.00    -0.359 OA
HETATM   13  H20         0      64.677  25.250  -4.108  1.00  0.00     0.218 HD
ENDBRANCH  10  12
BRANCH   4  14
HETATM   14  C5          0      59.535  21.617  -4.649  1.00  0.00     0.025 C 
HETATM   15  C6          0      59.222  21.713  -5.998  1.00  0.00     0.004 C 
HETATM   16  C7          0      58.430  20.710  -6.548  1.00  0.00     0.026 C 
HETATM   17  C8          0      57.856  19.718  -5.761  1.00  0.00     0.112 C 
HETATM   18  C10         0      57.697  20.059  -4.424  1.00  0.00     0.112 C 
HETATM   19  C12         0      58.558  21.002  -3.876  1.00  0.00     0.028 C 
BRANCH  17  20
HETATM   20  O9          0      57.671  18.439  -6.255  1.00  0.00    -0.357 OA
HETATM   21  H9          0      58.322  17.971  -6.766  1.00  0.00     0.218 HD
ENDBRANCH  17  20
BRANCH  18  22
HETATM   22  O11         0      56.962  19.185  -3.636  1.00  0.00    -0.357 OA
HETATM   23  H11         0      56.586  18.428  -4.070  1.00  0.00     0.218 HD
ENDBRANCH  18  22
ENDBRANCH   4  14
BRANCH   8  24
HETATM   24  O17         0      61.995  25.699   0.124  1.00  0.00    -0.359 OA
HETATM   25  H17         0      61.303  25.555   0.758  1.00  0.00     0.218 HD
ENDBRANCH   8  24
TORSDOF 5
ENDMDL
MODEL 2
REMARK VINA RESULT:      -6.7      1.360      2.653
REMARK  5 active torsions:
REMARK  status: ('A' for Active; 'I' for Inactive)
REMARK    1  A    between atoms: C4_4  and  C5_5 
REMARK    2  A    between atoms: C8_8  and  O9_9 
REMARK    3  A    between atoms: C10_11  and  O11_12 
REMARK    4  A    between atoms: C16_18  and  O17_19 
REMARK    5  A    between atoms: C19_22  and  O20_23 
ROOT
HETATM    1  O1          0      60.785  21.536  -0.747  1.00  0.00    -0.286 OA
HETATM    2  C2          0      60.559  22.215  -1.787  1.00  0.00     0.201 C 
HETATM    3  C3          0      59.571  21.883  -2.698  1.00  0.00     0.067 C 
HETATM    4  C4          0      59.409  22.587  -3.886  1.00  0.00     0.103 C 
HETATM    5  O13         0      60.211  23.608  -4.133  1.00  0.00    -0.307 OA
HETATM    6  C14         0      61.188  23.942  -3.319  1.00  0.00     0.107 C 
HETATM    7  C15         0      62.255  24.723  -3.739  1.00  0.00     0.049 C 
HETATM    8  C16         0      63.399  24.860  -2.963  1.00  0.00     0.093 C 
HETATM    9  C18         0      63.214  24.648  -1.602  1.00  0.00     0.048 C 
HETATM   10  C19         0      62.131  23.910  -1.144  1.00  0.00     0.096 C 
HETATM   11  C21         0      61.229  23.402  -2.038  1.00  0.00     0.084 C 
ENDROOT
BRANCH  10  12
HETATM   12  O20         0      62.184  23.342   0.125  1.00  0.00    -0.359 OA
HETATM   13  H20         0      62.930  23.549   0.675  1.00  0.00     0.218 HD
ENDBRANCH  10  12
BRANCH   4  14
HETATM   14  C5          0      58.816  21.868  -5.016  1.00  0.00     0.025 C 
HETATM   15  C6          0      59.306  21.965  -6.310  1.00  0.00     0.004 C 
HETATM   16  C7          0      59.310  20.811  -7.086  1.00  0.00     0.026 C 
HETATM   17  C8          0      58.725  19.631  -6.641  1.00  0.00     0.112 C 
HETATM   18  C10         0      57.747  19.799  -5.670  1.00  0.00     0.112 C 
HETATM   19  C12         0      57.815  20.920  -4.851  1.00  0.00     0.028 C 
BRANCH  17  20
HETATM   20  O9          0      59.247  18.401  -7.000  1.00  0.00    -0.357 OA
HETATM   21  H9          0      59.417  18.141  -7.898  1.00  0.00     0.218 HD
ENDBRANCH  17  20
BRANCH  18  22
HETATM   22  O11         0      57.001  18.680  -5.329  1.00  0.00    -0.357 OA
HETATM   23  H11         0      57.192  18.275  -4.490  1.00  0.00     0.218 HD
ENDBRANCH  18  22
ENDBRANCH   4  14
BRANCH   8  24
HETATM   24  O17         0      64.674  24.870  -3.540  1.00  0.00    -0.359 OA
HETATM   25  H17         0      65.330  24.221  -3.313  1.00  0.00     0.218 HD
ENDBRANCH   8  24
TORSDOF 5
ENDMDL
MODEL 3
REMARK VINA RESULT:      -6.6      2.563      4.333
REMARK  5 active torsions:
REMARK  status: ('A' for Active; 'I' for Inactive)
REMARK    1  A    between atoms: C4_4  and  C5_5 
REMARK    2  A    between atoms: C8_8  and  O9_9 
REMARK    3  A    between atoms: C10_11  and  O11_12 
REMARK    4  A    between atoms: C16_18  and  O17_19 
REMARK    5  A    between atoms: C19_22  and  O20_23 
ROOT
HETATM    1  O1          0      58.125  20.154  -1.585  1.00  0.00    -0.286 OA
HETATM    2  C2          0      58.463  21.063  -2.392  1.00  0.00     0.201 C 
HETATM    3  C3          0      57.798  21.293  -3.585  1.00  0.00     0.067 C 
HETATM    4  C4          0      58.254  22.232  -4.503  1.00  0.00     0.103 C 
HETATM    5  O13         0      59.338  22.930  -4.213  1.00  0.00    -0.307 OA
HETATM    6  C14         0      60.028  22.724  -3.113  1.00  0.00     0.107 C 
HETATM    7  C15         0      61.344  23.144  -2.986  1.00  0.00     0.049 C 
HETATM    8  C16         0      62.143  22.707  -1.937  1.00  0.00     0.093 C 
HETATM    9  C18         0      61.452  22.306  -0.800  1.00  0.00     0.048 C 
HETATM   10  C19         0      60.120  21.924  -0.883  1.00  0.00     0.096 C 
HETATM   11  C21         0      59.477  21.959  -2.090  1.00  0.00     0.084 C 
ENDROOT
BRANCH  10  12
HETATM   12  O20         0      59.575  21.132   0.123  1.00  0.00    -0.359 OA
HETATM   13  H20         0      58.656  21.248   0.333  1.00  0.00     0.218 HD
ENDBRANCH  10  12
BRANCH   4  14
HETATM   14  C5          0      57.913  22.013  -5.910  1.00  0.00     0.025 C 
HETATM   15  C6          0      56.835  22.632  -6.527  1.00  0.00     0.004 C 
HETATM   16  C7          0      57.000  23.051  -7.844  1.00  0.00     0.026 C 
HETATM   17  C8          0      58.148  22.746  -8.568  1.00  0.00     0.112 C 
HETATM   18  C10         0      58.844  21.635  -8.111  1.00  0.00     0.112 C 
HETATM   19  C12         0      58.728  21.289  -6.770  1.00  0.00     0.028 C 
BRANCH  17  20
HETATM   20  O9          0      58.639  23.622  -9.519  1.00  0.00    -0.357 OA
HETATM   21  H9          0      58.203  24.428  -9.770  1.00  0.00     0.218 HD
ENDBRANCH  17  20
BRANCH  18  22
HETATM   22  O11         0      59.886  21.176  -8.904  1.00  0.00    -0.357 OA
HETATM   23  H11         0      59.650  20.658  -9.665  1.00  0.00     0.218 HD
ENDBRANCH  18  22
ENDBRANCH   4  14
BRANCH   8  24
HETATM   24  O17         0      63.490  22.380  -2.132  1.00  0.00    -0.359 OA
HETATM   25  H17         0      64.058  22.911  -2.677  1.00  0.00     0.218 HD
ENDBRANCH   8  24
TORSDOF 5
ENDMDL
MODEL 4
REMARK VINA RESULT:      -6.5      1.572      6.429
REMARK  5 active torsions:
REMARK  status: ('A' for Active; 'I' for Inactive)
REMARK    1  A    between atoms: C4_4  and  C5_5 
REMARK    2  A    between atoms: C8_8  and  O9_9 
REMARK    3  A    between atoms: C10_11  and  O11_12 
REMARK    4  A    between atoms: C16_18  and  O17_19 
REMARK    5  A    between atoms: C19_22  and  O20_23 
ROOT
HETATM    1  O1          0      62.091  19.980  -6.774  1.00  0.00    -0.286 OA
HETATM    2  C2          0      61.536  20.855  -6.054  1.00  0.00     0.201 C 
HETATM    3  C3          0      62.240  21.872  -5.432  1.00  0.00     0.067 C 
HETATM    4  C4          0      61.619  22.762  -4.562  1.00  0.00     0.103 C 
HETATM    5  O13         0      60.321  22.638  -4.347  1.00  0.00    -0.307 OA
HETATM    6  C14         0      59.613  21.668  -4.884  1.00  0.00     0.107 C 
HETATM    7  C15         0      58.382  21.291  -4.368  1.00  0.00     0.049 C 
HETATM    8  C16         0      57.760  20.115  -4.771  1.00  0.00     0.093 C 
HETATM    9  C18         0      58.136  19.653  -6.026  1.00  0.00     0.048 C 
HETATM   10  C19         0      59.341  20.047  -6.592  1.00  0.00     0.096 C 
HETATM   11  C21         0      60.158  20.911  -5.915  1.00  0.00     0.084 C 
ENDROOT
BRANCH  10  12
HETATM   12  O20         0      59.903  19.273  -7.603  1.00  0.00    -0.359 OA
HETATM   13  H20         0      60.518  19.691  -8.193  1.00  0.00     0.218 HD
ENDBRANCH  10  12
BRANCH   4  14
HETATM   14  C5          0      62.450  23.373  -3.524  1.00  0.00     0.025 C 
HETATM   15  C6          0      63.286  24.453  -3.768  1.00  0.00     0.004 C 
HETATM   16  C7          0      63.385  25.429  -2.782  1.00  0.00     0.026 C 
HETATM   17  C8          0      62.780  25.273  -1.539  1.00  0.00     0.112 C 
HETATM   18  C10         0      62.531  23.956  -1.177  1.00  0.00     0.112 C 
HETATM   19  C12         0      62.352  23.016  -2.185  1.00  0.00     0.028 C 
BRANCH  17  20
HETATM   20  O9          0      62.290  26.366  -0.847  1.00  0.00    -0.357 OA
HETATM   21  H9          0      62.702  27.223  -0.853  1.00  0.00     0.218 HD
ENDBRANCH  17  20
BRANCH  18  22
HETATM   22  O11         0      62.105  23.732   0.125  1.00  0.00    -0.357 OA
HETATM   23  H11         0      61.365  24.245   0.430  1.00  0.00     0.218 HD
ENDBRANCH  18  22
ENDBRANCH   4  14
BRANCH   8  24
HETATM   24  O17         0      57.085  19.298  -3.857  1.00  0.00    -0.359 OA
HETATM   25  H17         0      57.293  18.376  -3.764  1.00  0.00     0.218 HD
ENDBRANCH   8  24
TORSDOF 5
ENDMDL
MODEL 5
REMARK VINA RESULT:      -6.2      2.030      6.801
REMARK  5 active torsions:
REMARK  status: ('A' for Active; 'I' for Inactive)
REMARK    1  A    between atoms: C4_4  and  C5_5 
REMARK    2  A    between atoms: C8_8  and  O9_9 
REMARK    3  A    between atoms: C10_11  and  O11_12 
REMARK    4  A    between atoms: C16_18  and  O17_19 
REMARK    5  A    between atoms: C19_22  and  O20_23 
ROOT
HETATM    1  O1          0      58.301  23.424  -5.204  1.00  0.00    -0.286 OA
HETATM    2  C2          0      59.322  22.791  -4.819  1.00  0.00     0.201 C 
HETATM    3  C3          0      60.087  23.189  -3.736  1.00  0.00     0.067 C 
HETATM    4  C4          0      61.264  22.533  -3.395  1.00  0.00     0.103 C 
HETATM    5  O13         0      61.643  21.493  -4.118  1.00  0.00    -0.307 OA
HETATM    6  C14         0      60.974  21.098  -5.178  1.00  0.00     0.107 C 
HETATM    7  C15         0      61.554  20.295  -6.150  1.00  0.00     0.049 C 
HETATM    8  C16         0      60.938  20.092  -7.379  1.00  0.00     0.093 C 
HETATM    9  C18         0      59.558  20.262  -7.380  1.00  0.00     0.048 C 
HETATM   10  C19         0      58.941  21.020  -6.395  1.00  0.00     0.096 C 
HETATM   11  C21         0      59.694  21.591  -5.405  1.00  0.00     0.084 C 
ENDROOT
BRANCH  10  12
HETATM   12  O20         0      57.673  21.542  -6.632  1.00  0.00    -0.359 OA
HETATM   13  H20         0      57.120  21.726  -5.883  1.00  0.00     0.218 HD
ENDBRANCH  10  12
BRANCH   4  14
HETATM   14  C5          0      62.284  23.311  -2.690  1.00  0.00     0.025 C 
HETATM   15  C6          0      63.449  23.753  -3.301  1.00  0.00     0.004 C 
HETATM   16  C7          0      63.917  25.017  -2.957  1.00  0.00     0.026 C 
HETATM   17  C8          0      63.326  25.763  -1.942  1.00  0.00     0.112 C 
HETATM   18  C10         0      62.625  25.015  -1.006  1.00  0.00     0.112 C 
HETATM   19  C12         0      62.094  23.792  -1.401  1.00  0.00     0.028 C 
BRANCH  17  20
HETATM   20  O9          0      63.281  27.144  -2.012  1.00  0.00    -0.357 OA
HETATM   21  H9          0      62.920  27.695  -1.327  1.00  0.00     0.218 HD
ENDBRANCH  17  20
BRANCH  18  22
HETATM   22  O11         0      62.178  25.683   0.125  1.00  0.00    -0.357 OA
HETATM   23  H11         0      61.539  26.373  -0.008  1.00  0.00     0.218 HD
ENDBRANCH  18  22
ENDBRANCH   4  14
BRANCH   8  24
HETATM   24  O17         0      61.675  20.058  -8.568  1.00  0.00    -0.359 OA
HETATM   25  H17         0      62.383  20.669  -8.734  1.00  0.00     0.218 HD
ENDBRANCH   8  24
TORSDOF 5
ENDMDL
MODEL 6
REMARK VINA RESULT:      -6.2      2.296      3.549
REMARK  5 active torsions:
REMARK  status: ('A' for Active; 'I' for Inactive)
REMARK    1  A    between atoms: C4_4  and  C5_5 
REMARK    2  A    between atoms: C8_8  and  O9_9 
REMARK    3  A    between atoms: C10_11  and  O11_12 
REMARK    4  A    between atoms: C16_18  and  O17_19 
REMARK    5  A    between atoms: C19_22  and  O20_23 
ROOT
HETATM    1  O1          0      59.707  21.500  -2.023  1.00  0.00    -0.286 OA
HETATM    2  C2          0      60.345  21.984  -2.998  1.00  0.00     0.201 C 
HETATM    3  C3          0      60.142  21.575  -4.305  1.00  0.00     0.067 C 
HETATM    4  C4          0      60.930  22.050  -5.348  1.00  0.00     0.103 C 
HETATM    5  O13         0      61.880  22.928  -5.076  1.00  0.00    -0.307 OA
HETATM    6  C14         0      62.138  23.322  -3.849  1.00  0.00     0.107 C 
HETATM    7  C15         0      63.349  23.907  -3.508  1.00  0.00     0.049 C 
HETATM    8  C16         0      63.717  24.086  -2.180  1.00  0.00     0.093 C 
HETATM    9  C18         0      62.658  24.156  -1.283  1.00  0.00     0.048 C 
HETATM   10  C19         0      61.419  23.622  -1.609  1.00  0.00     0.096 C 
HETATM   11  C21         0      61.234  23.035  -2.832  1.00  0.00     0.084 C 
ENDROOT
BRANCH  10  12
HETATM   12  O20         0      60.525  23.305  -0.591  1.00  0.00    -0.359 OA
HETATM   13  H20         0      60.162  22.428  -0.575  1.00  0.00     0.218 HD
ENDBRANCH  10  12
BRANCH   4  14
HETATM   14  C5          0      61.084  21.186  -6.519  1.00  0.00     0.025 C 
HETATM   15  C6          0      62.228  21.177  -7.303  1.00  0.00     0.004 C 
HETATM   16  C7          0      62.664  19.951  -7.795  1.00  0.00     0.026 C 
HETATM   17  C8          0      61.916  18.791  -7.628  1.00  0.00     0.112 C 
HETATM   18  C10         0      60.559  19.001  -7.417  1.00  0.00     0.112 C 
HETATM   19  C12         0      60.158  20.202  -6.844  1.00  0.00     0.028 C 
BRANCH  17  20
HETATM   20  O9          0      62.536  17.563  -7.476  1.00  0.00    -0.357 OA
HETATM   21  H9          0      63.054  17.146  -8.155  1.00  0.00     0.218 HD
ENDBRANCH  17  20
BRANCH  18  22
HETATM   22  O11         0      59.740  17.881  -7.432  1.00  0.00    -0.357 OA
HETATM   23  H11         0      59.040  17.869  -8.074  1.00  0.00     0.218 HD
ENDBRANCH  18  22
ENDBRANCH   4  14
BRANCH   8  24
HETATM   24  O17         0      65.031  23.869  -1.752  1.00  0.00    -0.359 OA
HETATM   25  H17         0      65.228  23.599  -0.863  1.00  0.00     0.218 HD
ENDBRANCH   8  24
TORSDOF 5
ENDMDL
MODEL 7
REMARK VINA RESULT:      -5.7      3.807      6.923
REMARK  5 active torsions:
REMARK  status: ('A' for Active; 'I' for Inactive)
REMARK    1  A    between atoms: C4_4  and  C5_5 
REMARK    2  A    between atoms: C8_8  and  O9_9 
REMARK    3  A    between atoms: C10_11  and  O11_12 
REMARK    4  A    between atoms: C16_18  and  O17_19 
REMARK    5  A    between atoms: C19_22  and  O20_23 
ROOT
HETATM    1  O1          0      54.402  21.900  -5.174  1.00  0.00    -0.286 OA
HETATM    2  C2          0      55.594  22.250  -5.397  1.00  0.00     0.201 C 
HETATM    3  C3          0      56.684  21.583  -4.864  1.00  0.00     0.067 C 
HETATM    4  C4          0      57.981  22.049  -5.041  1.00  0.00     0.103 C 
HETATM    5  O13         0      58.170  23.146  -5.754  1.00  0.00    -0.307 OA
HETATM    6  C14         0      57.168  23.838  -6.250  1.00  0.00     0.107 C 
HETATM    7  C15         0      57.315  25.162  -6.638  1.00  0.00     0.049 C 
HETATM    8  C16         0      56.211  25.959  -6.918  1.00  0.00     0.093 C 
HETATM    9  C18         0      55.070  25.266  -7.303  1.00  0.00     0.048 C 
HETATM   10  C19         0      54.911  23.927  -6.972  1.00  0.00     0.096 C 
HETATM   11  C21         0      55.894  23.280  -6.275  1.00  0.00     0.084 C 
ENDROOT
BRANCH  10  12
HETATM   12  O20         0      53.634  23.375  -6.966  1.00  0.00    -0.359 OA
HETATM   13  H20         0      52.897  23.956  -7.108  1.00  0.00     0.218 HD
ENDBRANCH  10  12
BRANCH   4  14
HETATM   14  C5          0      58.966  21.697  -4.016  1.00  0.00     0.025 C 
HETATM   15  C6          0      60.270  22.170  -4.032  1.00  0.00     0.004 C 
HETATM   16  C7          0      60.850  22.503  -2.812  1.00  0.00     0.026 C 
HETATM   17  C8          0      60.207  22.250  -1.606  1.00  0.00     0.112 C 
HETATM   18  C10         0      59.253  21.242  -1.657  1.00  0.00     0.112 C 
HETATM   19  C12         0      58.627  20.987  -2.872  1.00  0.00     0.028 C 
BRANCH  17  20
HETATM   20  O9          0      60.375  23.094  -0.522  1.00  0.00    -0.357 OA
HETATM   21  H9          0      59.707  23.248   0.136  1.00  0.00     0.218 HD
ENDBRANCH  17  20
BRANCH  18  22
HETATM   22  O11         0      58.718  20.821  -0.448  1.00  0.00    -0.357 OA
HETATM   23  H11         0      57.796  20.588  -0.443  1.00  0.00     0.218 HD
ENDBRANCH  18  22
ENDBRANCH   4  14
BRANCH   8  24
HETATM   24  O17         0      56.159  27.299  -6.517  1.00  0.00    -0.359 OA
HETATM   25  H17         0      56.928  27.856  -6.539  1.00  0.00     0.218 HD
ENDBRANCH   8  24
TORSDOF 5
ENDMDL
MODEL 8
REMARK VINA RESULT:      -5.5      4.733      6.646
REMARK  5 active torsions:
REMARK  status: ('A' for Active; 'I' for Inactive)
REMARK    1  A    between atoms: C4_4  and  C5_5 
REMARK    2  A    between atoms: C8_8  and  O9_9 
REMARK    3  A    between atoms: C10_11  and  O11_12 
REMARK    4  A    between atoms: C16_18  and  O17_19 
REMARK    5  A    between atoms: C19_22  and  O20_23 
ROOT
HETATM    1  O1          0      54.698  24.247  -8.563  1.00  0.00    -0.286 OA
HETATM    2  C2          0      55.854  24.293  -8.060  1.00  0.00     0.201 C 
HETATM    3  C3          0      56.557  23.158  -7.693  1.00  0.00     0.067 C 
HETATM    4  C4          0      57.786  23.240  -7.047  1.00  0.00     0.103 C 
HETATM    5  O13         0      58.295  24.434  -6.800  1.00  0.00    -0.307 OA
HETATM    6  C14         0      57.652  25.543  -7.095  1.00  0.00     0.107 C 
HETATM    7  C15         0      57.972  26.754  -6.498  1.00  0.00     0.049 C 
HETATM    8  C16         0      57.138  27.859  -6.615  1.00  0.00     0.093 C 
HETATM    9  C18         0      56.313  27.855  -7.734  1.00  0.00     0.048 C 
HETATM   10  C19         0      56.010  26.666  -8.383  1.00  0.00     0.096 C 
HETATM   11  C21         0      56.540  25.490  -7.929  1.00  0.00     0.084 C 
ENDROOT
BRANCH  10  12
HETATM   12  O20         0      54.880  26.603  -9.193  1.00  0.00    -0.359 OA
HETATM   13  H20         0      54.239  25.926  -9.011  1.00  0.00     0.218 HD
ENDBRANCH  10  12
BRANCH   4  14
HETATM   14  C5          0      58.164  22.120  -6.182  1.00  0.00     0.025 C 
HETATM   15  C6          0      58.101  22.185  -4.798  1.00  0.00     0.004 C 
HETATM   16  C7          0      57.681  21.046  -4.118  1.00  0.00     0.026 C 
HETATM   17  C8          0      57.459  19.843  -4.778  1.00  0.00     0.112 C 
HETATM   18  C10         0      58.135  19.709  -5.983  1.00  0.00     0.112 C 
HETATM   19  C12         0      58.469  20.862  -6.685  1.00  0.00     0.028 C 
BRANCH  17  20
HETATM   20  O9          0      56.476  18.969  -4.348  1.00  0.00    -0.357 OA
HETATM   21  H9          0      56.270  18.815  -3.433  1.00  0.00     0.218 HD
ENDBRANCH  17  20
BRANCH  18  22
HETATM   22  O11         0      58.101  18.461  -6.588  1.00  0.00    -0.357 OA
HETATM   23  H11         0      58.210  17.705  -6.023  1.00  0.00     0.218 HD
ENDBRANCH  18  22
ENDBRANCH   4  14
BRANCH   8  24
HETATM   24  O17         0      56.908  28.717  -5.534  1.00  0.00    -0.359 OA
HETATM   25  H17         0      56.730  29.641  -5.660  1.00  0.00     0.218 HD
ENDBRANCH   8  24
TORSDOF 5
ENDMDL
MODEL 9
REMARK VINA RESULT:      -5.5      7.632     10.655
REMARK  5 active torsions:
REMARK  status: ('A' for Active; 'I' for Inactive)
REMARK    1  A    between atoms: C4_4  and  C5_5 
REMARK    2  A    between atoms: C8_8  and  O9_9 
REMARK    3  A    between atoms: C10_11  and  O11_12 
REMARK    4  A    between atoms: C16_18  and  O17_19 
REMARK    5  A    between atoms: C19_22  and  O20_23 
ROOT
HETATM    1  O1          0      53.913  23.675  -9.052  1.00  0.00    -0.286 OA
HETATM    2  C2          0      54.608  24.723  -9.159  1.00  0.00     0.201 C 
HETATM    3  C3          0      55.771  24.928  -8.438  1.00  0.00     0.067 C 
HETATM    4  C4          0      56.463  26.133  -8.497  1.00  0.00     0.103 C 
HETATM    5  O13         0      56.000  27.092  -9.280  1.00  0.00    -0.307 OA
HETATM    6  C14         0      54.880  26.962  -9.957  1.00  0.00     0.107 C 
HETATM    7  C15         0      54.190  28.062 -10.445  1.00  0.00     0.049 C 
HETATM    8  C16         0      52.893  27.944 -10.931  1.00  0.00     0.093 C 
HETATM    9  C18         0      52.551  26.676 -11.387  1.00  0.00     0.048 C 
HETATM   10  C19         0      53.251  25.558 -10.955  1.00  0.00     0.096 C 
HETATM   11  C21         0      54.297  25.706 -10.086  1.00  0.00     0.084 C 
ENDROOT
BRANCH  10  12
HETATM   12  O20         0      52.657  24.304 -11.053  1.00  0.00    -0.359 OA
HETATM   13  H20         0      51.729  24.265 -11.249  1.00  0.00     0.218 HD
ENDBRANCH  10  12
BRANCH   4  14
HETATM   14  C5          0      57.268  26.502  -7.332  1.00  0.00     0.025 C 
HETATM   15  C6          0      58.390  25.789  -6.937  1.00  0.00     0.004 C 
HETATM   16  C7          0      59.477  26.512  -6.454  1.00  0.00     0.026 C 
HETATM   17  C8          0      59.404  27.885  -6.244  1.00  0.00     0.112 C 
HETATM   18  C10         0      58.118  28.375  -6.058  1.00  0.00     0.112 C 
HETATM   19  C12         0      57.057  27.678  -6.623  1.00  0.00     0.028 C 
BRANCH  17  20
HETATM   20  O9          0      60.514  28.690  -6.426  1.00  0.00    -0.357 OA
HETATM   21  H9          0      60.495  29.637  -6.360  1.00  0.00     0.218 HD
ENDBRANCH  17  20
BRANCH  18  22
HETATM   22  O11         0      58.002  29.699  -5.658  1.00  0.00    -0.357 OA
HETATM   23  H11         0      58.789  30.230  -5.698  1.00  0.00     0.218 HD
ENDBRANCH  18  22
ENDBRANCH   4  14
BRANCH   8  24
HETATM   24  O17         0      51.923  28.917 -10.666  1.00  0.00    -0.359 OA
HETATM   25  H17         0      51.878  29.360  -9.827  1.00  0.00     0.218 HD
ENDBRANCH   8  24
TORSDOF 5
ENDMDL
