MODEL 1
REMARK VINA RESULT:      -0.0      0.000      0.000
REMARK  5 active torsions:
REMARK  status: ('A' for Active; 'I' for Inactive)
REMARK    1  A    between atoms: C4_4  and  C5_5 
REMARK    2  A    between atoms: C8_8  and  O9_9 
REMARK    3  A    between atoms: C10_11  and  O11_12 
REMARK    4  A    between atoms: C16_18  and  O17_19 
REMARK    5  A    between atoms: C19_22  and  O20_23 
ROOT
HETATM    1  O1          0      12.997  32.290 -30.218  1.00  0.00    -0.286 OA
HETATM    2  C2          0      12.595  33.283 -30.885  1.00  0.00     0.201 C 
HETATM    3  C3          0      12.811  33.410 -32.246  1.00  0.00     0.067 C 
HETATM    4  C4          0      12.449  34.560 -32.938  1.00  0.00     0.103 C 
HETATM    5  O13         0      11.865  35.542 -32.274  1.00  0.00    -0.307 OA
HETATM    6  C14         0      11.670  35.489 -30.975  1.00  0.00     0.107 C 
HETATM    7  C15         0      11.441  36.632 -30.222  1.00  0.00     0.049 C 
HETATM    8  C16         0      11.490  36.603 -28.834  1.00  0.00     0.093 C 
HETATM    9  C18         0      11.245  35.360 -28.263  1.00  0.00     0.048 C 
HETATM   10  C19         0      11.419  34.198 -29.002  1.00  0.00     0.096 C 
HETATM   11  C21         0      11.820  34.277 -30.308  1.00  0.00     0.084 C 
ENDROOT
BRANCH  10  12
HETATM   12  O20         0      11.601  32.990 -28.336  1.00  0.00    -0.359 OA
HETATM   13  H20         0      12.167  32.341 -28.737  1.00  0.00     0.218 HD
ENDBRANCH  10  12
BRANCH   4  14
HETATM   14  C5          0      13.206  34.880 -34.149  1.00  0.00     0.025 C 
HETATM   15  C6          0      13.353  36.176 -34.623  1.00  0.00     0.004 C 
HETATM   16  C7          0      14.585  36.527 -35.166  1.00  0.00     0.026 C 
HETATM   17  C8          0      15.593  35.588 -35.356  1.00  0.00     0.112 C 
HETATM   18  C10         0      15.152  34.275 -35.454  1.00  0.00     0.112 C 
HETATM   19  C12         0      13.959  33.931 -34.829  1.00  0.00     0.028 C 
BRANCH  17  20
HETATM   20  O9          0      16.925  35.944 -35.237  1.00  0.00    -0.357 OA
HETATM   21  H9          0      17.592  35.711 -35.872  1.00  0.00     0.218 HD
ENDBRANCH  17  20
BRANCH  18  22
HETATM   22  O11         0      16.089  33.324 -35.830  1.00  0.00    -0.357 OA
HETATM   23  H11         0      15.825  32.413 -35.771  1.00  0.00     0.218 HD
ENDBRANCH  18  22
ENDBRANCH   4  14
BRANCH   8  24
HETATM   24  O17         0      12.067  37.648 -28.103  1.00  0.00    -0.359 OA
HETATM   25  H17         0      11.721  37.919 -27.261  1.00  0.00     0.218 HD
ENDBRANCH   8  24
TORSDOF 5
ENDMDL
MODEL 2
REMARK VINA RESULT:      -0.0     10.076     10.723
REMARK  5 active torsions:
REMARK  status: ('A' for Active; 'I' for Inactive)
REMARK    1  A    between atoms: C4_4  and  C5_5 
REMARK    2  A    between atoms: C8_8  and  O9_9 
REMARK    3  A    between atoms: C10_11  and  O11_12 
REMARK    4  A    between atoms: C16_18  and  O17_19 
REMARK    5  A    between atoms: C19_22  and  O20_23 
ROOT
HETATM    1  O1          0       4.111  32.854 -32.438  1.00  0.00    -0.286 OA
HETATM    2  C2          0       3.404  32.802 -33.482  1.00  0.00     0.201 C 
HETATM    3  C3          0       3.729  32.009 -34.569  1.00  0.00     0.067 C 
HETATM    4  C4          0       2.990  32.047 -35.746  1.00  0.00     0.103 C 
HETATM    5  O13         0       1.942  32.849 -35.811  1.00  0.00    -0.307 OA
HETATM    6  C14         0       1.612  33.650 -34.822  1.00  0.00     0.107 C 
HETATM    7  C15         0       0.791  34.752 -35.016  1.00  0.00     0.049 C 
HETATM    8  C16         0       0.653  35.730 -34.039  1.00  0.00     0.093 C 
HETATM    9  C18         0       0.914  35.305 -32.742  1.00  0.00     0.048 C 
HETATM   10  C19         0       1.693  34.178 -32.512  1.00  0.00     0.096 C 
HETATM   11  C21         0       2.193  33.472 -33.571  1.00  0.00     0.084 C 
ENDROOT
BRANCH  10  12
HETATM   12  O20         0       2.302  34.014 -31.272  1.00  0.00    -0.359 OA
HETATM   13  H20         0       2.063  34.614 -30.576  1.00  0.00     0.218 HD
ENDBRANCH  10  12
BRANCH   4  14
HETATM   14  C5          0       3.685  31.693 -36.985  1.00  0.00     0.025 C 
HETATM   15  C6          0       3.301  32.177 -38.227  1.00  0.00     0.004 C 
HETATM   16  C7          0       4.307  32.503 -39.131  1.00  0.00     0.026 C 
HETATM   17  C8          0       5.644  32.233 -38.863  1.00  0.00     0.112 C 
HETATM   18  C10         0       5.857  31.218 -37.940  1.00  0.00     0.112 C 
HETATM   19  C12         0       4.870  30.969 -36.993  1.00  0.00     0.028 C 
BRANCH  17  20
HETATM   20  O9          0       6.643  33.068 -39.331  1.00  0.00    -0.357 OA
HETATM   21  H9          0       7.425  32.758 -39.774  1.00  0.00     0.218 HD
ENDBRANCH  17  20
BRANCH  18  22
HETATM   22  O11         0       7.164  30.781 -37.777  1.00  0.00    -0.357 OA
HETATM   23  H11         0       7.853  31.411 -37.950  1.00  0.00     0.218 HD
ENDBRANCH  18  22
ENDBRANCH   4  14
BRANCH   8  24
HETATM   24  O17         0       0.592  37.088 -34.370  1.00  0.00    -0.359 OA
HETATM   25  H17         0       1.374  37.626 -34.414  1.00  0.00     0.218 HD
ENDBRANCH   8  24
TORSDOF 5
ENDMDL
MODEL 3
REMARK VINA RESULT:      -0.0      4.774      7.618
REMARK  5 active torsions:
REMARK  status: ('A' for Active; 'I' for Inactive)
REMARK    1  A    between atoms: C4_4  and  C5_5 
REMARK    2  A    between atoms: C8_8  and  O9_9 
REMARK    3  A    between atoms: C10_11  and  O11_12 
REMARK    4  A    between atoms: C16_18  and  O17_19 
REMARK    5  A    between atoms: C19_22  and  O20_23 
ROOT
HETATM    1  O1          0       9.961  34.119 -24.394  1.00  0.00    -0.286 OA
HETATM    2  C2          0      10.336  32.987 -24.804  1.00  0.00     0.201 C 
HETATM    3  C3          0      11.382  32.820 -25.695  1.00  0.00     0.067 C 
HETATM    4  C4          0      11.710  31.571 -26.210  1.00  0.00     0.103 C 
HETATM    5  O13         0      11.012  30.520 -25.817  1.00  0.00    -0.307 OA
HETATM    6  C14         0       9.985  30.627 -25.002  1.00  0.00     0.107 C 
HETATM    7  C15         0       9.024  29.632 -24.902  1.00  0.00     0.049 C 
HETATM    8  C16         0       7.821  29.854 -24.241  1.00  0.00     0.093 C 
HETATM    9  C18         0       7.857  30.856 -23.279  1.00  0.00     0.048 C 
HETATM   10  C19         0       8.834  31.842 -23.322  1.00  0.00     0.096 C 
HETATM   11  C21         0       9.780  31.816 -24.310  1.00  0.00     0.084 C 
ENDROOT
BRANCH  10  12
HETATM   12  O20         0       8.617  33.045 -22.657  1.00  0.00    -0.359 OA
HETATM   13  H20         0       8.248  33.010 -21.783  1.00  0.00     0.218 HD
ENDBRANCH  10  12
BRANCH   4  14
HETATM   14  C5          0      12.357  31.536 -27.522  1.00  0.00     0.025 C 
HETATM   15  C6          0      12.258  30.451 -28.381  1.00  0.00     0.004 C 
HETATM   16  C7          0      12.144  30.715 -29.743  1.00  0.00     0.026 C 
HETATM   17  C8          0      12.261  32.006 -30.247  1.00  0.00     0.112 C 
HETATM   18  C10         0      12.968  32.884 -29.437  1.00  0.00     0.112 C 
HETATM   19  C12         0      12.994  32.643 -28.068  1.00  0.00     0.028 C 
BRANCH  17  20
HETATM   20  O9          0      11.540  32.400 -31.360  1.00  0.00    -0.357 OA
HETATM   21  H9          0      10.726  32.889 -31.316  1.00  0.00     0.218 HD
ENDBRANCH  17  20
BRANCH  18  22
HETATM   22  O11         0      13.276  34.125 -29.974  1.00  0.00    -0.357 OA
HETATM   23  H11         0      12.562  34.747 -30.057  1.00  0.00     0.218 HD
ENDBRANCH  18  22
ENDBRANCH   4  14
BRANCH   8  24
HETATM   24  O17         0       6.613  29.353 -24.738  1.00  0.00    -0.359 OA
HETATM   25  H17         0       6.180  29.747 -25.487  1.00  0.00     0.218 HD
ENDBRANCH   8  24
TORSDOF 5
ENDMDL
MODEL 4
REMARK VINA RESULT:       0.0      8.464     10.679
REMARK  5 active torsions:
REMARK  status: ('A' for Active; 'I' for Inactive)
REMARK    1  A    between atoms: C4_4  and  C5_5 
REMARK    2  A    between atoms: C8_8  and  O9_9 
REMARK    3  A    between atoms: C10_11  and  O11_12 
REMARK    4  A    between atoms: C16_18  and  O17_19 
REMARK    5  A    between atoms: C19_22  and  O20_23 
ROOT
HETATM    1  O1          0       7.369  27.550 -26.093  1.00  0.00    -0.286 OA
HETATM    2  C2          0       7.471  28.246 -27.141  1.00  0.00     0.201 C 
HETATM    3  C3          0       7.419  29.630 -27.131  1.00  0.00     0.067 C 
HETATM    4  C4          0       7.431  30.368 -28.309  1.00  0.00     0.103 C 
HETATM    5  O13         0       7.514  29.724 -29.460  1.00  0.00    -0.307 OA
HETATM    6  C14         0       7.529  28.411 -29.527  1.00  0.00     0.107 C 
HETATM    7  C15         0       7.216  27.736 -30.698  1.00  0.00     0.049 C 
HETATM    8  C16         0       6.983  26.366 -30.701  1.00  0.00     0.093 C 
HETATM    9  C18         0       7.581  25.667 -29.660  1.00  0.00     0.048 C 
HETATM   10  C19         0       7.950  26.320 -28.492  1.00  0.00     0.096 C 
HETATM   11  C21         0       7.739  27.667 -28.371  1.00  0.00     0.084 C 
ENDROOT
BRANCH  10  12
HETATM   12  O20         0       8.130  25.582 -27.326  1.00  0.00    -0.359 OA
HETATM   13  H20         0       7.979  26.017 -26.496  1.00  0.00     0.218 HD
ENDBRANCH  10  12
BRANCH   4  14
HETATM   14  C5          0       6.789  31.683 -28.282  1.00  0.00     0.025 C 
HETATM   15  C6          0       6.248  32.279 -29.411  1.00  0.00     0.004 C 
HETATM   16  C7          0       5.064  32.993 -29.259  1.00  0.00     0.026 C 
HETATM   17  C8          0       4.506  33.222 -28.006  1.00  0.00     0.112 C 
HETATM   18  C10         0       5.406  33.155 -26.950  1.00  0.00     0.112 C 
HETATM   19  C12         0       6.540  32.365 -27.098  1.00  0.00     0.028 C 
BRANCH  17  20
HETATM   20  O9          0       3.134  33.294 -27.843  1.00  0.00    -0.357 OA
HETATM   21  H9          0       2.690  34.021 -27.423  1.00  0.00     0.218 HD
ENDBRANCH  17  20
BRANCH  18  22
HETATM   22  O11         0       4.945  33.559 -25.705  1.00  0.00    -0.357 OA
HETATM   23  H11         0       5.322  33.129 -24.946  1.00  0.00     0.218 HD
ENDBRANCH  18  22
ENDBRANCH   4  14
BRANCH   8  24
HETATM   24  O17         0       5.967  25.800 -31.479  1.00  0.00    -0.359 OA
HETATM   25  H17         0       6.150  25.137 -32.134  1.00  0.00     0.218 HD
ENDBRANCH   8  24
TORSDOF 5
ENDMDL
MODEL 5
REMARK VINA RESULT:       0.0      8.551     10.284
REMARK  5 active torsions:
REMARK  status: ('A' for Active; 'I' for Inactive)
REMARK    1  A    between atoms: C4_4  and  C5_5 
REMARK    2  A    between atoms: C8_8  and  O9_9 
REMARK    3  A    between atoms: C10_11  and  O11_12 
REMARK    4  A    between atoms: C16_18  and  O17_19 
REMARK    5  A    between atoms: C19_22  and  O20_23 
ROOT
HETATM    1  O1          0       5.166  27.238 -32.254  1.00  0.00    -0.286 OA
HETATM    2  C2          0       6.273  27.384 -32.842  1.00  0.00     0.201 C 
HETATM    3  C3          0       6.841  28.624 -33.076  1.00  0.00     0.067 C 
HETATM    4  C4          0       8.010  28.762 -33.816  1.00  0.00     0.103 C 
HETATM    5  O13         0       8.596  27.675 -34.286  1.00  0.00    -0.307 OA
HETATM    6  C14         0       8.079  26.477 -34.125  1.00  0.00     0.107 C 
HETATM    7  C15         0       8.447  25.407 -34.928  1.00  0.00     0.049 C 
HETATM    8  C16         0       7.724  24.220 -34.926  1.00  0.00     0.093 C 
HETATM    9  C18         0       7.004  23.974 -33.764  1.00  0.00     0.048 C 
HETATM   10  C19         0       6.659  25.015 -32.913  1.00  0.00     0.096 C 
HETATM   11  C21         0       7.045  26.293 -33.213  1.00  0.00     0.084 C 
ENDROOT
BRANCH  10  12
HETATM   12  O20         0       5.604  24.844 -32.022  1.00  0.00    -0.359 OA
HETATM   13  H20         0       5.320  23.958 -31.832  1.00  0.00     0.218 HD
ENDBRANCH  10  12
BRANCH   4  14
HETATM   14  C5          0       8.213  30.031 -34.518  1.00  0.00     0.025 C 
HETATM   15  C6          0       8.982  30.140 -35.667  1.00  0.00     0.004 C 
HETATM   16  C7          0       8.536  31.004 -36.662  1.00  0.00     0.026 C 
HETATM   17  C8          0       7.436  31.833 -36.468  1.00  0.00     0.112 C 
HETATM   18  C10         0       7.147  32.112 -35.139  1.00  0.00     0.112 C 
HETATM   19  C12         0       7.530  31.190 -34.172  1.00  0.00     0.028 C 
BRANCH  17  20
HETATM   20  O9          0       6.599  32.157 -37.521  1.00  0.00    -0.357 OA
HETATM   21  H9          0       6.716  31.835 -38.407  1.00  0.00     0.218 HD
ENDBRANCH  17  20
BRANCH  18  22
HETATM   22  O11         0       6.183  33.080 -34.895  1.00  0.00    -0.357 OA
HETATM   23  H11         0       5.721  33.028 -34.066  1.00  0.00     0.218 HD
ENDBRANCH  18  22
ENDBRANCH   4  14
BRANCH   8  24
HETATM   24  O17         0       7.474  23.517 -36.110  1.00  0.00    -0.359 OA
HETATM   25  H17         0       6.929  22.740 -36.123  1.00  0.00     0.218 HD
ENDBRANCH   8  24
TORSDOF 5
ENDMDL
MODEL 6
REMARK VINA RESULT:       0.0      7.472     10.838
REMARK  5 active torsions:
REMARK  status: ('A' for Active; 'I' for Inactive)
REMARK    1  A    between atoms: C4_4  and  C5_5 
REMARK    2  A    between atoms: C8_8  and  O9_9 
REMARK    3  A    between atoms: C10_11  and  O11_12 
REMARK    4  A    between atoms: C16_18  and  O17_19 
REMARK    5  A    between atoms: C19_22  and  O20_23 
ROOT
HETATM    1  O1          0       5.422  28.839 -33.316  1.00  0.00    -0.286 OA
HETATM    2  C2          0       6.333  28.317 -32.616  1.00  0.00     0.201 C 
HETATM    3  C3          0       6.112  27.827 -31.341  1.00  0.00     0.067 C 
HETATM    4  C4          0       7.153  27.351 -30.552  1.00  0.00     0.103 C 
HETATM    5  O13         0       8.377  27.352 -31.049  1.00  0.00    -0.307 OA
HETATM    6  C14         0       8.648  27.840 -32.240  1.00  0.00     0.107 C 
HETATM    7  C15         0       9.935  28.210 -32.603  1.00  0.00     0.049 C 
HETATM    8  C16         0      10.174  28.955 -33.752  1.00  0.00     0.093 C 
HETATM    9  C18         0       9.202  28.841 -34.738  1.00  0.00     0.048 C 
HETATM   10  C19         0       7.916  28.428 -34.417  1.00  0.00     0.096 C 
HETATM   11  C21         0       7.608  28.114 -33.122  1.00  0.00     0.084 C 
ENDROOT
BRANCH  10  12
HETATM   12  O20         0       6.869  28.728 -35.283  1.00  0.00    -0.359 OA
HETATM   13  H20         0       6.497  29.601 -35.246  1.00  0.00     0.218 HD
ENDBRANCH  10  12
BRANCH   4  14
HETATM   14  C5          0       6.982  27.426 -29.100  1.00  0.00     0.025 C 
HETATM   15  C6          0       8.052  27.515 -28.221  1.00  0.00     0.004 C 
HETATM   16  C7          0       7.904  28.335 -27.107  1.00  0.00     0.026 C 
HETATM   17  C8          0       6.690  28.942 -26.804  1.00  0.00     0.112 C 
HETATM   18  C10         0       5.576  28.311 -27.341  1.00  0.00     0.112 C 
HETATM   19  C12         0       5.736  27.565 -28.503  1.00  0.00     0.028 C 
BRANCH  17  20
HETATM   20  O9          0       6.651  30.186 -26.198  1.00  0.00    -0.357 OA
HETATM   21  H9          0       7.385  30.788 -26.182  1.00  0.00     0.218 HD
ENDBRANCH  17  20
BRANCH  18  22
HETATM   22  O11         0       4.333  28.760 -26.918  1.00  0.00    -0.357 OA
HETATM   23  H11         0       4.320  29.349 -26.172  1.00  0.00     0.218 HD
ENDBRANCH  18  22
ENDBRANCH   4  14
BRANCH   8  24
HETATM   24  O17         0      11.125  29.981 -33.771  1.00  0.00    -0.359 OA
HETATM   25  H17         0      11.984  29.873 -33.381  1.00  0.00     0.218 HD
ENDBRANCH   8  24
TORSDOF 5
ENDMDL
MODEL 7
REMARK VINA RESULT:       0.0      3.162      4.505
REMARK  5 active torsions:
REMARK  status: ('A' for Active; 'I' for Inactive)
REMARK    1  A    between atoms: C4_4  and  C5_5 
REMARK    2  A    between atoms: C8_8  and  O9_9 
REMARK    3  A    between atoms: C10_11  and  O11_12 
REMARK    4  A    between atoms: C16_18  and  O17_19 
REMARK    5  A    between atoms: C19_22  and  O20_23 
ROOT
HETATM    1  O1          0      11.932  30.674 -29.056  1.00  0.00    -0.286 OA
HETATM    2  C2          0      11.453  31.420 -29.955  1.00  0.00     0.201 C 
HETATM    3  C3          0      12.224  32.316 -30.675  1.00  0.00     0.067 C 
HETATM    4  C4          0      11.654  33.198 -31.587  1.00  0.00     0.103 C 
HETATM    5  O13         0      10.347  33.157 -31.778  1.00  0.00    -0.307 OA
HETATM    6  C14         0       9.565  32.352 -31.093  1.00  0.00     0.107 C 
HETATM    7  C15         0       8.200  32.573 -30.989  1.00  0.00     0.049 C 
HETATM    8  C16         0       7.424  31.878 -30.068  1.00  0.00     0.093 C 
HETATM    9  C18         0       7.940  30.649 -29.675  1.00  0.00     0.048 C 
HETATM   10  C19         0       9.295  30.378 -29.808  1.00  0.00     0.096 C 
HETATM   11  C21         0      10.127  31.321 -30.347  1.00  0.00     0.084 C 
ENDROOT
BRANCH  10  12
HETATM   12  O20         0       9.865  29.368 -29.040  1.00  0.00    -0.359 OA
HETATM   13  H20         0      10.789  29.184 -29.160  1.00  0.00     0.218 HD
ENDBRANCH  10  12
BRANCH   4  14
HETATM   14  C5          0      12.365  34.453 -31.838  1.00  0.00     0.025 C 
HETATM   15  C6          0      11.722  35.611 -32.253  1.00  0.00     0.004 C 
HETATM   16  C7          0      12.170  36.819 -31.729  1.00  0.00     0.026 C 
HETATM   17  C8          0      13.303  36.891 -30.926  1.00  0.00     0.112 C 
HETATM   18  C10         0      14.199  35.843 -31.092  1.00  0.00     0.112 C 
HETATM   19  C12         0      13.710  34.620 -31.536  1.00  0.00     0.028 C 
BRANCH  17  20
HETATM   20  O9          0      13.392  37.824 -29.908  1.00  0.00    -0.357 OA
HETATM   21  H9          0      13.581  38.744 -30.051  1.00  0.00     0.218 HD
ENDBRANCH  17  20
BRANCH  18  22
HETATM   22  O11         0      15.427  35.961 -30.457  1.00  0.00    -0.357 OA
HETATM   23  H11         0      16.149  36.295 -30.977  1.00  0.00     0.218 HD
ENDBRANCH  18  22
ENDBRANCH   4  14
BRANCH   8  24
HETATM   24  O17         0       6.402  32.510 -29.352  1.00  0.00    -0.359 OA
HETATM   25  H17         0       5.556  32.099 -29.222  1.00  0.00     0.218 HD
ENDBRANCH   8  24
TORSDOF 5
ENDMDL
MODEL 8
REMARK VINA RESULT:       0.0      5.451      6.223
REMARK  5 active torsions:
REMARK  status: ('A' for Active; 'I' for Inactive)
REMARK    1  A    between atoms: C4_4  and  C5_5 
REMARK    2  A    between atoms: C8_8  and  O9_9 
REMARK    3  A    between atoms: C10_11  and  O11_12 
REMARK    4  A    between atoms: C16_18  and  O17_19 
REMARK    5  A    between atoms: C19_22  and  O20_23 
ROOT
HETATM    1  O1          0      11.333  31.622 -25.467  1.00  0.00    -0.286 OA
HETATM    2  C2          0      12.148  32.324 -26.125  1.00  0.00     0.201 C 
HETATM    3  C3          0      12.671  31.924 -27.343  1.00  0.00     0.067 C 
HETATM    4  C4          0      13.645  32.669 -27.998  1.00  0.00     0.103 C 
HETATM    5  O13         0      14.060  33.796 -27.447  1.00  0.00    -0.307 OA
HETATM    6  C14         0      13.624  34.203 -26.275  1.00  0.00     0.107 C 
HETATM    7  C15         0      14.320  35.135 -25.519  1.00  0.00     0.049 C 
HETATM    8  C16         0      13.998  35.370 -24.188  1.00  0.00     0.093 C 
HETATM    9  C18         0      12.690  35.059 -23.836  1.00  0.00     0.048 C 
HETATM   10  C19         0      11.949  34.165 -24.597  1.00  0.00     0.096 C 
HETATM   11  C21         0      12.504  33.599 -25.712  1.00  0.00     0.084 C 
ENDROOT
BRANCH  10  12
HETATM   12  O20         0      10.847  33.536 -24.026  1.00  0.00    -0.359 OA
HETATM   13  H20         0      10.596  33.789 -23.146  1.00  0.00     0.218 HD
ENDBRANCH  10  12
BRANCH   4  14
HETATM   14  C5          0      14.551  31.947 -28.894  1.00  0.00     0.025 C 
HETATM   15  C6          0      15.836  32.387 -29.178  1.00  0.00     0.004 C 
HETATM   16  C7          0      16.834  31.425 -29.296  1.00  0.00     0.026 C 
HETATM   17  C8          0      16.545  30.065 -29.267  1.00  0.00     0.112 C 
HETATM   18  C10         0      15.240  29.743 -29.615  1.00  0.00     0.112 C 
HETATM   19  C12         0      14.247  30.693 -29.407  1.00  0.00     0.028 C 
BRANCH  17  20
HETATM   20  O9          0      17.441  29.161 -28.725  1.00  0.00    -0.357 OA
HETATM   21  H9          0      18.366  29.342 -28.605  1.00  0.00     0.218 HD
ENDBRANCH  17  20
BRANCH  18  22
HETATM   22  O11         0      14.949  28.397 -29.786  1.00  0.00    -0.357 OA
HETATM   23  H11         0      15.219  27.999 -30.606  1.00  0.00     0.218 HD
ENDBRANCH  18  22
ENDBRANCH   4  14
BRANCH   8  24
HETATM   24  O17         0      14.991  35.574 -23.223  1.00  0.00    -0.359 OA
HETATM   25  H17         0      15.346  34.856 -22.712  1.00  0.00     0.218 HD
ENDBRANCH   8  24
TORSDOF 5
ENDMDL
MODEL 9
REMARK VINA RESULT:       0.0      3.737      6.396
REMARK  5 active torsions:
REMARK  status: ('A' for Active; 'I' for Inactive)
REMARK    1  A    between atoms: C4_4  and  C5_5 
REMARK    2  A    between atoms: C8_8  and  O9_9 
REMARK    3  A    between atoms: C10_11  and  O11_12 
REMARK    4  A    between atoms: C16_18  and  O17_19 
REMARK    5  A    between atoms: C19_22  and  O20_23 
ROOT
HETATM    1  O1          0      12.387  34.398 -31.058  1.00  0.00    -0.286 OA
HETATM    2  C2          0      12.302  34.090 -32.279  1.00  0.00     0.201 C 
HETATM    3  C3          0      11.097  33.811 -32.900  1.00  0.00     0.067 C 
HETATM    4  C4          0      11.041  33.375 -34.219  1.00  0.00     0.103 C 
HETATM    5  O13         0      12.170  33.245 -34.893  1.00  0.00    -0.307 OA
HETATM    6  C14         0      13.343  33.460 -34.340  1.00  0.00     0.107 C 
HETATM    7  C15         0      14.513  32.955 -34.888  1.00  0.00     0.049 C 
HETATM    8  C16         0      15.706  32.964 -34.175  1.00  0.00     0.093 C 
HETATM    9  C18         0      15.790  33.934 -33.184  1.00  0.00     0.048 C 
HETATM   10  C19         0      14.640  34.495 -32.646  1.00  0.00     0.096 C 
HETATM   11  C21         0      13.413  34.102 -33.108  1.00  0.00     0.084 C 
ENDROOT
BRANCH  10  12
HETATM   12  O20         0      14.701  35.109 -31.399  1.00  0.00    -0.359 OA
HETATM   13  H20         0      14.680  34.555 -30.628  1.00  0.00     0.218 HD
ENDBRANCH  10  12
BRANCH   4  14
HETATM   14  C5          0       9.891  32.554 -34.605  1.00  0.00     0.025 C 
HETATM   15  C6          0       9.939  31.631 -35.639  1.00  0.00     0.004 C 
HETATM   16  C7          0       9.255  30.432 -35.466  1.00  0.00     0.026 C 
HETATM   17  C8          0       8.440  30.211 -34.361  1.00  0.00     0.112 C 
HETATM   18  C10         0       7.966  31.364 -33.750  1.00  0.00     0.112 C 
HETATM   19  C12         0       8.714  32.529 -33.868  1.00  0.00     0.028 C 
BRANCH  17  20
HETATM   20  O9          0       8.310  28.945 -33.819  1.00  0.00    -0.357 OA
HETATM   21  H9          0       7.618  28.697 -33.216  1.00  0.00     0.218 HD
ENDBRANCH  17  20
BRANCH  18  22
HETATM   22  O11         0       7.002  31.202 -32.765  1.00  0.00    -0.357 OA
HETATM   23  H11         0       7.183  31.592 -31.918  1.00  0.00     0.218 HD
ENDBRANCH  18  22
ENDBRANCH   4  14
BRANCH   8  24
HETATM   24  O17         0      16.593  31.882 -34.224  1.00  0.00    -0.359 OA
HETATM   25  H17         0      16.848  31.483 -35.047  1.00  0.00     0.218 HD
ENDBRANCH   8  24
TORSDOF 5
ENDMDL
