MODEL 1
REMARK VINA RESULT:      -8.2      0.000      0.000
REMARK  5 active torsions:
REMARK  status: ('A' for Active; 'I' for Inactive)
REMARK    1  A    between atoms: C4_4  and  C5_5 
REMARK    2  A    between atoms: C8_8  and  O9_9 
REMARK    3  A    between atoms: C10_11  and  O11_12 
REMARK    4  A    between atoms: C16_18  and  O17_19 
REMARK    5  A    between atoms: C19_22  and  O20_23 
ROOT
HETATM    1  O1          0      50.433  60.799   8.428  1.00  0.00    -0.286 OA
HETATM    2  C2          0      49.364  60.473   7.842  1.00  0.00     0.201 C 
HETATM    3  C3          0      48.114  60.867   8.286  1.00  0.00     0.067 C 
HETATM    4  C4          0      46.948  60.409   7.683  1.00  0.00     0.103 C 
HETATM    5  O13         0      47.047  59.594   6.648  1.00  0.00    -0.307 OA
HETATM    6  C14         0      48.208  59.159   6.209  1.00  0.00     0.107 C 
HETATM    7  C15         0      48.311  58.026   5.414  1.00  0.00     0.049 C 
HETATM    8  C16         0      49.541  57.428   5.167  1.00  0.00     0.093 C 
HETATM    9  C18         0      50.638  58.273   5.283  1.00  0.00     0.048 C 
HETATM   10  C19         0      50.556  59.438   6.032  1.00  0.00     0.096 C 
HETATM   11  C21         0      49.379  59.767   6.648  1.00  0.00     0.084 C 
ENDROOT
BRANCH  10  12
HETATM   12  O20         0      51.725  60.031   6.499  1.00  0.00    -0.359 OA
HETATM   13  H20         0      52.547  59.760   6.111  1.00  0.00     0.218 HD
ENDBRANCH  10  12
BRANCH   4  14
HETATM   14  C5          0      45.742  60.353   8.511  1.00  0.00     0.025 C 
HETATM   15  C6          0      45.313  59.191   9.136  1.00  0.00     0.004 C 
HETATM   16  C7          0      44.771  59.307  10.412  1.00  0.00     0.026 C 
HETATM   17  C8          0      44.540  60.548  10.996  1.00  0.00     0.112 C 
HETATM   18  C10         0      44.400  61.596  10.095  1.00  0.00     0.112 C 
HETATM   19  C12         0      45.023  61.490   8.858  1.00  0.00     0.028 C 
BRANCH  17  20
HETATM   20  O9          0      44.659  60.721  12.363  1.00  0.00    -0.357 OA
HETATM   21  H9          0      45.207  61.386  12.766  1.00  0.00     0.218 HD
ENDBRANCH  17  20
BRANCH  18  22
HETATM   22  O11         0      43.982  62.815  10.610  1.00  0.00    -0.357 OA
HETATM   23  H11         0      44.109  62.955  11.541  1.00  0.00     0.218 HD
ENDBRANCH  18  22
ENDBRANCH   4  14
BRANCH   8  24
HETATM   24  O17         0      49.683  56.036   5.143  1.00  0.00    -0.359 OA
HETATM   25  H17         0      50.530  55.619   5.244  1.00  0.00     0.218 HD
ENDBRANCH   8  24
TORSDOF 5
ENDMDL
MODEL 2
REMARK VINA RESULT:      -8.1      2.150      3.722
REMARK  5 active torsions:
REMARK  status: ('A' for Active; 'I' for Inactive)
REMARK    1  A    between atoms: C4_4  and  C5_5 
REMARK    2  A    between atoms: C8_8  and  O9_9 
REMARK    3  A    between atoms: C10_11  and  O11_12 
REMARK    4  A    between atoms: C16_18  and  O17_19 
REMARK    5  A    between atoms: C19_22  and  O20_23 
ROOT
HETATM    1  O1          0      44.015  59.084   4.286  1.00  0.00    -0.286 OA
HETATM    2  C2          0      44.826  58.833   5.219  1.00  0.00     0.201 C 
HETATM    3  C3          0      44.618  59.244   6.524  1.00  0.00     0.067 C 
HETATM    4  C4          0      45.575  59.043   7.512  1.00  0.00     0.103 C 
HETATM    5  O13         0      46.699  58.427   7.191  1.00  0.00    -0.307 OA
HETATM    6  C14         0      46.962  58.050   5.959  1.00  0.00     0.107 C 
HETATM    7  C15         0      48.256  57.780   5.539  1.00  0.00     0.049 C 
HETATM    8  C16         0      48.561  57.633   4.191  1.00  0.00     0.093 C 
HETATM    9  C18         0      47.496  57.245   3.387  1.00  0.00     0.048 C 
HETATM   10  C19         0      46.188  57.458   3.798  1.00  0.00     0.096 C 
HETATM   11  C21         0      45.944  58.040   5.013  1.00  0.00     0.084 C 
ENDROOT
BRANCH  10  12
HETATM   12  O20         0      45.171  57.480   2.849  1.00  0.00    -0.359 OA
HETATM   13  H20         0      45.165  58.191   2.220  1.00  0.00     0.218 HD
ENDBRANCH  10  12
BRANCH   4  14
HETATM   14  C5          0      45.581  59.978   8.639  1.00  0.00     0.025 C 
HETATM   15  C6          0      45.799  61.340   8.485  1.00  0.00     0.004 C 
HETATM   16  C7          0      45.057  62.205   9.283  1.00  0.00     0.026 C 
HETATM   17  C8          0      44.226  61.734  10.293  1.00  0.00     0.112 C 
HETATM   18  C10         0      44.554  60.473  10.773  1.00  0.00     0.112 C 
HETATM   19  C12         0      45.220  59.597   9.925  1.00  0.00     0.028 C 
BRANCH  17  20
HETATM   20  O9          0      43.057  62.400  10.617  1.00  0.00    -0.357 OA
HETATM   21  H9          0      43.030  63.210  11.112  1.00  0.00     0.218 HD
ENDBRANCH  17  20
BRANCH  18  22
HETATM   22  O11         0      43.879  60.036  11.904  1.00  0.00    -0.357 OA
HETATM   23  H11         0      42.982  59.747  11.784  1.00  0.00     0.218 HD
ENDBRANCH  18  22
ENDBRANCH   4  14
BRANCH   8  24
HETATM   24  O17         0      49.739  58.159   3.648  1.00  0.00    -0.359 OA
HETATM   25  H17         0      49.857  59.093   3.522  1.00  0.00     0.218 HD
ENDBRANCH   8  24
TORSDOF 5
ENDMDL
MODEL 3
REMARK VINA RESULT:      -8.0      2.888      4.232
REMARK  5 active torsions:
REMARK  status: ('A' for Active; 'I' for Inactive)
REMARK    1  A    between atoms: C4_4  and  C5_5 
REMARK    2  A    between atoms: C8_8  and  O9_9 
REMARK    3  A    between atoms: C10_11  and  O11_12 
REMARK    4  A    between atoms: C16_18  and  O17_19 
REMARK    5  A    between atoms: C19_22  and  O20_23 
ROOT
HETATM    1  O1          0      48.533  57.157   4.702  1.00  0.00    -0.286 OA
HETATM    2  C2          0      47.519  57.852   4.986  1.00  0.00     0.201 C 
HETATM    3  C3          0      47.501  58.760   6.031  1.00  0.00     0.067 C 
HETATM    4  C4          0      46.340  59.437   6.387  1.00  0.00     0.103 C 
HETATM    5  O13         0      45.238  59.217   5.692  1.00  0.00    -0.307 OA
HETATM    6  C14         0      45.192  58.338   4.715  1.00  0.00     0.107 C 
HETATM    7  C15         0      43.991  57.814   4.259  1.00  0.00     0.049 C 
HETATM    8  C16         0      43.958  56.711   3.414  1.00  0.00     0.093 C 
HETATM    9  C18         0      45.109  56.517   2.659  1.00  0.00     0.048 C 
HETATM   10  C19         0      46.318  57.066   3.062  1.00  0.00     0.096 C 
HETATM   11  C21         0      46.376  57.818   4.203  1.00  0.00     0.084 C 
ENDROOT
BRANCH  10  12
HETATM   12  O20         0      47.505  56.527   2.575  1.00  0.00    -0.359 OA
HETATM   13  H20         0      47.472  55.667   2.173  1.00  0.00     0.218 HD
ENDBRANCH  10  12
BRANCH   4  14
HETATM   14  C5          0      46.219  59.873   7.780  1.00  0.00     0.025 C 
HETATM   15  C6          0      45.629  61.075   8.142  1.00  0.00     0.004 C 
HETATM   16  C7          0      44.849  61.088   9.295  1.00  0.00     0.026 C 
HETATM   17  C8          0      44.767  59.981  10.132  1.00  0.00     0.112 C 
HETATM   18  C10         0      45.841  59.105  10.042  1.00  0.00     0.112 C 
HETATM   19  C12         0      46.551  59.051   8.849  1.00  0.00     0.028 C 
BRANCH  17  20
HETATM   20  O9          0      43.602  59.700  10.823  1.00  0.00    -0.357 OA
HETATM   21  H9          0      43.583  59.364  11.712  1.00  0.00     0.218 HD
ENDBRANCH  17  20
BRANCH  18  22
HETATM   22  O11         0      45.903  58.089  10.985  1.00  0.00    -0.357 OA
HETATM   23  H11         0      46.564  57.419  10.852  1.00  0.00     0.218 HD
ENDBRANCH  18  22
ENDBRANCH   4  14
BRANCH   8  24
HETATM   24  O17         0      42.999  55.704   3.566  1.00  0.00    -0.359 OA
HETATM   25  H17         0      42.074  55.872   3.428  1.00  0.00     0.218 HD
ENDBRANCH   8  24
TORSDOF 5
ENDMDL
MODEL 4
REMARK VINA RESULT:      -7.8      1.800      2.733
REMARK  5 active torsions:
REMARK  status: ('A' for Active; 'I' for Inactive)
REMARK    1  A    between atoms: C4_4  and  C5_5 
REMARK    2  A    between atoms: C8_8  and  O9_9 
REMARK    3  A    between atoms: C10_11  and  O11_12 
REMARK    4  A    between atoms: C16_18  and  O17_19 
REMARK    5  A    between atoms: C19_22  and  O20_23 
ROOT
HETATM    1  O1          0      49.364  59.714   5.036  1.00  0.00    -0.286 OA
HETATM    2  C2          0      48.295  59.323   5.579  1.00  0.00     0.201 C 
HETATM    3  C3          0      47.634  60.056   6.550  1.00  0.00     0.067 C 
HETATM    4  C4          0      46.515  59.556   7.205  1.00  0.00     0.103 C 
HETATM    5  O13         0      46.067  58.358   6.872  1.00  0.00    -0.307 OA
HETATM    6  C14         0      46.678  57.605   5.984  1.00  0.00     0.107 C 
HETATM    7  C15         0      46.469  56.235   5.919  1.00  0.00     0.049 C 
HETATM    8  C16         0      47.296  55.414   5.162  1.00  0.00     0.093 C 
HETATM    9  C18         0      47.948  56.046   4.111  1.00  0.00     0.048 C 
HETATM   10  C19         0      48.134  57.422   4.121  1.00  0.00     0.096 C 
HETATM   11  C21         0      47.655  58.164   5.167  1.00  0.00     0.084 C 
ENDROOT
BRANCH  10  12
HETATM   12  O20         0      49.132  57.980   3.329  1.00  0.00    -0.359 OA
HETATM   13  H20         0      50.026  57.944   3.647  1.00  0.00     0.218 HD
ENDBRANCH  10  12
BRANCH   4  14
HETATM   14  C5          0      46.248  60.057   8.555  1.00  0.00     0.025 C 
HETATM   15  C6          0      46.579  61.343   8.958  1.00  0.00     0.004 C 
HETATM   16  C7          0      45.689  62.003   9.799  1.00  0.00     0.026 C 
HETATM   17  C8          0      44.576  61.362  10.331  1.00  0.00     0.112 C 
HETATM   18  C10         0      44.679  59.978  10.394  1.00  0.00     0.112 C 
HETATM   19  C12         0      45.511  59.336   9.485  1.00  0.00     0.028 C 
BRANCH  17  20
HETATM   20  O9          0      43.403  62.056  10.568  1.00  0.00    -0.357 OA
HETATM   21  H9          0      42.605  61.652  10.888  1.00  0.00     0.218 HD
ENDBRANCH  17  20
BRANCH  18  22
HETATM   22  O11         0      43.682  59.305  11.086  1.00  0.00    -0.357 OA
HETATM   23  H11         0      43.958  58.602  11.662  1.00  0.00     0.218 HD
ENDBRANCH  18  22
ENDBRANCH   4  14
BRANCH   8  24
HETATM   24  O17         0      47.695  54.155   5.625  1.00  0.00    -0.359 OA
HETATM   25  H17         0      47.070  53.530   5.973  1.00  0.00     0.218 HD
ENDBRANCH   8  24
TORSDOF 5
ENDMDL
MODEL 5
REMARK VINA RESULT:      -7.8      3.983      6.866
REMARK  5 active torsions:
REMARK  status: ('A' for Active; 'I' for Inactive)
REMARK    1  A    between atoms: C4_4  and  C5_5 
REMARK    2  A    between atoms: C8_8  and  O9_9 
REMARK    3  A    between atoms: C10_11  and  O11_12 
REMARK    4  A    between atoms: C16_18  and  O17_19 
REMARK    5  A    between atoms: C19_22  and  O20_23 
ROOT
HETATM    1  O1          0      46.886  56.075   1.537  1.00  0.00    -0.286 OA
HETATM    2  C2          0      46.792  56.442   2.741  1.00  0.00     0.201 C 
HETATM    3  C3          0      47.783  57.163   3.385  1.00  0.00     0.067 C 
HETATM    4  C4          0      47.700  57.465   4.739  1.00  0.00     0.103 C 
HETATM    5  O13         0      46.636  57.068   5.414  1.00  0.00    -0.307 OA
HETATM    6  C14         0      45.684  56.349   4.860  1.00  0.00     0.107 C 
HETATM    7  C15         0      44.794  55.604   5.620  1.00  0.00     0.049 C 
HETATM    8  C16         0      43.964  54.656   5.036  1.00  0.00     0.093 C 
HETATM    9  C18         0      43.688  54.867   3.690  1.00  0.00     0.048 C 
HETATM   10  C19         0      44.533  55.646   2.911  1.00  0.00     0.096 C 
HETATM   11  C21         0      45.636  56.225   3.476  1.00  0.00     0.084 C 
ENDROOT
BRANCH  10  12
HETATM   12  O20         0      44.509  55.500   1.527  1.00  0.00    -0.359 OA
HETATM   13  H20         0      43.694  55.230   1.122  1.00  0.00     0.218 HD
ENDBRANCH  10  12
BRANCH   4  14
HETATM   14  C5          0      48.959  57.662   5.460  1.00  0.00     0.025 C 
HETATM   15  C6          0      50.200  57.518   4.858  1.00  0.00     0.004 C 
HETATM   16  C7          0      51.203  58.409   5.227  1.00  0.00     0.026 C 
HETATM   17  C8          0      51.021  59.326   6.256  1.00  0.00     0.112 C 
HETATM   18  C10         0      50.043  58.977   7.177  1.00  0.00     0.112 C 
HETATM   19  C12         0      49.005  58.154   6.758  1.00  0.00     0.028 C 
BRANCH  17  20
HETATM   20  O9          0      51.629  60.568   6.214  1.00  0.00    -0.357 OA
HETATM   21  H9          0      52.472  60.757   6.611  1.00  0.00     0.218 HD
ENDBRANCH  17  20
BRANCH  18  22
HETATM   22  O11         0      49.950  59.757   8.321  1.00  0.00    -0.357 OA
HETATM   23  H11         0      50.755  59.914   8.801  1.00  0.00     0.218 HD
ENDBRANCH  18  22
ENDBRANCH   4  14
BRANCH   8  24
HETATM   24  O17         0      43.712  53.426   5.654  1.00  0.00    -0.359 OA
HETATM   25  H17         0      43.157  52.769   5.251  1.00  0.00     0.218 HD
ENDBRANCH   8  24
TORSDOF 5
ENDMDL
MODEL 6
REMARK VINA RESULT:      -7.7      3.784      5.862
REMARK  5 active torsions:
REMARK  status: ('A' for Active; 'I' for Inactive)
REMARK    1  A    between atoms: C4_4  and  C5_5 
REMARK    2  A    between atoms: C8_8  and  O9_9 
REMARK    3  A    between atoms: C10_11  and  O11_12 
REMARK    4  A    between atoms: C16_18  and  O17_19 
REMARK    5  A    between atoms: C19_22  and  O20_23 
ROOT
HETATM    1  O1          0      47.929  54.699   3.179  1.00  0.00    -0.286 OA
HETATM    2  C2          0      47.295  55.727   3.545  1.00  0.00     0.201 C 
HETATM    3  C3          0      47.843  56.693   4.371  1.00  0.00     0.067 C 
HETATM    4  C4          0      47.089  57.762   4.842  1.00  0.00     0.103 C 
HETATM    5  O13         0      45.825  57.860   4.470  1.00  0.00    -0.307 OA
HETATM    6  C14         0      45.245  56.951   3.717  1.00  0.00     0.107 C 
HETATM    7  C15         0      43.865  56.827   3.653  1.00  0.00     0.049 C 
HETATM    8  C16         0      43.266  55.718   3.068  1.00  0.00     0.093 C 
HETATM    9  C18         0      44.047  55.059   2.125  1.00  0.00     0.048 C 
HETATM   10  C19         0      45.428  55.199   2.131  1.00  0.00     0.096 C 
HETATM   11  C21         0      46.025  56.004   3.062  1.00  0.00     0.084 C 
ENDROOT
BRANCH  10  12
HETATM   12  O20         0      46.211  54.235   1.503  1.00  0.00    -0.359 OA
HETATM   13  H20         0      47.043  54.009   1.902  1.00  0.00     0.218 HD
ENDBRANCH  10  12
BRANCH   4  14
HETATM   14  C5          0      47.498  58.361   6.114  1.00  0.00     0.025 C 
HETATM   15  C6          0      47.879  59.689   6.232  1.00  0.00     0.004 C 
HETATM   16  C7          0      47.483  60.375   7.376  1.00  0.00     0.026 C 
HETATM   17  C8          0      46.845  59.729   8.429  1.00  0.00     0.112 C 
HETATM   18  C10         0      47.079  58.362   8.497  1.00  0.00     0.112 C 
HETATM   19  C12         0      47.390  57.686   7.323  1.00  0.00     0.028 C 
BRANCH  17  20
HETATM   20  O9          0      45.898  60.385   9.195  1.00  0.00    -0.357 OA
HETATM   21  H9          0      45.363  61.102   8.872  1.00  0.00     0.218 HD
ENDBRANCH  17  20
BRANCH  18  22
HETATM   22  O11         0      46.625  57.702   9.630  1.00  0.00    -0.357 OA
HETATM   23  H11         0      46.812  58.109  10.469  1.00  0.00     0.218 HD
ENDBRANCH  18  22
ENDBRANCH   4  14
BRANCH   8  24
HETATM   24  O17         0      42.128  55.125   3.624  1.00  0.00    -0.359 OA
HETATM   25  H17         0      41.707  55.481   4.397  1.00  0.00     0.218 HD
ENDBRANCH   8  24
TORSDOF 5
ENDMDL
MODEL 7
REMARK VINA RESULT:      -7.7      2.341      6.585
REMARK  5 active torsions:
REMARK  status: ('A' for Active; 'I' for Inactive)
REMARK    1  A    between atoms: C4_4  and  C5_5 
REMARK    2  A    between atoms: C8_8  and  O9_9 
REMARK    3  A    between atoms: C10_11  and  O11_12 
REMARK    4  A    between atoms: C16_18  and  O17_19 
REMARK    5  A    between atoms: C19_22  and  O20_23 
ROOT
HETATM    1  O1          0      50.842  60.761   7.155  1.00  0.00    -0.286 OA
HETATM    2  C2          0      49.945  59.931   6.840  1.00  0.00     0.201 C 
HETATM    3  C3          0      50.119  58.976   5.854  1.00  0.00     0.067 C 
HETATM    4  C4          0      49.080  58.142   5.456  1.00  0.00     0.103 C 
HETATM    5  O13         0      47.908  58.258   6.055  1.00  0.00    -0.307 OA
HETATM    6  C14         0      47.679  59.172   6.971  1.00  0.00     0.107 C 
HETATM    7  C15         0      46.391  59.564   7.307  1.00  0.00     0.049 C 
HETATM    8  C16         0      46.159  60.696   8.079  1.00  0.00     0.093 C 
HETATM    9  C18         0      47.213  61.071   8.902  1.00  0.00     0.048 C 
HETATM   10  C19         0      48.509  60.658   8.622  1.00  0.00     0.096 C 
HETATM   11  C21         0      48.747  59.861   7.535  1.00  0.00     0.084 C 
ENDROOT
BRANCH  10  12
HETATM   12  O20         0      49.580  61.366   9.160  1.00  0.00    -0.359 OA
HETATM   13  H20         0      49.446  62.282   9.372  1.00  0.00     0.218 HD
ENDBRANCH  10  12
BRANCH   4  14
HETATM   14  C5          0      49.124  57.623   4.088  1.00  0.00     0.025 C 
HETATM   15  C6          0      49.657  56.382   3.771  1.00  0.00     0.004 C 
HETATM   16  C7          0      49.014  55.637   2.788  1.00  0.00     0.026 C 
HETATM   17  C8          0      47.959  56.160   2.049  1.00  0.00     0.112 C 
HETATM   18  C10         0      47.926  57.547   1.987  1.00  0.00     0.112 C 
HETATM   19  C12         0      48.501  58.268   3.027  1.00  0.00     0.028 C 
BRANCH  17  20
HETATM   20  O9          0      46.930  55.347   1.608  1.00  0.00    -0.357 OA
HETATM   21  H9          0      46.585  55.364   0.723  1.00  0.00     0.218 HD
ENDBRANCH  17  20
BRANCH  18  22
HETATM   22  O11         0      47.010  58.115   1.113  1.00  0.00    -0.357 OA
HETATM   23  H11         0      46.143  58.297   1.456  1.00  0.00     0.218 HD
ENDBRANCH  18  22
ENDBRANCH   4  14
BRANCH   8  24
HETATM   24  O17         0      45.099  61.566   7.797  1.00  0.00    -0.359 OA
HETATM   25  H17         0      45.249  62.468   7.541  1.00  0.00     0.218 HD
ENDBRANCH   8  24
TORSDOF 5
ENDMDL
MODEL 8
REMARK VINA RESULT:      -7.6      3.495      6.594
REMARK  5 active torsions:
REMARK  status: ('A' for Active; 'I' for Inactive)
REMARK    1  A    between atoms: C4_4  and  C5_5 
REMARK    2  A    between atoms: C8_8  and  O9_9 
REMARK    3  A    between atoms: C10_11  and  O11_12 
REMARK    4  A    between atoms: C16_18  and  O17_19 
REMARK    5  A    between atoms: C19_22  and  O20_23 
ROOT
HETATM    1  O1          0      49.072  59.181   6.206  1.00  0.00    -0.286 OA
HETATM    2  C2          0      47.847  58.886   6.262  1.00  0.00     0.201 C 
HETATM    3  C3          0      47.237  58.039   5.352  1.00  0.00     0.067 C 
HETATM    4  C4          0      45.865  57.812   5.375  1.00  0.00     0.103 C 
HETATM    5  O13         0      45.138  58.408   6.304  1.00  0.00    -0.307 OA
HETATM    6  C14         0      45.662  59.250   7.167  1.00  0.00     0.107 C 
HETATM    7  C15         0      44.882  60.164   7.861  1.00  0.00     0.049 C 
HETATM    8  C16         0      45.457  61.211   8.571  1.00  0.00     0.093 C 
HETATM    9  C18         0      46.766  60.992   8.983  1.00  0.00     0.048 C 
HETATM   10  C19         0      47.559  60.052   8.341  1.00  0.00     0.096 C 
HETATM   11  C21         0      47.044  59.322   7.304  1.00  0.00     0.084 C 
ENDROOT
BRANCH  10  12
HETATM   12  O20         0      48.944  60.140   8.451  1.00  0.00    -0.359 OA
HETATM   13  H20         0      49.302  60.768   9.066  1.00  0.00     0.218 HD
ENDBRANCH  10  12
BRANCH   4  14
HETATM   14  C5          0      45.227  57.440   4.111  1.00  0.00     0.025 C 
HETATM   15  C6          0      45.919  57.374   2.910  1.00  0.00     0.004 C 
HETATM   16  C7          0      45.588  56.348   2.031  1.00  0.00     0.026 C 
HETATM   17  C8          0      44.515  55.497   2.275  1.00  0.00     0.112 C 
HETATM   18  C10         0      43.542  56.017   3.117  1.00  0.00     0.112 C 
HETATM   19  C12         0      43.918  56.981   4.045  1.00  0.00     0.028 C 
BRANCH  17  20
HETATM   20  O9          0      44.554  54.174   1.869  1.00  0.00    -0.357 OA
HETATM   21  H9          0      43.782  53.671   1.635  1.00  0.00     0.218 HD
ENDBRANCH  17  20
BRANCH  18  22
HETATM   22  O11         0      42.366  55.290   3.243  1.00  0.00    -0.357 OA
HETATM   23  H11         0      42.372  54.401   2.906  1.00  0.00     0.218 HD
ENDBRANCH  18  22
ENDBRANCH   4  14
BRANCH   8  24
HETATM   24  O17         0      44.890  62.491   8.571  1.00  0.00    -0.359 OA
HETATM   25  H17         0      44.009  62.646   8.252  1.00  0.00     0.218 HD
ENDBRANCH   8  24
TORSDOF 5
ENDMDL
MODEL 9
REMARK VINA RESULT:      -7.6      4.610      7.081
REMARK  5 active torsions:
REMARK  status: ('A' for Active; 'I' for Inactive)
REMARK    1  A    between atoms: C4_4  and  C5_5 
REMARK    2  A    between atoms: C8_8  and  O9_9 
REMARK    3  A    between atoms: C10_11  and  O11_12 
REMARK    4  A    between atoms: C16_18  and  O17_19 
REMARK    5  A    between atoms: C19_22  and  O20_23 
ROOT
HETATM    1  O1          0      48.031  54.362   2.581  1.00  0.00    -0.286 OA
HETATM    2  C2          0      47.518  55.491   2.813  1.00  0.00     0.201 C 
HETATM    3  C3          0      48.244  56.555   3.321  1.00  0.00     0.067 C 
HETATM    4  C4          0      47.633  57.756   3.663  1.00  0.00     0.103 C 
HETATM    5  O13         0      46.331  57.882   3.476  1.00  0.00    -0.307 OA
HETATM    6  C14         0      45.589  56.891   3.032  1.00  0.00     0.107 C 
HETATM    7  C15         0      44.213  56.872   3.209  1.00  0.00     0.049 C 
HETATM    8  C16         0      43.471  55.721   2.971  1.00  0.00     0.093 C 
HETATM    9  C18         0      44.049  54.823   2.082  1.00  0.00     0.048 C 
HETATM   10  C19         0      45.417  54.846   1.846  1.00  0.00     0.096 C 
HETATM   11  C21         0      46.201  55.770   2.482  1.00  0.00     0.084 C 
ENDROOT
BRANCH  10  12
HETATM   12  O20         0      46.036  53.714   1.325  1.00  0.00    -0.359 OA
HETATM   13  H20         0      46.910  53.504   1.631  1.00  0.00     0.218 HD
ENDBRANCH  10  12
BRANCH   4  14
HETATM   14  C5          0      48.277  58.563   4.701  1.00  0.00     0.025 C 
HETATM   15  C6          0      48.563  58.072   5.967  1.00  0.00     0.004 C 
HETATM   16  C7          0      49.758  58.469   6.557  1.00  0.00     0.026 C 
HETATM   17  C8          0      50.580  59.426   5.971  1.00  0.00     0.112 C 
HETATM   18  C10         0      49.933  60.284   5.091  1.00  0.00     0.112 C 
HETATM   19  C12         0      48.787  59.831   4.449  1.00  0.00     0.028 C 
BRANCH  17  20
HETATM   20  O9          0      51.954  59.362   6.111  1.00  0.00    -0.357 OA
HETATM   21  H9          0      52.563  59.866   5.583  1.00  0.00     0.218 HD
ENDBRANCH  17  20
BRANCH  18  22
HETATM   22  O11         0      50.660  61.370   4.625  1.00  0.00    -0.357 OA
HETATM   23  H11         0      51.184  61.842   5.262  1.00  0.00     0.218 HD
ENDBRANCH  18  22
ENDBRANCH   4  14
BRANCH   8  24
HETATM   24  O17         0      42.413  55.350   3.809  1.00  0.00    -0.359 OA
HETATM   25  H17         0      42.146  55.889   4.544  1.00  0.00     0.218 HD
ENDBRANCH   8  24
TORSDOF 5
ENDMDL
