MODEL 1
REMARK VINA RESULT:      -5.2      0.000      0.000
REMARK  5 active torsions:
REMARK  status: ('A' for Active; 'I' for Inactive)
REMARK    1  A    between atoms: C4_4  and  C5_5 
REMARK    2  A    between atoms: C8_8  and  O9_9 
REMARK    3  A    between atoms: C10_11  and  O11_12 
REMARK    4  A    between atoms: C16_18  and  O17_19 
REMARK    5  A    between atoms: C19_22  and  O20_23 
ROOT
HETATM    1  O1          0      26.207 111.312  13.101  1.00  0.00    -0.286 OA
HETATM    2  C2          0      25.577 112.401  13.000  1.00  0.00     0.201 C 
HETATM    3  C3          0      24.289 112.479  12.498  1.00  0.00     0.067 C 
HETATM    4  C4          0      23.656 113.701  12.302  1.00  0.00     0.103 C 
HETATM    5  O13         0      24.301 114.809  12.625  1.00  0.00    -0.307 OA
HETATM    6  C14         0      25.538 114.793  13.070  1.00  0.00     0.107 C 
HETATM    7  C15         0      26.344 115.921  13.029  1.00  0.00     0.049 C 
HETATM    8  C16         0      27.713 115.839  13.258  1.00  0.00     0.093 C 
HETATM    9  C18         0      28.116 114.750  14.021  1.00  0.00     0.048 C 
HETATM   10  C19         0      27.312 113.623  14.122  1.00  0.00     0.096 C 
HETATM   11  C21         0      26.105 113.590  13.478  1.00  0.00     0.084 C 
ENDROOT
BRANCH  10  12
HETATM   12  O20         0      27.883 112.412  14.499  1.00  0.00    -0.359 OA
HETATM   13  H20         0      27.305 111.672  14.640  1.00  0.00     0.218 HD
ENDBRANCH  10  12
BRANCH   4  14
HETATM   14  C5          0      22.625 113.763  11.265  1.00  0.00     0.025 C 
HETATM   15  C6          0      22.575 112.875  10.201  1.00  0.00     0.004 C 
HETATM   16  C7          0      21.321 112.444   9.779  1.00  0.00     0.026 C 
HETATM   17  C8          0      20.150 112.979  10.307  1.00  0.00     0.112 C 
HETATM   18  C10         0      20.289 114.246  10.858  1.00  0.00     0.112 C 
HETATM   19  C12         0      21.534 114.619  11.350  1.00  0.00     0.028 C 
BRANCH  17  20
HETATM   20  O9          0      19.015 112.201  10.445  1.00  0.00    -0.357 OA
HETATM   21  H9          0      18.403 112.284  11.168  1.00  0.00     0.218 HD
ENDBRANCH  17  20
BRANCH  18  22
HETATM   22  O11         0      19.123 114.902  11.226  1.00  0.00    -0.357 OA
HETATM   23  H11         0      19.205 115.593  11.873  1.00  0.00     0.218 HD
ENDBRANCH  18  22
ENDBRANCH   4  14
BRANCH   8  24
HETATM   24  O17         0      28.624 116.588  12.506  1.00  0.00    -0.359 OA
HETATM   25  H17         0      28.405 116.919  11.642  1.00  0.00     0.218 HD
ENDBRANCH   8  24
TORSDOF 5
ENDMDL
MODEL 2
REMARK VINA RESULT:      -5.2      1.412      1.699
REMARK  5 active torsions:
REMARK  status: ('A' for Active; 'I' for Inactive)
REMARK    1  A    between atoms: C4_4  and  C5_5 
REMARK    2  A    between atoms: C8_8  and  O9_9 
REMARK    3  A    between atoms: C10_11  and  O11_12 
REMARK    4  A    between atoms: C16_18  and  O17_19 
REMARK    5  A    between atoms: C19_22  and  O20_23 
ROOT
HETATM    1  O1          0      26.313 111.341  12.995  1.00  0.00    -0.286 OA
HETATM    2  C2          0      25.499 112.304  13.014  1.00  0.00     0.201 C 
HETATM    3  C3          0      24.156 112.157  12.712  1.00  0.00     0.067 C 
HETATM    4  C4          0      23.301 113.252  12.640  1.00  0.00     0.103 C 
HETATM    5  O13         0      23.789 114.455  12.889  1.00  0.00    -0.307 OA
HETATM    6  C14         0      25.063 114.654  13.143  1.00  0.00     0.107 C 
HETATM    7  C15         0      25.649 115.904  13.009  1.00  0.00     0.049 C 
HETATM    8  C16         0      27.030 116.060  13.029  1.00  0.00     0.093 C 
HETATM    9  C18         0      27.724 115.059  13.698  1.00  0.00     0.048 C 
HETATM   10  C19         0      27.149 113.811  13.892  1.00  0.00     0.096 C 
HETATM   11  C21         0      25.882 113.568  13.435  1.00  0.00     0.084 C 
ENDROOT
BRANCH  10  12
HETATM   12  O20         0      27.969 112.717  14.153  1.00  0.00    -0.359 OA
HETATM   13  H20         0      28.788 112.873  14.608  1.00  0.00     0.218 HD
ENDBRANCH  10  12
BRANCH   4  14
HETATM   14  C5          0      22.130 113.132  11.770  1.00  0.00     0.025 C 
HETATM   15  C6          0      21.762 114.117  10.865  1.00  0.00     0.004 C 
HETATM   16  C7          0      21.265 113.706   9.632  1.00  0.00     0.026 C 
HETATM   17  C8          0      21.017 112.366   9.356  1.00  0.00     0.112 C 
HETATM   18  C10         0      20.810 111.571  10.476  1.00  0.00     0.112 C 
HETATM   19  C12         0      21.389 111.961  11.678  1.00  0.00     0.028 C 
BRANCH  17  20
HETATM   20  O9          0      21.182 111.863   8.077  1.00  0.00    -0.357 OA
HETATM   21  H9          0      20.671 112.147   7.328  1.00  0.00     0.218 HD
ENDBRANCH  17  20
BRANCH  18  22
HETATM   22  O11         0      20.373 110.273  10.254  1.00  0.00    -0.357 OA
HETATM   23  H11         0      20.976 109.686   9.814  1.00  0.00     0.218 HD
ENDBRANCH  18  22
ENDBRANCH   4  14
BRANCH   8  24
HETATM   24  O17         0      27.676 116.952  12.166  1.00  0.00    -0.359 OA
HETATM   25  H17         0      28.475 116.716  11.710  1.00  0.00     0.218 HD
ENDBRANCH   8  24
TORSDOF 5
ENDMDL
MODEL 3
REMARK VINA RESULT:      -5.0      1.912      6.980
REMARK  5 active torsions:
REMARK  status: ('A' for Active; 'I' for Inactive)
REMARK    1  A    between atoms: C4_4  and  C5_5 
REMARK    2  A    between atoms: C8_8  and  O9_9 
REMARK    3  A    between atoms: C10_11  and  O11_12 
REMARK    4  A    between atoms: C16_18  and  O17_19 
REMARK    5  A    between atoms: C19_22  and  O20_23 
ROOT
HETATM    1  O1          0      22.416 117.343  11.751  1.00  0.00    -0.286 OA
HETATM    2  C2          0      22.965 116.330  12.263  1.00  0.00     0.201 C 
HETATM    3  C3          0      23.957 116.419  13.225  1.00  0.00     0.067 C 
HETATM    4  C4          0      24.617 115.291  13.698  1.00  0.00     0.103 C 
HETATM    5  O13         0      24.268 114.107  13.227  1.00  0.00    -0.307 OA
HETATM    6  C14         0      23.359 113.969  12.287  1.00  0.00     0.107 C 
HETATM    7  C15         0      23.272 112.818  11.517  1.00  0.00     0.049 C 
HETATM    8  C16         0      22.490 112.774  10.369  1.00  0.00     0.093 C 
HETATM    9  C18         0      21.442 113.687  10.338  1.00  0.00     0.048 C 
HETATM   10  C19         0      21.475 114.827  11.130  1.00  0.00     0.096 C 
HETATM   11  C21         0      22.540 115.045  11.961  1.00  0.00     0.084 C 
ENDROOT
BRANCH  10  12
HETATM   12  O20         0      20.680 115.916  10.788  1.00  0.00    -0.359 OA
HETATM   13  H20         0      19.745 115.850  10.940  1.00  0.00     0.218 HD
ENDBRANCH  10  12
BRANCH   4  14
HETATM   14  C5          0      25.979 115.474  14.204  1.00  0.00     0.025 C 
HETATM   15  C6          0      27.025 114.626  13.871  1.00  0.00     0.004 C 
HETATM   16  C7          0      28.277 115.198  13.664  1.00  0.00     0.026 C 
HETATM   17  C8          0      28.513 116.546  13.910  1.00  0.00     0.112 C 
HETATM   18  C10         0      27.632 117.134  14.808  1.00  0.00     0.112 C 
HETATM   19  C12         0      26.357 116.594  14.933  1.00  0.00     0.028 C 
BRANCH  17  20
HETATM   20  O9          0      29.420 117.258  13.146  1.00  0.00    -0.357 OA
HETATM   21  H9          0      29.366 117.338  12.201  1.00  0.00     0.218 HD
ENDBRANCH  17  20
BRANCH  18  22
HETATM   22  O11         0      27.933 118.420  15.233  1.00  0.00    -0.357 OA
HETATM   23  H11         0      27.209 118.952  15.543  1.00  0.00     0.218 HD
ENDBRANCH  18  22
ENDBRANCH   4  14
BRANCH   8  24
HETATM   24  O17         0      22.925 112.114   9.215  1.00  0.00    -0.359 OA
HETATM   25  H17         0      23.253 112.590   8.462  1.00  0.00     0.218 HD
ENDBRANCH   8  24
TORSDOF 5
ENDMDL
MODEL 4
REMARK VINA RESULT:      -4.8      2.030      6.395
REMARK  5 active torsions:
REMARK  status: ('A' for Active; 'I' for Inactive)
REMARK    1  A    between atoms: C4_4  and  C5_5 
REMARK    2  A    between atoms: C8_8  and  O9_9 
REMARK    3  A    between atoms: C10_11  and  O11_12 
REMARK    4  A    between atoms: C16_18  and  O17_19 
REMARK    5  A    between atoms: C19_22  and  O20_23 
ROOT
HETATM    1  O1          0      23.816 111.560  15.984  1.00  0.00    -0.286 OA
HETATM    2  C2          0      24.352 112.073  14.963  1.00  0.00     0.201 C 
HETATM    3  C3          0      25.370 113.008  15.039  1.00  0.00     0.067 C 
HETATM    4  C4          0      25.871 113.633  13.903  1.00  0.00     0.103 C 
HETATM    5  O13         0      25.371 113.305  12.725  1.00  0.00    -0.307 OA
HETATM    6  C14         0      24.378 112.452  12.600  1.00  0.00     0.107 C 
HETATM    7  C15         0      23.595 112.404  11.456  1.00  0.00     0.049 C 
HETATM    8  C16         0      22.403 111.690  11.426  1.00  0.00     0.093 C 
HETATM    9  C18         0      22.319 110.650  12.345  1.00  0.00     0.048 C 
HETATM   10  C19         0      23.121 110.643  13.478  1.00  0.00     0.096 C 
HETATM   11  C21         0      24.014 111.659  13.683  1.00  0.00     0.084 C 
ENDROOT
BRANCH  10  12
HETATM   12  O20         0      22.742 109.876  14.575  1.00  0.00    -0.359 OA
HETATM   13  H20         0      22.795 110.273  15.436  1.00  0.00     0.218 HD
ENDBRANCH  10  12
BRANCH   4  14
HETATM   14  C5          0      26.457 114.964  14.075  1.00  0.00     0.025 C 
HETATM   15  C6          0      27.523 115.212  14.927  1.00  0.00     0.004 C 
HETATM   16  C7          0      28.487 116.122  14.506  1.00  0.00     0.026 C 
HETATM   17  C8          0      28.331 116.861  13.339  1.00  0.00     0.112 C 
HETATM   18  C10         0      27.016 117.016  12.921  1.00  0.00     0.112 C 
HETATM   19  C12         0      26.090 116.046  13.286  1.00  0.00     0.028 C 
BRANCH  17  20
HETATM   20  O9          0      29.427 117.214  12.571  1.00  0.00    -0.357 OA
HETATM   21  H9          0      30.214 117.611  12.926  1.00  0.00     0.218 HD
ENDBRANCH  17  20
BRANCH  18  22
HETATM   22  O11         0      26.788 117.898  11.875  1.00  0.00    -0.357 OA
HETATM   23  H11         0      27.552 118.219  11.409  1.00  0.00     0.218 HD
ENDBRANCH  18  22
ENDBRANCH   4  14
BRANCH   8  24
HETATM   24  O17         0      21.271 112.188  10.772  1.00  0.00    -0.359 OA
HETATM   25  H17         0      20.678 112.797  11.196  1.00  0.00     0.218 HD
ENDBRANCH   8  24
TORSDOF 5
ENDMDL
MODEL 5
REMARK VINA RESULT:      -4.8     11.265     12.545
REMARK  5 active torsions:
REMARK  status: ('A' for Active; 'I' for Inactive)
REMARK    1  A    between atoms: C4_4  and  C5_5 
REMARK    2  A    between atoms: C8_8  and  O9_9 
REMARK    3  A    between atoms: C10_11  and  O11_12 
REMARK    4  A    between atoms: C16_18  and  O17_19 
REMARK    5  A    between atoms: C19_22  and  O20_23 
ROOT
HETATM    1  O1          0      23.911 125.482   4.249  1.00  0.00    -0.286 OA
HETATM    2  C2          0      24.080 124.362   3.693  1.00  0.00     0.201 C 
HETATM    3  C3          0      23.081 123.406   3.611  1.00  0.00     0.067 C 
HETATM    4  C4          0      23.323 122.142   3.085  1.00  0.00     0.103 C 
HETATM    5  O13         0      24.534 121.863   2.637  1.00  0.00    -0.307 OA
HETATM    6  C14         0      25.528 122.720   2.725  1.00  0.00     0.107 C 
HETATM    7  C15         0      26.852 122.316   2.637  1.00  0.00     0.049 C 
HETATM    8  C16         0      27.892 123.171   2.982  1.00  0.00     0.093 C 
HETATM    9  C18         0      27.593 124.525   2.891  1.00  0.00     0.048 C 
HETATM   10  C19         0      26.275 124.961   2.928  1.00  0.00     0.096 C 
HETATM   11  C21         0      25.261 124.049   3.038  1.00  0.00     0.084 C 
ENDROOT
BRANCH  10  12
HETATM   12  O20         0      26.005 126.281   3.273  1.00  0.00    -0.359 OA
HETATM   13  H20         0      25.557 126.825   2.636  1.00  0.00     0.218 HD
ENDBRANCH  10  12
BRANCH   4  14
HETATM   14  C5          0      22.477 121.046   3.560  1.00  0.00     0.025 C 
HETATM   15  C6          0      21.455 120.500   2.796  1.00  0.00     0.004 C 
HETATM   16  C7          0      21.264 119.124   2.866  1.00  0.00     0.026 C 
HETATM   17  C8          0      21.973 118.333   3.764  1.00  0.00     0.112 C 
HETATM   18  C10         0      22.467 119.012   4.870  1.00  0.00     0.112 C 
HETATM   19  C12         0      22.730 120.371   4.747  1.00  0.00     0.028 C 
BRANCH  17  20
HETATM   20  O9          0      22.320 117.033   3.443  1.00  0.00    -0.357 OA
HETATM   21  H9          0      21.720 116.407   3.054  1.00  0.00     0.218 HD
ENDBRANCH  17  20
BRANCH  18  22
HETATM   22  O11         0      23.016 118.243   5.886  1.00  0.00    -0.357 OA
HETATM   23  H11         0      22.504 117.501   6.188  1.00  0.00     0.218 HD
ENDBRANCH  18  22
ENDBRANCH   4  14
BRANCH   8  24
HETATM   24  O17         0      29.013 122.710   3.681  1.00  0.00    -0.359 OA
HETATM   25  H17         0      29.826 123.202   3.700  1.00  0.00     0.218 HD
ENDBRANCH   8  24
TORSDOF 5
ENDMDL
MODEL 6
REMARK VINA RESULT:      -4.7      1.895      3.257
REMARK  5 active torsions:
REMARK  status: ('A' for Active; 'I' for Inactive)
REMARK    1  A    between atoms: C4_4  and  C5_5 
REMARK    2  A    between atoms: C8_8  and  O9_9 
REMARK    3  A    between atoms: C10_11  and  O11_12 
REMARK    4  A    between atoms: C16_18  and  O17_19 
REMARK    5  A    between atoms: C19_22  and  O20_23 
ROOT
HETATM    1  O1          0      25.691 115.451  14.363  1.00  0.00    -0.286 OA
HETATM    2  C2          0      25.447 114.417  13.684  1.00  0.00     0.201 C 
HETATM    3  C3          0      24.411 114.348  12.768  1.00  0.00     0.067 C 
HETATM    4  C4          0      24.099 113.165  12.107  1.00  0.00     0.103 C 
HETATM    5  O13         0      24.828 112.091  12.352  1.00  0.00    -0.307 OA
HETATM    6  C14         0      25.799 112.092  13.239  1.00  0.00     0.107 C 
HETATM    7  C15         0      26.290 110.915  13.787  1.00  0.00     0.049 C 
HETATM    8  C16         0      27.125 110.929  14.897  1.00  0.00     0.093 C 
HETATM    9  C18         0      27.840 112.107  15.079  1.00  0.00     0.048 C 
HETATM   10  C19         0      27.402 113.293  14.506  1.00  0.00     0.096 C 
HETATM   11  C21         0      26.267 113.300  13.743  1.00  0.00     0.084 C 
ENDROOT
BRANCH  10  12
HETATM   12  O20         0      27.845 114.505  15.029  1.00  0.00    -0.359 OA
HETATM   13  H20         0      27.839 114.611  15.972  1.00  0.00     0.218 HD
ENDBRANCH  10  12
BRANCH   4  14
HETATM   14  C5          0      22.716 112.991  11.661  1.00  0.00     0.025 C 
HETATM   15  C6          0      22.037 113.951  10.925  1.00  0.00     0.004 C 
HETATM   16  C7          0      21.186 113.508   9.917  1.00  0.00     0.026 C 
HETATM   17  C8          0      20.914 112.156   9.734  1.00  0.00     0.112 C 
HETATM   18  C10         0      21.110 111.368  10.860  1.00  0.00     0.112 C 
HETATM   19  C12         0      22.030 111.793  11.811  1.00  0.00     0.028 C 
BRANCH  17  20
HETATM   20  O9          0      20.678 111.646   8.470  1.00  0.00    -0.357 OA
HETATM   21  H9          0      21.213 110.974   8.064  1.00  0.00     0.218 HD
ENDBRANCH  17  20
BRANCH  18  22
HETATM   22  O11         0      20.676 110.052  10.789  1.00  0.00    -0.357 OA
HETATM   23  H11         0      19.762 109.912  10.569  1.00  0.00     0.218 HD
ENDBRANCH  18  22
ENDBRANCH   4  14
BRANCH   8  24
HETATM   24  O17         0      26.996 109.982  15.919  1.00  0.00    -0.359 OA
HETATM   25  H17         0      26.487 110.158  16.701  1.00  0.00     0.218 HD
ENDBRANCH   8  24
TORSDOF 5
ENDMDL
MODEL 7
REMARK VINA RESULT:      -4.6      3.765      6.420
REMARK  5 active torsions:
REMARK  status: ('A' for Active; 'I' for Inactive)
REMARK    1  A    between atoms: C4_4  and  C5_5 
REMARK    2  A    between atoms: C8_8  and  O9_9 
REMARK    3  A    between atoms: C10_11  and  O11_12 
REMARK    4  A    between atoms: C16_18  and  O17_19 
REMARK    5  A    between atoms: C19_22  and  O20_23 
ROOT
HETATM    1  O1          0      25.283 118.899  15.764  1.00  0.00    -0.286 OA
HETATM    2  C2          0      25.298 118.270  14.671  1.00  0.00     0.201 C 
HETATM    3  C3          0      25.410 116.892  14.600  1.00  0.00     0.067 C 
HETATM    4  C4          0      25.528 116.232  13.382  1.00  0.00     0.103 C 
HETATM    5  O13         0      25.512 116.946  12.269  1.00  0.00    -0.307 OA
HETATM    6  C14         0      25.445 118.259  12.282  1.00  0.00     0.107 C 
HETATM    7  C15         0      25.824 119.020  11.186  1.00  0.00     0.049 C 
HETATM    8  C16         0      25.996 120.396  11.287  1.00  0.00     0.093 C 
HETATM    9  C18         0      25.283 121.002  12.315  1.00  0.00     0.048 C 
HETATM   10  C19         0      24.848 120.260  13.405  1.00  0.00     0.096 C 
HETATM   11  C21         0      25.108 118.917  13.460  1.00  0.00     0.084 C 
ENDROOT
BRANCH  10  12
HETATM   12  O20         0      24.541 120.914  14.594  1.00  0.00    -0.359 OA
HETATM   13  H20         0      24.888 120.555  15.402  1.00  0.00     0.218 HD
ENDBRANCH  10  12
BRANCH   4  14
HETATM   14  C5          0      26.222 114.943  13.382  1.00  0.00     0.025 C 
HETATM   15  C6          0      27.600 114.832  13.503  1.00  0.00     0.004 C 
HETATM   16  C7          0      28.097 113.778  14.264  1.00  0.00     0.026 C 
HETATM   17  C8          0      27.262 112.791  14.776  1.00  0.00     0.112 C 
HETATM   18  C10         0      26.061 112.637  14.096  1.00  0.00     0.112 C 
HETATM   19  C12         0      25.544 113.732  13.413  1.00  0.00     0.028 C 
BRANCH  17  20
HETATM   20  O9          0      27.542 112.182  15.986  1.00  0.00    -0.357 OA
HETATM   21  H9          0      28.364 111.746  16.180  1.00  0.00     0.218 HD
ENDBRANCH  17  20
BRANCH  18  22
HETATM   22  O11         0      25.276 111.547  14.444  1.00  0.00    -0.357 OA
HETATM   23  H11         0      24.567 111.705  15.056  1.00  0.00     0.218 HD
ENDBRANCH  18  22
ENDBRANCH   4  14
BRANCH   8  24
HETATM   24  O17         0      27.047 121.050  10.636  1.00  0.00    -0.359 OA
HETATM   25  H17         0      27.774 121.428  11.117  1.00  0.00     0.218 HD
ENDBRANCH   8  24
TORSDOF 5
ENDMDL
MODEL 8
REMARK VINA RESULT:      -4.6      3.244      6.818
REMARK  5 active torsions:
REMARK  status: ('A' for Active; 'I' for Inactive)
REMARK    1  A    between atoms: C4_4  and  C5_5 
REMARK    2  A    between atoms: C8_8  and  O9_9 
REMARK    3  A    between atoms: C10_11  and  O11_12 
REMARK    4  A    between atoms: C16_18  and  O17_19 
REMARK    5  A    between atoms: C19_22  and  O20_23 
ROOT
HETATM    1  O1          0      26.476 119.633  11.299  1.00  0.00    -0.286 OA
HETATM    2  C2          0      25.842 118.756  11.948  1.00  0.00     0.201 C 
HETATM    3  C3          0      26.459 117.667  12.539  1.00  0.00     0.067 C 
HETATM    4  C4          0      25.727 116.663  13.160  1.00  0.00     0.103 C 
HETATM    5  O13         0      24.410 116.769  13.200  1.00  0.00    -0.307 OA
HETATM    6  C14         0      23.771 117.763  12.622  1.00  0.00     0.107 C 
HETATM    7  C15         0      22.422 117.682  12.312  1.00  0.00     0.049 C 
HETATM    8  C16         0      21.815 118.617  11.482  1.00  0.00     0.093 C 
HETATM    9  C18         0      22.445 119.855  11.432  1.00  0.00     0.048 C 
HETATM   10  C19         0      23.783 119.980  11.781  1.00  0.00     0.096 C 
HETATM   11  C21         0      24.483 118.878  12.193  1.00  0.00     0.084 C 
ENDROOT
BRANCH  10  12
HETATM   12  O20         0      24.504 121.079  11.327  1.00  0.00    -0.359 OA
HETATM   13  H20         0      24.148 121.577  10.601  1.00  0.00     0.218 HD
ENDBRANCH  10  12
BRANCH   4  14
HETATM   14  C5          0      26.328 115.329  13.211  1.00  0.00     0.025 C 
HETATM   15  C6          0      27.693 115.124  13.350  1.00  0.00     0.004 C 
HETATM   16  C7          0      28.106 114.063  14.150  1.00  0.00     0.026 C 
HETATM   17  C8          0      27.199 113.155  14.684  1.00  0.00     0.112 C 
HETATM   18  C10         0      25.996 113.064  13.997  1.00  0.00     0.112 C 
HETATM   19  C12         0      25.564 114.170  13.274  1.00  0.00     0.028 C 
BRANCH  17  20
HETATM   20  O9          0      27.425 112.569  15.917  1.00  0.00    -0.357 OA
HETATM   21  H9          0      28.170 112.774  16.470  1.00  0.00     0.218 HD
ENDBRANCH  17  20
BRANCH  18  22
HETATM   22  O11         0      25.133 112.044  14.371  1.00  0.00    -0.357 OA
HETATM   23  H11         0      24.341 111.941  13.857  1.00  0.00     0.218 HD
ENDBRANCH  18  22
ENDBRANCH   4  14
BRANCH   8  24
HETATM   24  O17         0      20.864 118.237  10.528  1.00  0.00    -0.359 OA
HETATM   25  H17         0      20.752 118.717   9.716  1.00  0.00     0.218 HD
ENDBRANCH   8  24
TORSDOF 5
ENDMDL
MODEL 9
REMARK VINA RESULT:      -4.6      1.701      6.922
REMARK  5 active torsions:
REMARK  status: ('A' for Active; 'I' for Inactive)
REMARK    1  A    between atoms: C4_4  and  C5_5 
REMARK    2  A    between atoms: C8_8  and  O9_9 
REMARK    3  A    between atoms: C10_11  and  O11_12 
REMARK    4  A    between atoms: C16_18  and  O17_19 
REMARK    5  A    between atoms: C19_22  and  O20_23 
ROOT
HETATM    1  O1          0      21.447 117.356  11.179  1.00  0.00    -0.286 OA
HETATM    2  C2          0      22.002 116.354  11.706  1.00  0.00     0.201 C 
HETATM    3  C3          0      22.962 116.463  12.698  1.00  0.00     0.067 C 
HETATM    4  C4          0      23.632 115.348  13.190  1.00  0.00     0.103 C 
HETATM    5  O13         0      23.323 114.158  12.706  1.00  0.00    -0.307 OA
HETATM    6  C14         0      22.446 114.002  11.738  1.00  0.00     0.107 C 
HETATM    7  C15         0      22.408 112.851  10.965  1.00  0.00     0.049 C 
HETATM    8  C16         0      21.662 112.793   9.794  1.00  0.00     0.093 C 
HETATM    9  C18         0      20.596 113.683   9.732  1.00  0.00     0.048 C 
HETATM   10  C19         0      20.581 114.821  10.526  1.00  0.00     0.096 C 
HETATM   11  C21         0      21.615 115.061  11.389  1.00  0.00     0.084 C 
ENDROOT
BRANCH  10  12
HETATM   12  O20         0      19.773 115.894  10.162  1.00  0.00    -0.359 OA
HETATM   13  H20         0      19.425 115.909   9.278  1.00  0.00     0.218 HD
ENDBRANCH  10  12
BRANCH   4  14
HETATM   14  C5          0      24.973 115.560  13.737  1.00  0.00     0.025 C 
HETATM   15  C6          0      25.397 114.990  14.929  1.00  0.00     0.004 C 
HETATM   16  C7          0      26.712 114.539  14.995  1.00  0.00     0.026 C 
HETATM   17  C8          0      27.614 114.766  13.962  1.00  0.00     0.112 C 
HETATM   18  C10         0      27.302 115.846  13.147  1.00  0.00     0.112 C 
HETATM   19  C12         0      25.969 116.223  13.032  1.00  0.00     0.028 C 
BRANCH  17  20
HETATM   20  O9          0      28.608 113.848  13.674  1.00  0.00    -0.357 OA
HETATM   21  H9          0      29.385 113.726  14.206  1.00  0.00     0.218 HD
ENDBRANCH  17  20
BRANCH  18  22
HETATM   22  O11         0      28.261 116.233  12.221  1.00  0.00    -0.357 OA
HETATM   23  H11         0      27.993 116.258  11.310  1.00  0.00     0.218 HD
ENDBRANCH  18  22
ENDBRANCH   4  14
BRANCH   8  24
HETATM   24  O17         0      22.147 112.145   8.652  1.00  0.00    -0.359 OA
HETATM   25  H17         0      23.058 111.891   8.572  1.00  0.00     0.218 HD
ENDBRANCH   8  24
TORSDOF 5
ENDMDL
