MODEL 1
REMARK VINA RESULT:      -4.9      0.000      0.000
REMARK  5 active torsions:
REMARK  status: ('A' for Active; 'I' for Inactive)
REMARK    1  A    between atoms: C4_4  and  C5_5 
REMARK    2  A    between atoms: C8_8  and  O9_9 
REMARK    3  A    between atoms: C10_11  and  O11_12 
REMARK    4  A    between atoms: C16_18  and  O17_19 
REMARK    5  A    between atoms: C19_22  and  O20_23 
ROOT
HETATM    1  O1          0      16.371  56.775 -13.005  1.00  0.00    -0.286 OA
HETATM    2  C2          0      15.350  56.034 -13.007  1.00  0.00     0.201 C 
HETATM    3  C3          0      14.887  55.397 -14.145  1.00  0.00     0.067 C 
HETATM    4  C4          0      13.702  54.670 -14.142  1.00  0.00     0.103 C 
HETATM    5  O13         0      13.018  54.574 -13.015  1.00  0.00    -0.307 OA
HETATM    6  C14         0      13.394  55.190 -11.916  1.00  0.00     0.107 C 
HETATM    7  C15         0      12.510  55.428 -10.873  1.00  0.00     0.049 C 
HETATM    8  C16         0      12.834  56.293  -9.835  1.00  0.00     0.093 C 
HETATM    9  C18         0      14.196  56.462  -9.616  1.00  0.00     0.048 C 
HETATM   10  C19         0      15.112  56.188 -10.623  1.00  0.00     0.096 C 
HETATM   11  C21         0      14.672  55.733 -11.835  1.00  0.00     0.084 C 
ENDROOT
BRANCH  10  12
HETATM   12  O20         0      16.381  56.756 -10.560  1.00  0.00    -0.359 OA
HETATM   13  H20         0      16.728  57.157 -11.348  1.00  0.00     0.218 HD
ENDBRANCH  10  12
BRANCH   4  14
HETATM   14  C5          0      12.984  54.553 -15.413  1.00  0.00     0.025 C 
HETATM   15  C6          0      11.794  53.853 -15.543  1.00  0.00     0.004 C 
HETATM   16  C7          0      10.822  54.385 -16.384  1.00  0.00     0.026 C 
HETATM   17  C8          0      11.072  55.502 -17.173  1.00  0.00     0.112 C 
HETATM   18  C10         0      12.414  55.727 -17.450  1.00  0.00     0.112 C 
HETATM   19  C12         0      13.362  55.258 -16.549  1.00  0.00     0.028 C 
BRANCH  17  20
HETATM   20  O9          0      10.066  56.407 -17.459  1.00  0.00    -0.357 OA
HETATM   21  H9          0       9.274  56.498 -16.942  1.00  0.00     0.218 HD
ENDBRANCH  17  20
BRANCH  18  22
HETATM   22  O11         0      12.706  56.712 -18.383  1.00  0.00    -0.357 OA
HETATM   23  H11         0      13.405  56.526 -19.000  1.00  0.00     0.218 HD
ENDBRANCH  18  22
ENDBRANCH   4  14
BRANCH   8  24
HETATM   24  O17         0      11.888  57.169  -9.293  1.00  0.00    -0.359 OA
HETATM   25  H17         0      10.963  57.095  -9.499  1.00  0.00     0.218 HD
ENDBRANCH   8  24
TORSDOF 5
ENDMDL
MODEL 2
REMARK VINA RESULT:      -4.9      1.740      6.488
REMARK  5 active torsions:
REMARK  status: ('A' for Active; 'I' for Inactive)
REMARK    1  A    between atoms: C4_4  and  C5_5 
REMARK    2  A    between atoms: C8_8  and  O9_9 
REMARK    3  A    between atoms: C10_11  and  O11_12 
REMARK    4  A    between atoms: C16_18  and  O17_19 
REMARK    5  A    between atoms: C19_22  and  O20_23 
ROOT
HETATM    1  O1          0      11.131  53.238 -11.751  1.00  0.00    -0.286 OA
HETATM    2  C2          0      12.015  53.874 -12.387  1.00  0.00     0.201 C 
HETATM    3  C3          0      13.069  54.521 -11.763  1.00  0.00     0.067 C 
HETATM    4  C4          0      13.971  55.301 -12.478  1.00  0.00     0.103 C 
HETATM    5  O13         0      13.822  55.404 -13.787  1.00  0.00    -0.307 OA
HETATM    6  C14         0      12.818  54.841 -14.423  1.00  0.00     0.107 C 
HETATM    7  C15         0      12.428  55.258 -15.688  1.00  0.00     0.049 C 
HETATM    8  C16         0      11.225  54.843 -16.245  1.00  0.00     0.093 C 
HETATM    9  C18         0      10.731  53.643 -15.749  1.00  0.00     0.048 C 
HETATM   10  C19         0      11.136  53.172 -14.508  1.00  0.00     0.096 C 
HETATM   11  C21         0      12.041  53.888 -13.773  1.00  0.00     0.084 C 
ENDROOT
BRANCH  10  12
HETATM   12  O20         0      10.344  52.243 -13.841  1.00  0.00    -0.359 OA
HETATM   13  H20         0       9.424  52.446 -13.721  1.00  0.00     0.218 HD
ENDBRANCH  10  12
BRANCH   4  14
HETATM   14  C5          0      14.636  56.387 -11.757  1.00  0.00     0.025 C 
HETATM   15  C6          0      14.444  56.618 -10.403  1.00  0.00     0.004 C 
HETATM   16  C7          0      15.548  57.013  -9.653  1.00  0.00     0.026 C 
HETATM   17  C8          0      16.771  57.298 -10.250  1.00  0.00     0.112 C 
HETATM   18  C10         0      16.693  57.650 -11.591  1.00  0.00     0.112 C 
HETATM   19  C12         0      15.623  57.172 -12.339  1.00  0.00     0.028 C 
BRANCH  17  20
HETATM   20  O9          0      17.960  57.034  -9.593  1.00  0.00    -0.357 OA
HETATM   21  H9          0      18.417  57.670  -9.054  1.00  0.00     0.218 HD
ENDBRANCH  17  20
BRANCH  18  22
HETATM   22  O11         0      17.854  58.126 -12.184  1.00  0.00    -0.357 OA
HETATM   23  H11         0      18.557  57.500 -12.317  1.00  0.00     0.218 HD
ENDBRANCH  18  22
ENDBRANCH   4  14
BRANCH   8  24
HETATM   24  O17         0      10.422  55.721 -16.982  1.00  0.00    -0.359 OA
HETATM   25  H17         0       9.608  55.437 -17.381  1.00  0.00     0.218 HD
ENDBRANCH   8  24
TORSDOF 5
ENDMDL
MODEL 3
REMARK VINA RESULT:      -4.8      2.027      3.254
REMARK  5 active torsions:
REMARK  status: ('A' for Active; 'I' for Inactive)
REMARK    1  A    between atoms: C4_4  and  C5_5 
REMARK    2  A    between atoms: C8_8  and  O9_9 
REMARK    3  A    between atoms: C10_11  and  O11_12 
REMARK    4  A    between atoms: C16_18  and  O17_19 
REMARK    5  A    between atoms: C19_22  and  O20_23 
ROOT
HETATM    1  O1          0      11.943  52.598 -12.591  1.00  0.00    -0.286 OA
HETATM    2  C2          0      12.400  53.616 -13.180  1.00  0.00     0.201 C 
HETATM    3  C3          0      11.856  54.114 -14.351  1.00  0.00     0.067 C 
HETATM    4  C4          0      12.441  55.175 -15.034  1.00  0.00     0.103 C 
HETATM    5  O13         0      13.532  55.727 -14.533  1.00  0.00    -0.307 OA
HETATM    6  C14         0      14.111  55.269 -13.445  1.00  0.00     0.107 C 
HETATM    7  C15         0      15.433  55.562 -13.141  1.00  0.00     0.049 C 
HETATM    8  C16         0      16.112  54.879 -12.139  1.00  0.00     0.093 C 
HETATM    9  C18         0      15.302  54.321 -11.157  1.00  0.00     0.048 C 
HETATM   10  C19         0      13.963  54.058 -11.412  1.00  0.00     0.096 C 
HETATM   11  C21         0      13.432  54.365 -12.634  1.00  0.00     0.084 C 
ENDROOT
BRANCH  10  12
HETATM   12  O20         0      13.290  53.131 -10.622  1.00  0.00    -0.359 OA
HETATM   13  H20         0      13.617  52.239 -10.606  1.00  0.00     0.218 HD
ENDBRANCH  10  12
BRANCH   4  14
HETATM   14  C5          0      12.212  55.250 -16.478  1.00  0.00     0.025 C 
HETATM   15  C6          0      10.946  55.197 -17.042  1.00  0.00     0.004 C 
HETATM   16  C7          0      10.695  56.014 -18.139  1.00  0.00     0.026 C 
HETATM   17  C8          0      11.704  56.758 -18.741  1.00  0.00     0.112 C 
HETATM   18  C10         0      12.988  56.273 -18.529  1.00  0.00     0.112 C 
HETATM   19  C12         0      13.231  55.530 -17.379  1.00  0.00     0.028 C 
BRANCH  17  20
HETATM   20  O9          0      11.433  57.989 -19.312  1.00  0.00    -0.357 OA
HETATM   21  H9          0      10.595  58.431 -19.241  1.00  0.00     0.218 HD
ENDBRANCH  17  20
BRANCH  18  22
HETATM   22  O11         0      14.011  56.862 -19.257  1.00  0.00    -0.357 OA
HETATM   23  H11         0      14.858  56.431 -19.235  1.00  0.00     0.218 HD
ENDBRANCH  18  22
ENDBRANCH   4  14
BRANCH   8  24
HETATM   24  O17         0      17.450  54.500 -12.293  1.00  0.00    -0.359 OA
HETATM   25  H17         0      18.109  54.724 -11.647  1.00  0.00     0.218 HD
ENDBRANCH   8  24
TORSDOF 5
ENDMDL
MODEL 4
REMARK VINA RESULT:      -4.8      2.043      6.809
REMARK  5 active torsions:
REMARK  status: ('A' for Active; 'I' for Inactive)
REMARK    1  A    between atoms: C4_4  and  C5_5 
REMARK    2  A    between atoms: C8_8  and  O9_9 
REMARK    3  A    between atoms: C10_11  and  O11_12 
REMARK    4  A    between atoms: C16_18  and  O17_19 
REMARK    5  A    between atoms: C19_22  and  O20_23 
ROOT
HETATM    1  O1          0       9.970  53.749 -15.109  1.00  0.00    -0.286 OA
HETATM    2  C2          0      11.160  54.144 -15.251  1.00  0.00     0.201 C 
HETATM    3  C3          0      12.064  54.197 -14.203  1.00  0.00     0.067 C 
HETATM    4  C4          0      13.336  54.733 -14.365  1.00  0.00     0.103 C 
HETATM    5  O13         0      13.689  55.182 -15.557  1.00  0.00    -0.307 OA
HETATM    6  C14         0      12.857  55.190 -16.575  1.00  0.00     0.107 C 
HETATM    7  C15         0      13.065  56.000 -17.682  1.00  0.00     0.049 C 
HETATM    8  C16         0      12.068  56.197 -18.630  1.00  0.00     0.093 C 
HETATM    9  C18         0      11.121  55.182 -18.705  1.00  0.00     0.048 C 
HETATM   10  C19         0      10.921  54.323 -17.633  1.00  0.00     0.096 C 
HETATM   11  C21         0      11.672  54.467 -16.499  1.00  0.00     0.084 C 
ENDROOT
BRANCH  10  12
HETATM   12  O20         0       9.722  53.623 -17.538  1.00  0.00    -0.359 OA
HETATM   13  H20         0       9.443  53.332 -16.678  1.00  0.00     0.218 HD
ENDBRANCH  10  12
BRANCH   4  14
HETATM   14  C5          0      13.979  55.301 -13.179  1.00  0.00     0.025 C 
HETATM   15  C6          0      13.809  54.775 -11.906  1.00  0.00     0.004 C 
HETATM   16  C7          0      14.914  54.759 -11.062  1.00  0.00     0.026 C 
HETATM   17  C8          0      16.114  55.366 -11.419  1.00  0.00     0.112 C 
HETATM   18  C10         0      15.995  56.369 -12.372  1.00  0.00     0.112 C 
HETATM   19  C12         0      14.926  56.314 -13.259  1.00  0.00     0.028 C 
BRANCH  17  20
HETATM   20  O9          0      17.324  54.844 -11.000  1.00  0.00    -0.357 OA
HETATM   21  H9          0      17.579  54.768 -10.088  1.00  0.00     0.218 HD
ENDBRANCH  17  20
BRANCH  18  22
HETATM   22  O11         0      17.125  57.133 -12.625  1.00  0.00    -0.357 OA
HETATM   23  H11         0      17.251  57.433 -13.518  1.00  0.00     0.218 HD
ENDBRANCH  18  22
ENDBRANCH   4  14
BRANCH   8  24
HETATM   24  O17         0      11.848  57.452 -19.207  1.00  0.00    -0.359 OA
HETATM   25  H17         0      12.557  57.960 -19.582  1.00  0.00     0.218 HD
ENDBRANCH   8  24
TORSDOF 5
ENDMDL
MODEL 5
REMARK VINA RESULT:      -4.7      3.677      8.179
REMARK  5 active torsions:
REMARK  status: ('A' for Active; 'I' for Inactive)
REMARK    1  A    between atoms: C4_4  and  C5_5 
REMARK    2  A    between atoms: C8_8  and  O9_9 
REMARK    3  A    between atoms: C10_11  and  O11_12 
REMARK    4  A    between atoms: C16_18  and  O17_19 
REMARK    5  A    between atoms: C19_22  and  O20_23 
ROOT
HETATM    1  O1          0      16.243  56.618 -13.176  1.00  0.00    -0.286 OA
HETATM    2  C2          0      16.113  56.828 -11.938  1.00  0.00     0.201 C 
HETATM    3  C3          0      17.065  57.493 -11.186  1.00  0.00     0.067 C 
HETATM    4  C4          0      16.945  57.621  -9.807  1.00  0.00     0.103 C 
HETATM    5  O13         0      15.882  57.109  -9.212  1.00  0.00    -0.307 OA
HETATM    6  C14         0      14.967  56.436  -9.874  1.00  0.00     0.107 C 
HETATM    7  C15         0      14.088  55.574  -9.235  1.00  0.00     0.049 C 
HETATM    8  C16         0      13.302  54.680  -9.953  1.00  0.00     0.093 C 
HETATM    9  C18         0      13.047  55.049 -11.268  1.00  0.00     0.048 C 
HETATM   10  C19         0      13.880  55.946 -11.924  1.00  0.00     0.096 C 
HETATM   11  C21         0      14.951  56.484 -11.264  1.00  0.00     0.084 C 
ENDROOT
BRANCH  10  12
HETATM   12  O20         0      13.889  55.974 -13.315  1.00  0.00    -0.359 OA
HETATM   13  H20         0      13.945  56.820 -13.743  1.00  0.00     0.218 HD
ENDBRANCH  10  12
BRANCH   4  14
HETATM   14  C5          0      18.182  57.765  -9.037  1.00  0.00     0.025 C 
HETATM   15  C6          0      19.224  58.589  -9.436  1.00  0.00     0.004 C 
HETATM   16  C7          0      19.904  59.293  -8.447  1.00  0.00     0.026 C 
HETATM   17  C8          0      19.648  59.085  -7.096  1.00  0.00     0.112 C 
HETATM   18  C10         0      19.090  57.850  -6.796  1.00  0.00     0.112 C 
HETATM   19  C12         0      18.343  57.206  -7.776  1.00  0.00     0.028 C 
BRANCH  17  20
HETATM   20  O9          0      19.753  60.123  -6.187  1.00  0.00    -0.357 OA
HETATM   21  H9          0      19.504  61.019  -6.378  1.00  0.00     0.218 HD
ENDBRANCH  17  20
BRANCH  18  22
HETATM   22  O11         0      18.989  57.516  -5.453  1.00  0.00    -0.357 OA
HETATM   23  H11         0      18.728  56.625  -5.249  1.00  0.00     0.218 HD
ENDBRANCH  18  22
ENDBRANCH   4  14
BRANCH   8  24
HETATM   24  O17         0      13.080  53.376  -9.499  1.00  0.00    -0.359 OA
HETATM   25  H17         0      12.217  53.078  -9.237  1.00  0.00     0.218 HD
ENDBRANCH   8  24
TORSDOF 5
ENDMDL
MODEL 6
REMARK VINA RESULT:      -4.7      3.054      6.341
REMARK  5 active torsions:
REMARK  status: ('A' for Active; 'I' for Inactive)
REMARK    1  A    between atoms: C4_4  and  C5_5 
REMARK    2  A    between atoms: C8_8  and  O9_9 
REMARK    3  A    between atoms: C10_11  and  O11_12 
REMARK    4  A    between atoms: C16_18  and  O17_19 
REMARK    5  A    between atoms: C19_22  and  O20_23 
ROOT
HETATM    1  O1          0      16.373  57.496 -10.233  1.00  0.00    -0.286 OA
HETATM    2  C2          0      15.205  57.158 -10.569  1.00  0.00     0.201 C 
HETATM    3  C3          0      14.106  57.336  -9.746  1.00  0.00     0.067 C 
HETATM    4  C4          0      12.847  56.862 -10.098  1.00  0.00     0.103 C 
HETATM    5  O13         0      12.703  56.246 -11.258  1.00  0.00    -0.307 OA
HETATM    6  C14         0      13.720  56.017 -12.059  1.00  0.00     0.107 C 
HETATM    7  C15         0      13.665  55.050 -13.052  1.00  0.00     0.049 C 
HETATM    8  C16         0      14.810  54.636 -13.722  1.00  0.00     0.093 C 
HETATM    9  C18         0      15.846  55.563 -13.740  1.00  0.00     0.048 C 
HETATM   10  C19         0      15.906  56.573 -12.789  1.00  0.00     0.096 C 
HETATM   11  C21         0      14.929  56.666 -11.836  1.00  0.00     0.084 C 
ENDROOT
BRANCH  10  12
HETATM   12  O20         0      17.122  57.202 -12.542  1.00  0.00    -0.359 OA
HETATM   13  H20         0      17.866  56.961 -13.080  1.00  0.00     0.218 HD
ENDBRANCH  10  12
BRANCH   4  14
HETATM   14  C5          0      11.924  56.540  -9.008  1.00  0.00     0.025 C 
HETATM   15  C6          0      11.975  57.164  -7.770  1.00  0.00     0.004 C 
HETATM   16  C7          0      10.766  57.454  -7.145  1.00  0.00     0.026 C 
HETATM   17  C8          0       9.553  57.018  -7.666  1.00  0.00     0.112 C 
HETATM   18  C10         0       9.643  55.913  -8.501  1.00  0.00     0.112 C 
HETATM   19  C12         0      10.836  55.694  -9.180  1.00  0.00     0.028 C 
BRANCH  17  20
HETATM   20  O9          0       8.404  57.775  -7.516  1.00  0.00    -0.357 OA
HETATM   21  H9          0       7.931  57.860  -6.696  1.00  0.00     0.218 HD
ENDBRANCH  17  20
BRANCH  18  22
HETATM   22  O11         0       8.451  55.323  -8.895  1.00  0.00    -0.357 OA
HETATM   23  H11         0       7.662  55.845  -8.803  1.00  0.00     0.218 HD
ENDBRANCH  18  22
ENDBRANCH   4  14
BRANCH   8  24
HETATM   24  O17         0      15.021  53.291 -14.045  1.00  0.00    -0.359 OA
HETATM   25  H17         0      15.537  53.034 -14.800  1.00  0.00     0.218 HD
ENDBRANCH   8  24
TORSDOF 5
ENDMDL
MODEL 7
REMARK VINA RESULT:      -4.7      3.606      6.012
REMARK  5 active torsions:
REMARK  status: ('A' for Active; 'I' for Inactive)
REMARK    1  A    between atoms: C4_4  and  C5_5 
REMARK    2  A    between atoms: C8_8  and  O9_9 
REMARK    3  A    between atoms: C10_11  and  O11_12 
REMARK    4  A    between atoms: C16_18  and  O17_19 
REMARK    5  A    between atoms: C19_22  and  O20_23 
ROOT
HETATM    1  O1          0      18.400  58.981  -7.743  1.00  0.00    -0.286 OA
HETATM    2  C2          0      18.012  57.931  -8.326  1.00  0.00     0.201 C 
HETATM    3  C3          0      17.371  57.947  -9.553  1.00  0.00     0.067 C 
HETATM    4  C4          0      16.863  56.787 -10.125  1.00  0.00     0.103 C 
HETATM    5  O13         0      17.019  55.642  -9.484  1.00  0.00    -0.307 OA
HETATM    6  C14         0      17.587  55.576  -8.300  1.00  0.00     0.107 C 
HETATM    7  C15         0      17.402  54.487  -7.460  1.00  0.00     0.049 C 
HETATM    8  C16         0      17.787  54.531  -6.125  1.00  0.00     0.093 C 
HETATM    9  C18         0      18.795  55.443  -5.835  1.00  0.00     0.048 C 
HETATM   10  C19         0      19.038  56.518  -6.679  1.00  0.00     0.096 C 
HETATM   11  C21         0      18.290  56.673  -7.814  1.00  0.00     0.084 C 
ENDROOT
BRANCH  10  12
HETATM   12  O20         0      19.714  57.630  -6.186  1.00  0.00    -0.359 OA
HETATM   13  H20         0      20.611  57.766  -6.467  1.00  0.00     0.218 HD
ENDBRANCH  10  12
BRANCH   4  14
HETATM   14  C5          0      15.731  56.932 -11.043  1.00  0.00     0.025 C 
HETATM   15  C6          0      15.754  56.456 -12.346  1.00  0.00     0.004 C 
HETATM   16  C7          0      14.583  55.896 -12.847  1.00  0.00     0.026 C 
HETATM   17  C8          0      13.393  55.928 -12.129  1.00  0.00     0.112 C 
HETATM   18  C10         0      13.316  56.939 -11.180  1.00  0.00     0.112 C 
HETATM   19  C12         0      14.498  57.422 -10.632  1.00  0.00     0.028 C 
BRANCH  17  20
HETATM   20  O9          0      12.476  54.897 -12.229  1.00  0.00    -0.357 OA
HETATM   21  H9          0      11.694  54.936 -12.767  1.00  0.00     0.218 HD
ENDBRANCH  17  20
BRANCH  18  22
HETATM   22  O11         0      12.085  57.136 -10.570  1.00  0.00    -0.357 OA
HETATM   23  H11         0      12.091  57.550  -9.715  1.00  0.00     0.218 HD
ENDBRANCH  18  22
ENDBRANCH   4  14
BRANCH   8  24
HETATM   24  O17         0      16.998  53.962  -5.120  1.00  0.00    -0.359 OA
HETATM   25  H17         0      17.164  53.087  -4.791  1.00  0.00     0.218 HD
ENDBRANCH   8  24
TORSDOF 5
ENDMDL
MODEL 8
REMARK VINA RESULT:      -4.4      3.955      6.462
REMARK  5 active torsions:
REMARK  status: ('A' for Active; 'I' for Inactive)
REMARK    1  A    between atoms: C4_4  and  C5_5 
REMARK    2  A    between atoms: C8_8  and  O9_9 
REMARK    3  A    between atoms: C10_11  and  O11_12 
REMARK    4  A    between atoms: C16_18  and  O17_19 
REMARK    5  A    between atoms: C19_22  and  O20_23 
ROOT
HETATM    1  O1          0       9.540  55.191  -9.345  1.00  0.00    -0.286 OA
HETATM    2  C2          0      10.582  55.884  -9.183  1.00  0.00     0.201 C 
HETATM    3  C3          0      11.610  55.923 -10.110  1.00  0.00     0.067 C 
HETATM    4  C4          0      12.790  56.613  -9.860  1.00  0.00     0.103 C 
HETATM    5  O13         0      12.917  57.261  -8.715  1.00  0.00    -0.307 OA
HETATM    6  C14         0      11.987  57.226  -7.786  1.00  0.00     0.107 C 
HETATM    7  C15         0      12.262  57.550  -6.465  1.00  0.00     0.049 C 
HETATM    8  C16         0      11.355  57.269  -5.450  1.00  0.00     0.093 C 
HETATM    9  C18         0      10.030  57.168  -5.857  1.00  0.00     0.048 C 
HETATM   10  C19         0       9.719  56.892  -7.182  1.00  0.00     0.096 C 
HETATM   11  C21         0      10.724  56.734  -8.097  1.00  0.00     0.084 C 
ENDROOT
BRANCH  10  12
HETATM   12  O20         0       8.467  56.369  -7.492  1.00  0.00    -0.359 OA
HETATM   13  H20         0       7.706  56.766  -7.085  1.00  0.00     0.218 HD
ENDBRANCH  10  12
BRANCH   4  14
HETATM   14  C5          0      13.998  56.142 -10.540  1.00  0.00     0.025 C 
HETATM   15  C6          0      14.048  55.904 -11.906  1.00  0.00     0.004 C 
HETATM   16  C7          0      15.215  56.251 -12.578  1.00  0.00     0.026 C 
HETATM   17  C8          0      16.344  56.695 -11.899  1.00  0.00     0.112 C 
HETATM   18  C10         0      16.412  56.301 -10.569  1.00  0.00     0.112 C 
HETATM   19  C12         0      15.225  56.042  -9.895  1.00  0.00     0.028 C 
BRANCH  17  20
HETATM   20  O9          0      17.196  57.624 -12.470  1.00  0.00    -0.357 OA
HETATM   21  H9          0      17.830  57.413 -13.145  1.00  0.00     0.218 HD
ENDBRANCH  17  20
BRANCH  18  22
HETATM   22  O11         0      17.601  56.554  -9.899  1.00  0.00    -0.357 OA
HETATM   23  H11         0      17.983  55.831  -9.414  1.00  0.00     0.218 HD
ENDBRANCH  18  22
ENDBRANCH   4  14
BRANCH   8  24
HETATM   24  O17         0      11.779  56.797  -4.203  1.00  0.00    -0.359 OA
HETATM   25  H17         0      12.135  55.923  -4.095  1.00  0.00     0.218 HD
ENDBRANCH   8  24
TORSDOF 5
ENDMDL
MODEL 9
REMARK VINA RESULT:      -4.4      3.928      8.631
REMARK  5 active torsions:
REMARK  status: ('A' for Active; 'I' for Inactive)
REMARK    1  A    between atoms: C4_4  and  C5_5 
REMARK    2  A    between atoms: C8_8  and  O9_9 
REMARK    3  A    between atoms: C10_11  and  O11_12 
REMARK    4  A    between atoms: C16_18  and  O17_19 
REMARK    5  A    between atoms: C19_22  and  O20_23 
ROOT
HETATM    1  O1          0      16.560  53.557  -9.735  1.00  0.00    -0.286 OA
HETATM    2  C2          0      16.608  54.817  -9.763  1.00  0.00     0.201 C 
HETATM    3  C3          0      17.569  55.546  -9.084  1.00  0.00     0.067 C 
HETATM    4  C4          0      17.539  56.936  -9.048  1.00  0.00     0.103 C 
HETATM    5  O13         0      16.577  57.567  -9.698  1.00  0.00    -0.307 OA
HETATM    6  C14         0      15.619  56.922 -10.327  1.00  0.00     0.107 C 
HETATM    7  C15         0      14.419  57.535 -10.658  1.00  0.00     0.049 C 
HETATM    8  C16         0      13.324  56.795 -11.086  1.00  0.00     0.093 C 
HETATM    9  C18         0      13.633  55.568 -11.659  1.00  0.00     0.048 C 
HETATM   10  C19         0      14.845  54.947 -11.387  1.00  0.00     0.096 C 
HETATM   11  C21         0      15.749  55.557 -10.561  1.00  0.00     0.084 C 
ENDROOT
BRANCH  10  12
HETATM   12  O20         0      14.968  53.576 -11.590  1.00  0.00    -0.359 OA
HETATM   13  H20         0      14.698  53.225 -12.430  1.00  0.00     0.218 HD
ENDBRANCH  10  12
BRANCH   4  14
HETATM   14  C5          0      18.154  57.590  -7.892  1.00  0.00     0.025 C 
HETATM   15  C6          0      17.984  58.938  -7.612  1.00  0.00     0.004 C 
HETATM   16  C7          0      17.852  59.307  -6.277  1.00  0.00     0.026 C 
HETATM   17  C8          0      18.017  58.388  -5.246  1.00  0.00     0.112 C 
HETATM   18  C10         0      18.783  57.278  -5.576  1.00  0.00     0.112 C 
HETATM   19  C12         0      18.829  56.880  -6.907  1.00  0.00     0.028 C 
BRANCH  17  20
HETATM   20  O9          0      17.290  58.498  -4.074  1.00  0.00    -0.357 OA
HETATM   21  H9          0      17.135  59.321  -3.624  1.00  0.00     0.218 HD
ENDBRANCH  17  20
BRANCH  18  22
HETATM   22  O11         0      19.136  56.427  -4.539  1.00  0.00    -0.357 OA
HETATM   23  H11         0      18.631  55.627  -4.447  1.00  0.00     0.218 HD
ENDBRANCH  18  22
ENDBRANCH   4  14
BRANCH   8  24
HETATM   24  O17         0      12.025  57.106 -10.668  1.00  0.00    -0.359 OA
HETATM   25  H17         0      11.420  57.579 -11.228  1.00  0.00     0.218 HD
ENDBRANCH   8  24
TORSDOF 5
ENDMDL
