MODEL 1
REMARK VINA RESULT:      -6.9      0.000      0.000
REMARK  5 active torsions:
REMARK  status: ('A' for Active; 'I' for Inactive)
REMARK    1  A    between atoms: C4_4  and  C5_5 
REMARK    2  A    between atoms: C8_8  and  O9_9 
REMARK    3  A    between atoms: C10_11  and  O11_12 
REMARK    4  A    between atoms: C16_18  and  O17_19 
REMARK    5  A    between atoms: C19_22  and  O20_23 
ROOT
HETATM    1  O1          0      65.569  22.160  -2.283  1.00  0.00    -0.286 OA
HETATM    2  C2          0      65.434  23.387  -2.547  1.00  0.00     0.201 C 
HETATM    3  C3          0      66.456  24.157  -3.076  1.00  0.00     0.067 C 
HETATM    4  C4          0      66.314  25.528  -3.261  1.00  0.00     0.103 C 
HETATM    5  O13         0      65.165  26.096  -2.939  1.00  0.00    -0.307 OA
HETATM    6  C14         0      64.177  25.418  -2.398  1.00  0.00     0.107 C 
HETATM    7  C15         0      63.153  26.046  -1.703  1.00  0.00     0.049 C 
HETATM    8  C16         0      62.260  25.321  -0.923  1.00  0.00     0.093 C 
HETATM    9  C18         0      62.107  23.989  -1.290  1.00  0.00     0.048 C 
HETATM   10  C19         0      63.091  23.343  -2.026  1.00  0.00     0.096 C 
HETATM   11  C21         0      64.213  24.027  -2.409  1.00  0.00     0.084 C 
ENDROOT
BRANCH  10  12
HETATM   12  O20         0      63.148  21.953  -2.013  1.00  0.00    -0.359 OA
HETATM   13  H20         0      63.193  21.517  -1.170  1.00  0.00     0.218 HD
ENDBRANCH  10  12
BRANCH   4  14
HETATM   14  C5          0      67.533  26.338  -3.231  1.00  0.00     0.025 C 
HETATM   15  C6          0      67.523  27.705  -2.995  1.00  0.00     0.004 C 
HETATM   16  C7          0      68.551  28.233  -2.220  1.00  0.00     0.026 C 
HETATM   17  C8          0      69.626  27.454  -1.806  1.00  0.00     0.112 C 
HETATM   18  C10         0      69.866  26.334  -2.590  1.00  0.00     0.112 C 
HETATM   19  C12         0      68.802  25.775  -3.288  1.00  0.00     0.028 C 
BRANCH  17  20
HETATM   20  O9          0      70.244  27.688  -0.591  1.00  0.00    -0.357 OA
HETATM   21  H9          0      70.295  27.046   0.108  1.00  0.00     0.218 HD
ENDBRANCH  17  20
BRANCH  18  22
HETATM   22  O11         0      71.034  25.629  -2.337  1.00  0.00    -0.357 OA
HETATM   23  H11         0      71.442  25.192  -3.077  1.00  0.00     0.218 HD
ENDBRANCH  18  22
ENDBRANCH   4  14
BRANCH   8  24
HETATM   24  O17         0      61.821  25.797   0.317  1.00  0.00    -0.359 OA
HETATM   25  H17         0      62.356  26.377   0.846  1.00  0.00     0.218 HD
ENDBRANCH   8  24
TORSDOF 5
ENDMDL
MODEL 2
REMARK VINA RESULT:      -6.4      3.526      6.980
REMARK  5 active torsions:
REMARK  status: ('A' for Active; 'I' for Inactive)
REMARK    1  A    between atoms: C4_4  and  C5_5 
REMARK    2  A    between atoms: C8_8  and  O9_9 
REMARK    3  A    between atoms: C10_11  and  O11_12 
REMARK    4  A    between atoms: C16_18  and  O17_19 
REMARK    5  A    between atoms: C19_22  and  O20_23 
ROOT
HETATM    1  O1          0      65.723  23.881  -5.585  1.00  0.00    -0.286 OA
HETATM    2  C2          0      65.334  23.177  -4.613  1.00  0.00     0.201 C 
HETATM    3  C3          0      64.016  23.143  -4.191  1.00  0.00     0.067 C 
HETATM    4  C4          0      63.632  22.440  -3.055  1.00  0.00     0.103 C 
HETATM    5  O13         0      64.552  21.774  -2.380  1.00  0.00    -0.307 OA
HETATM    6  C14         0      65.823  21.804  -2.715  1.00  0.00     0.107 C 
HETATM    7  C15         0      66.824  21.460  -1.818  1.00  0.00     0.049 C 
HETATM    8  C16         0      68.160  21.733  -2.087  1.00  0.00     0.093 C 
HETATM    9  C18         0      68.475  21.851  -3.435  1.00  0.00     0.048 C 
HETATM   10  C19         0      67.489  22.149  -4.366  1.00  0.00     0.096 C 
HETATM   11  C21         0      66.194  22.311  -3.956  1.00  0.00     0.084 C 
ENDROOT
BRANCH  10  12
HETATM   12  O20         0      67.856  22.686  -5.597  1.00  0.00    -0.359 OA
HETATM   13  H20         0      68.717  23.077  -5.673  1.00  0.00     0.218 HD
ENDBRANCH  10  12
BRANCH   4  14
HETATM   14  C5          0      62.440  22.910  -2.347  1.00  0.00     0.025 C 
HETATM   15  C6          0      61.177  22.382  -2.567  1.00  0.00     0.004 C 
HETATM   16  C7          0      60.341  22.228  -1.466  1.00  0.00     0.026 C 
HETATM   17  C8          0      60.695  22.706  -0.209  1.00  0.00     0.112 C 
HETATM   18  C10         0      61.628  23.734  -0.222  1.00  0.00     0.112 C 
HETATM   19  C12         0      62.508  23.814  -1.295  1.00  0.00     0.028 C 
BRANCH  17  20
HETATM   20  O9          0      60.295  22.046   0.939  1.00  0.00    -0.357 OA
HETATM   21  H9          0      60.450  21.122   1.098  1.00  0.00     0.218 HD
ENDBRANCH  17  20
BRANCH  18  22
HETATM   22  O11         0      61.875  24.373   0.985  1.00  0.00    -0.357 OA
HETATM   23  H11         0      61.418  25.192   1.139  1.00  0.00     0.218 HD
ENDBRANCH  18  22
ENDBRANCH   4  14
BRANCH   8  24
HETATM   24  O17         0      69.028  22.185  -1.086  1.00  0.00    -0.359 OA
HETATM   25  H17         0      69.705  22.825  -1.265  1.00  0.00     0.218 HD
ENDBRANCH   8  24
TORSDOF 5
ENDMDL
MODEL 3
REMARK VINA RESULT:      -6.2      1.631      2.127
REMARK  5 active torsions:
REMARK  status: ('A' for Active; 'I' for Inactive)
REMARK    1  A    between atoms: C4_4  and  C5_5 
REMARK    2  A    between atoms: C8_8  and  O9_9 
REMARK    3  A    between atoms: C10_11  and  O11_12 
REMARK    4  A    between atoms: C16_18  and  O17_19 
REMARK    5  A    between atoms: C19_22  and  O20_23 
ROOT
HETATM    1  O1          0      65.635  22.159  -2.320  1.00  0.00    -0.286 OA
HETATM    2  C2          0      65.459  23.383  -2.573  1.00  0.00     0.201 C 
HETATM    3  C3          0      66.446  24.184  -3.122  1.00  0.00     0.067 C 
HETATM    4  C4          0      66.261  25.552  -3.295  1.00  0.00     0.103 C 
HETATM    5  O13         0      65.105  26.086  -2.941  1.00  0.00    -0.307 OA
HETATM    6  C14         0      64.150  25.377  -2.381  1.00  0.00     0.107 C 
HETATM    7  C15         0      63.127  25.972  -1.657  1.00  0.00     0.049 C 
HETATM    8  C16         0      62.273  25.218  -0.860  1.00  0.00     0.093 C 
HETATM    9  C18         0      62.149  23.885  -1.231  1.00  0.00     0.048 C 
HETATM   10  C19         0      63.132  23.270  -1.995  1.00  0.00     0.096 C 
HETATM   11  C21         0      64.224  23.988  -2.401  1.00  0.00     0.084 C 
ENDROOT
BRANCH  10  12
HETATM   12  O20         0      63.228  21.882  -1.992  1.00  0.00    -0.359 OA
HETATM   13  H20         0      64.094  21.496  -1.941  1.00  0.00     0.218 HD
ENDBRANCH  10  12
BRANCH   4  14
HETATM   14  C5          0      67.458  26.395  -3.290  1.00  0.00     0.025 C 
HETATM   15  C6          0      68.699  25.940  -3.709  1.00  0.00     0.004 C 
HETATM   16  C7          0      69.502  26.825  -4.423  1.00  0.00     0.026 C 
HETATM   17  C8          0      69.143  28.157  -4.598  1.00  0.00     0.112 C 
HETATM   18  C10         0      68.261  28.649  -3.646  1.00  0.00     0.112 C 
HETATM   19  C12         0      67.409  27.754  -3.009  1.00  0.00     0.028 C 
BRANCH  17  20
HETATM   20  O9          0      69.487  28.837  -5.753  1.00  0.00    -0.357 OA
HETATM   21  H9          0      70.380  29.061  -5.988  1.00  0.00     0.218 HD
ENDBRANCH  17  20
BRANCH  18  22
HETATM   22  O11         0      68.017  30.015  -3.662  1.00  0.00    -0.357 OA
HETATM   23  H11         0      68.341  30.501  -4.412  1.00  0.00     0.218 HD
ENDBRANCH  18  22
ENDBRANCH   4  14
BRANCH   8  24
HETATM   24  O17         0      61.852  25.675   0.394  1.00  0.00    -0.359 OA
HETATM   25  H17         0      61.637  25.075   1.098  1.00  0.00     0.218 HD
ENDBRANCH   8  24
TORSDOF 5
ENDMDL
MODEL 4
REMARK VINA RESULT:      -5.9      2.334      6.601
REMARK  5 active torsions:
REMARK  status: ('A' for Active; 'I' for Inactive)
REMARK    1  A    between atoms: C4_4  and  C5_5 
REMARK    2  A    between atoms: C8_8  and  O9_9 
REMARK    3  A    between atoms: C10_11  and  O11_12 
REMARK    4  A    between atoms: C16_18  and  O17_19 
REMARK    5  A    between atoms: C19_22  and  O20_23 
ROOT
HETATM    1  O1          0      66.032  22.149  -5.356  1.00  0.00    -0.286 OA
HETATM    2  C2          0      65.804  22.898  -4.366  1.00  0.00     0.201 C 
HETATM    3  C3          0      64.737  22.701  -3.506  1.00  0.00     0.067 C 
HETATM    4  C4          0      64.449  23.600  -2.485  1.00  0.00     0.103 C 
HETATM    5  O13         0      65.231  24.653  -2.328  1.00  0.00    -0.307 OA
HETATM    6  C14         0      66.235  24.907  -3.139  1.00  0.00     0.107 C 
HETATM    7  C15         0      66.795  26.172  -3.235  1.00  0.00     0.049 C 
HETATM    8  C16         0      67.672  26.497  -4.263  1.00  0.00     0.093 C 
HETATM    9  C18         0      68.344  25.418  -4.824  1.00  0.00     0.048 C 
HETATM   10  C19         0      67.836  24.132  -4.706  1.00  0.00     0.096 C 
HETATM   11  C21         0      66.672  23.922  -4.018  1.00  0.00     0.084 C 
ENDROOT
BRANCH  10  12
HETATM   12  O20         0      68.248  23.152  -5.605  1.00  0.00    -0.359 OA
HETATM   13  H20         0      69.126  22.804  -5.511  1.00  0.00     0.218 HD
ENDBRANCH  10  12
BRANCH   4  14
HETATM   14  C5          0      63.057  23.682  -2.038  1.00  0.00     0.025 C 
HETATM   15  C6          0      62.046  22.901  -2.579  1.00  0.00     0.004 C 
HETATM   16  C7          0      61.072  22.417  -1.713  1.00  0.00     0.026 C 
HETATM   17  C8          0      61.026  22.803  -0.377  1.00  0.00     0.112 C 
HETATM   18  C10         0      61.643  24.016  -0.103  1.00  0.00     0.112 C 
HETATM   19  C12         0      62.673  24.437  -0.937  1.00  0.00     0.028 C 
BRANCH  17  20
HETATM   20  O9          0      60.585  21.928   0.599  1.00  0.00    -0.357 OA
HETATM   21  H9          0      59.982  21.212   0.433  1.00  0.00     0.218 HD
ENDBRANCH  17  20
BRANCH  18  22
HETATM   22  O11         0      61.465  24.539   1.170  1.00  0.00    -0.357 OA
HETATM   23  H11         0      60.875  24.070   1.748  1.00  0.00     0.218 HD
ENDBRANCH  18  22
ENDBRANCH   4  14
BRANCH   8  24
HETATM   24  O17         0      67.623  27.743  -4.897  1.00  0.00    -0.359 OA
HETATM   25  H17         0      66.831  28.059  -5.317  1.00  0.00     0.218 HD
ENDBRANCH   8  24
TORSDOF 5
ENDMDL
MODEL 5
REMARK VINA RESULT:      -5.6      1.943      2.720
REMARK  5 active torsions:
REMARK  status: ('A' for Active; 'I' for Inactive)
REMARK    1  A    between atoms: C4_4  and  C5_5 
REMARK    2  A    between atoms: C8_8  and  O9_9 
REMARK    3  A    between atoms: C10_11  and  O11_12 
REMARK    4  A    between atoms: C16_18  and  O17_19 
REMARK    5  A    between atoms: C19_22  and  O20_23 
ROOT
HETATM    1  O1          0      67.958  22.929  -3.345  1.00  0.00    -0.286 OA
HETATM    2  C2          0      67.335  24.026  -3.356  1.00  0.00     0.201 C 
HETATM    3  C3          0      67.973  25.250  -3.467  1.00  0.00     0.067 C 
HETATM    4  C4          0      67.273  26.447  -3.374  1.00  0.00     0.103 C 
HETATM    5  O13         0      65.964  26.405  -3.196  1.00  0.00    -0.307 OA
HETATM    6  C14         0      65.315  25.271  -3.048  1.00  0.00     0.107 C 
HETATM    7  C15         0      64.053  25.221  -2.475  1.00  0.00     0.049 C 
HETATM    8  C16         0      63.482  24.014  -2.089  1.00  0.00     0.093 C 
HETATM    9  C18         0      63.962  22.897  -2.762  1.00  0.00     0.048 C 
HETATM   10  C19         0      65.201  22.927  -3.387  1.00  0.00     0.096 C 
HETATM   11  C21         0      65.950  24.072  -3.354  1.00  0.00     0.084 C 
ENDROOT
BRANCH  10  12
HETATM   12  O20         0      65.852  21.730  -3.665  1.00  0.00    -0.359 OA
HETATM   13  H20         0      65.392  21.084  -4.189  1.00  0.00     0.218 HD
ENDBRANCH  10  12
BRANCH   4  14
HETATM   14  C5          0      68.011  27.620  -2.901  1.00  0.00     0.025 C 
HETATM   15  C6          0      69.135  27.525  -2.093  1.00  0.00     0.004 C 
HETATM   16  C7          0      70.175  28.418  -2.328  1.00  0.00     0.026 C 
HETATM   17  C8          0      70.051  29.457  -3.245  1.00  0.00     0.112 C 
HETATM   18  C10         0      68.744  29.843  -3.510  1.00  0.00     0.112 C 
HETATM   19  C12         0      67.732  28.905  -3.348  1.00  0.00     0.028 C 
BRANCH  17  20
HETATM   20  O9          0      71.145  29.896  -3.970  1.00  0.00    -0.357 OA
HETATM   21  H9          0      71.644  29.343  -4.559  1.00  0.00     0.218 HD
ENDBRANCH  17  20
BRANCH  18  22
HETATM   22  O11         0      68.570  30.993  -4.268  1.00  0.00    -0.357 OA
HETATM   23  H11         0      68.854  31.812  -3.878  1.00  0.00     0.218 HD
ENDBRANCH  18  22
ENDBRANCH   4  14
BRANCH   8  24
HETATM   24  O17         0      62.750  23.900  -0.902  1.00  0.00    -0.359 OA
HETATM   25  H17         0      62.119  23.202  -0.770  1.00  0.00     0.218 HD
ENDBRANCH   8  24
TORSDOF 5
ENDMDL
MODEL 6
REMARK VINA RESULT:      -5.3      2.394      4.059
REMARK  5 active torsions:
REMARK  status: ('A' for Active; 'I' for Inactive)
REMARK    1  A    between atoms: C4_4  and  C5_5 
REMARK    2  A    between atoms: C8_8  and  O9_9 
REMARK    3  A    between atoms: C10_11  and  O11_12 
REMARK    4  A    between atoms: C16_18  and  O17_19 
REMARK    5  A    between atoms: C19_22  and  O20_23 
ROOT
HETATM    1  O1          0      62.337  24.992  -1.033  1.00  0.00    -0.286 OA
HETATM    2  C2          0      63.036  24.213  -1.737  1.00  0.00     0.201 C 
HETATM    3  C3          0      64.415  24.311  -1.821  1.00  0.00     0.067 C 
HETATM    4  C4          0      65.151  23.508  -2.684  1.00  0.00     0.103 C 
HETATM    5  O13         0      64.513  22.618  -3.423  1.00  0.00    -0.307 OA
HETATM    6  C14         0      63.202  22.509  -3.410  1.00  0.00     0.107 C 
HETATM    7  C15         0      62.510  21.888  -4.439  1.00  0.00     0.049 C 
HETATM    8  C16         0      61.129  21.998  -4.550  1.00  0.00     0.093 C 
HETATM    9  C18         0      60.465  22.272  -3.360  1.00  0.00     0.048 C 
HETATM   10  C19         0      61.139  22.851  -2.293  1.00  0.00     0.096 C 
HETATM   11  C21         0      62.472  23.139  -2.408  1.00  0.00     0.084 C 
ENDROOT
BRANCH  10  12
HETATM   12  O20         0      60.412  23.509  -1.306  1.00  0.00    -0.359 OA
HETATM   13  H20         0      60.761  23.511  -0.423  1.00  0.00     0.218 HD
ENDBRANCH  10  12
BRANCH   4  14
HETATM   14  C5          0      66.429  24.036  -3.164  1.00  0.00     0.025 C 
HETATM   15  C6          0      67.411  23.234  -3.728  1.00  0.00     0.004 C 
HETATM   16  C7          0      68.126  23.751  -4.804  1.00  0.00     0.026 C 
HETATM   17  C8          0      67.967  25.068  -5.220  1.00  0.00     0.112 C 
HETATM   18  C10         0      67.478  25.929  -4.246  1.00  0.00     0.112 C 
HETATM   19  C12         0      66.695  25.398  -3.229  1.00  0.00     0.028 C 
BRANCH  17  20
HETATM   20  O9          0      68.090  25.409  -6.555  1.00  0.00    -0.357 OA
HETATM   21  H9          0      68.923  25.562  -6.986  1.00  0.00     0.218 HD
ENDBRANCH  17  20
BRANCH  18  22
HETATM   22  O11         0      67.479  27.283  -4.548  1.00  0.00    -0.357 OA
HETATM   23  H11         0      68.058  27.837  -4.037  1.00  0.00     0.218 HD
ENDBRANCH  18  22
ENDBRANCH   4  14
BRANCH   8  24
HETATM   24  O17         0      60.508  22.158  -5.793  1.00  0.00    -0.359 OA
HETATM   25  H17         0      60.857  22.744  -6.454  1.00  0.00     0.218 HD
ENDBRANCH   8  24
TORSDOF 5
ENDMDL
MODEL 7
REMARK VINA RESULT:      -5.1      3.527      6.597
REMARK  5 active torsions:
REMARK  status: ('A' for Active; 'I' for Inactive)
REMARK    1  A    between atoms: C4_4  and  C5_5 
REMARK    2  A    between atoms: C8_8  and  O9_9 
REMARK    3  A    between atoms: C10_11  and  O11_12 
REMARK    4  A    between atoms: C16_18  and  O17_19 
REMARK    5  A    between atoms: C19_22  and  O20_23 
ROOT
HETATM    1  O1          0      67.000  20.625  -2.545  1.00  0.00    -0.286 OA
HETATM    2  C2          0      66.658  21.683  -3.141  1.00  0.00     0.201 C 
HETATM    3  C3          0      65.828  22.632  -2.568  1.00  0.00     0.067 C 
HETATM    4  C4          0      65.384  23.738  -3.282  1.00  0.00     0.103 C 
HETATM    5  O13         0      65.785  23.889  -4.532  1.00  0.00    -0.307 OA
HETATM    6  C14         0      66.542  22.999  -5.136  1.00  0.00     0.107 C 
HETATM    7  C15         0      66.634  22.936  -6.519  1.00  0.00     0.049 C 
HETATM    8  C16         0      67.223  21.849  -7.154  1.00  0.00     0.093 C 
HETATM    9  C18         0      68.142  21.147  -6.384  1.00  0.00     0.048 C 
HETATM   10  C19         0      68.108  21.225  -4.999  1.00  0.00     0.096 C 
HETATM   11  C21         0      67.171  22.012  -4.386  1.00  0.00     0.084 C 
ENDROOT
BRANCH  10  12
HETATM   12  O20         0      68.710  20.221  -4.246  1.00  0.00    -0.359 OA
HETATM   13  H20         0      68.200  19.817  -3.554  1.00  0.00     0.218 HD
ENDBRANCH  10  12
BRANCH   4  14
HETATM   14  C5          0      64.109  24.331  -2.875  1.00  0.00     0.025 C 
HETATM   15  C6          0      62.988  24.341  -3.693  1.00  0.00     0.004 C 
HETATM   16  C7          0      61.750  24.138  -3.092  1.00  0.00     0.026 C 
HETATM   17  C8          0      61.613  24.062  -1.710  1.00  0.00     0.112 C 
HETATM   18  C10         0      62.629  24.679  -0.993  1.00  0.00     0.112 C 
HETATM   19  C12         0      63.881  24.793  -1.585  1.00  0.00     0.028 C 
BRANCH  17  20
HETATM   20  O9          0      60.651  23.250  -1.137  1.00  0.00    -0.357 OA
HETATM   21  H9          0      60.850  22.452  -0.659  1.00  0.00     0.218 HD
ENDBRANCH  17  20
BRANCH  18  22
HETATM   22  O11         0      62.447  24.799   0.378  1.00  0.00    -0.357 OA
HETATM   23  H11         0      63.230  24.872   0.911  1.00  0.00     0.218 HD
ENDBRANCH  18  22
ENDBRANCH   4  14
BRANCH   8  24
HETATM   24  O17         0      66.686  21.313  -8.330  1.00  0.00    -0.359 OA
HETATM   25  H17         0      67.219  20.817  -8.941  1.00  0.00     0.218 HD
ENDBRANCH   8  24
TORSDOF 5
ENDMDL
MODEL 8
REMARK VINA RESULT:      -5.0      9.517     12.099
REMARK  5 active torsions:
REMARK  status: ('A' for Active; 'I' for Inactive)
REMARK    1  A    between atoms: C4_4  and  C5_5 
REMARK    2  A    between atoms: C8_8  and  O9_9 
REMARK    3  A    between atoms: C10_11  and  O11_12 
REMARK    4  A    between atoms: C16_18  and  O17_19 
REMARK    5  A    between atoms: C19_22  and  O20_23 
ROOT
HETATM    1  O1          0      71.123  26.860   9.368  1.00  0.00    -0.286 OA
HETATM    2  C2          0      71.794  27.297   8.393  1.00  0.00     0.201 C 
HETATM    3  C3          0      72.540  28.462   8.458  1.00  0.00     0.067 C 
HETATM    4  C4          0      73.187  28.975   7.340  1.00  0.00     0.103 C 
HETATM    5  O13         0      73.099  28.317   6.197  1.00  0.00    -0.307 OA
HETATM    6  C14         0      72.374  27.227   6.073  1.00  0.00     0.107 C 
HETATM    7  C15         0      71.954  26.766   4.833  1.00  0.00     0.049 C 
HETATM    8  C16         0      70.988  25.774   4.721  1.00  0.00     0.093 C 
HETATM    9  C18         0      70.876  24.937   5.825  1.00  0.00     0.048 C 
HETATM   10  C19         0      71.329  25.348   7.071  1.00  0.00     0.096 C 
HETATM   11  C21         0      71.905  26.581   7.211  1.00  0.00     0.084 C 
ENDROOT
BRANCH  10  12
HETATM   12  O20         0      70.837  24.724   8.213  1.00  0.00    -0.359 OA
HETATM   13  H20         0      71.394  24.701   8.983  1.00  0.00     0.218 HD
ENDBRANCH  10  12
BRANCH   4  14
HETATM   14  C5          0      73.418  30.421   7.304  1.00  0.00     0.025 C 
HETATM   15  C6          0      73.829  31.144   8.415  1.00  0.00     0.004 C 
HETATM   16  C7          0      74.744  32.171   8.212  1.00  0.00     0.026 C 
HETATM   17  C8          0      75.137  32.557   6.935  1.00  0.00     0.112 C 
HETATM   18  C10         0      74.235  32.236   5.929  1.00  0.00     0.112 C 
HETATM   19  C12         0      73.389  31.151   6.123  1.00  0.00     0.028 C 
BRANCH  17  20
HETATM   20  O9          0      76.418  33.024   6.698  1.00  0.00    -0.357 OA
HETATM   21  H9          0      76.884  32.894   5.880  1.00  0.00     0.218 HD
ENDBRANCH  17  20
BRANCH  18  22
HETATM   22  O11         0      74.485  32.761   4.669  1.00  0.00    -0.357 OA
HETATM   23  H11         0      74.721  32.145   3.986  1.00  0.00     0.218 HD
ENDBRANCH  18  22
ENDBRANCH   4  14
BRANCH   8  24
HETATM   24  O17         0      69.994  25.831   3.738  1.00  0.00    -0.359 OA
HETATM   25  H17         0      69.283  26.459   3.782  1.00  0.00     0.218 HD
ENDBRANCH   8  24
TORSDOF 5
ENDMDL
MODEL 9
REMARK VINA RESULT:      -5.0      2.217      6.544
REMARK  5 active torsions:
REMARK  status: ('A' for Active; 'I' for Inactive)
REMARK    1  A    between atoms: C4_4  and  C5_5 
REMARK    2  A    between atoms: C8_8  and  O9_9 
REMARK    3  A    between atoms: C10_11  and  O11_12 
REMARK    4  A    between atoms: C16_18  and  O17_19 
REMARK    5  A    between atoms: C19_22  and  O20_23 
ROOT
HETATM    1  O1          0      68.319  23.987  -5.357  1.00  0.00    -0.286 OA
HETATM    2  C2          0      67.768  24.820  -4.587  1.00  0.00     0.201 C 
HETATM    3  C3          0      66.630  24.526  -3.855  1.00  0.00     0.067 C 
HETATM    4  C4          0      65.984  25.494  -3.093  1.00  0.00     0.103 C 
HETATM    5  O13         0      66.488  26.715  -3.058  1.00  0.00    -0.307 OA
HETATM    6  C14         0      67.544  27.056  -3.763  1.00  0.00     0.107 C 
HETATM    7  C15         0      67.835  28.382  -4.048  1.00  0.00     0.049 C 
HETATM    8  C16         0      68.793  28.723  -4.996  1.00  0.00     0.093 C 
HETATM    9  C18         0      69.764  27.756  -5.222  1.00  0.00     0.048 C 
HETATM   10  C19         0      69.524  26.426  -4.905  1.00  0.00     0.096 C 
HETATM   11  C21         0      68.326  26.067  -4.350  1.00  0.00     0.084 C 
ENDROOT
BRANCH  10  12
HETATM   12  O20         0      70.284  25.433  -5.515  1.00  0.00    -0.359 OA
HETATM   13  H20         0      69.969  25.071  -6.334  1.00  0.00     0.218 HD
ENDBRANCH  10  12
BRANCH   4  14
HETATM   14  C5          0      64.549  25.316  -2.862  1.00  0.00     0.025 C 
HETATM   15  C6          0      63.825  24.265  -3.405  1.00  0.00     0.004 C 
HETATM   16  C7          0      62.836  23.688  -2.615  1.00  0.00     0.026 C 
HETATM   17  C8          0      62.486  24.221  -1.379  1.00  0.00     0.112 C 
HETATM   18  C10         0      62.789  25.567  -1.222  1.00  0.00     0.112 C 
HETATM   19  C12         0      63.838  26.099  -1.962  1.00  0.00     0.028 C 
BRANCH  17  20
HETATM   20  O9          0      62.071  23.401  -0.345  1.00  0.00    -0.357 OA
HETATM   21  H9          0      62.420  22.531  -0.189  1.00  0.00     0.218 HD
ENDBRANCH  17  20
BRANCH  18  22
HETATM   22  O11         0      62.293  26.194  -0.087  1.00  0.00    -0.357 OA
HETATM   23  H11         0      62.576  27.088   0.068  1.00  0.00     0.218 HD
ENDBRANCH  18  22
ENDBRANCH   4  14
BRANCH   8  24
HETATM   24  O17         0      68.597  29.791  -5.879  1.00  0.00    -0.359 OA
HETATM   25  H17         0      67.974  30.484  -5.694  1.00  0.00     0.218 HD
ENDBRANCH   8  24
TORSDOF 5
ENDMDL
