MODEL 1
REMARK VINA RESULT:      -2.9      0.000      0.000
REMARK  5 active torsions:
REMARK  status: ('A' for Active; 'I' for Inactive)
REMARK    1  A    between atoms: C4_4  and  C5_5 
REMARK    2  A    between atoms: C8_8  and  O9_9 
REMARK    3  A    between atoms: C10_11  and  O11_12 
REMARK    4  A    between atoms: C16_18  and  O17_19 
REMARK    5  A    between atoms: C19_22  and  O20_23 
ROOT
HETATM    1  O1          0      60.214  59.878  28.144  1.00  0.00    -0.286 OA
HETATM    2  C2          0      61.114  60.362  27.404  1.00  0.00     0.201 C 
HETATM    3  C3          0      61.045  60.332  26.021  1.00  0.00     0.067 C 
HETATM    4  C4          0      62.096  60.780  25.229  1.00  0.00     0.103 C 
HETATM    5  O13         0      63.175  61.263  25.820  1.00  0.00    -0.307 OA
HETATM    6  C14         0      63.307  61.280  27.128  1.00  0.00     0.107 C 
HETATM    7  C15         0      64.549  61.400  27.736  1.00  0.00     0.049 C 
HETATM    8  C16         0      64.713  61.163  29.095  1.00  0.00     0.093 C 
HETATM    9  C18         0      63.567  61.334  29.863  1.00  0.00     0.048 C 
HETATM   10  C19         0      62.310  61.267  29.279  1.00  0.00     0.096 C 
HETATM   11  C21         0      62.197  61.047  27.933  1.00  0.00     0.084 C 
ENDROOT
BRANCH  10  12
HETATM   12  O20         0      61.202  61.002  30.078  1.00  0.00    -0.359 OA
HETATM   13  H20         0      60.645  61.732  30.323  1.00  0.00     0.218 HD
ENDBRANCH  10  12
BRANCH   4  14
HETATM   14  C5          0      62.226  60.192  23.895  1.00  0.00     0.025 C 
HETATM   15  C6          0      61.137  59.941  23.074  1.00  0.00     0.004 C 
HETATM   16  C7          0      61.291  60.172  21.710  1.00  0.00     0.026 C 
HETATM   17  C8          0      62.523  60.511  21.162  1.00  0.00     0.112 C 
HETATM   18  C10         0      63.620  60.122  21.918  1.00  0.00     0.112 C 
HETATM   19  C12         0      63.460  59.981  23.292  1.00  0.00     0.028 C 
BRANCH  17  20
HETATM   20  O9          0      62.604  61.352  20.066  1.00  0.00    -0.357 OA
HETATM   21  H9          0      63.424  61.665  19.701  1.00  0.00     0.218 HD
ENDBRANCH  17  20
BRANCH  18  22
HETATM   22  O11         0      64.870  60.265  21.332  1.00  0.00    -0.357 OA
HETATM   23  H11         0      65.117  61.140  21.054  1.00  0.00     0.218 HD
ENDBRANCH  18  22
ENDBRANCH   4  14
BRANCH   8  24
HETATM   24  O17         0      65.834  60.486  29.587  1.00  0.00    -0.359 OA
HETATM   25  H17         0      66.142  60.611  30.477  1.00  0.00     0.218 HD
ENDBRANCH   8  24
TORSDOF 5
ENDMDL
MODEL 2
REMARK VINA RESULT:      -2.8      1.645      6.411
REMARK  5 active torsions:
REMARK  status: ('A' for Active; 'I' for Inactive)
REMARK    1  A    between atoms: C4_4  and  C5_5 
REMARK    2  A    between atoms: C8_8  and  O9_9 
REMARK    3  A    between atoms: C10_11  and  O11_12 
REMARK    4  A    between atoms: C16_18  and  O17_19 
REMARK    5  A    between atoms: C19_22  and  O20_23 
ROOT
HETATM    1  O1          0      59.453  61.566  24.257  1.00  0.00    -0.286 OA
HETATM    2  C2          0      60.407  61.006  24.864  1.00  0.00     0.201 C 
HETATM    3  C3          0      60.488  60.951  26.245  1.00  0.00     0.067 C 
HETATM    4  C4          0      61.599  60.419  26.889  1.00  0.00     0.103 C 
HETATM    5  O13         0      62.588  59.938  26.156  1.00  0.00    -0.307 OA
HETATM    6  C14         0      62.578  59.999  24.843  1.00  0.00     0.107 C 
HETATM    7  C15         0      63.741  59.875  24.096  1.00  0.00     0.049 C 
HETATM    8  C16         0      63.767  60.191  22.743  1.00  0.00     0.093 C 
HETATM    9  C18         0      62.540  60.108  22.097  1.00  0.00     0.048 C 
HETATM   10  C19         0      61.356  60.182  22.819  1.00  0.00     0.096 C 
HETATM   11  C21         0      61.398  60.319  24.180  1.00  0.00     0.084 C 
ENDROOT
BRANCH  10  12
HETATM   12  O20         0      60.180  60.533  22.164  1.00  0.00    -0.359 OA
HETATM   13  H20         0      60.058  61.445  21.927  1.00  0.00     0.218 HD
ENDBRANCH  10  12
BRANCH   4  14
HETATM   14  C5          0      61.897  60.917  28.234  1.00  0.00     0.025 C 
HETATM   15  C6          0      61.414  60.310  29.384  1.00  0.00     0.004 C 
HETATM   16  C7          0      62.261  60.251  30.486  1.00  0.00     0.026 C 
HETATM   17  C8          0      63.496  60.890  30.491  1.00  0.00     0.112 C 
HETATM   18  C10         0      63.604  61.950  29.601  1.00  0.00     0.112 C 
HETATM   19  C12         0      62.805  61.942  28.464  1.00  0.00     0.028 C 
BRANCH  17  20
HETATM   20  O9          0      64.569  60.354  31.181  1.00  0.00    -0.357 OA
HETATM   21  H9          0      64.603  59.455  31.488  1.00  0.00     0.218 HD
ENDBRANCH  17  20
BRANCH  18  22
HETATM   22  O11         0      64.741  62.739  29.698  1.00  0.00    -0.357 OA
HETATM   23  H11         0      65.080  63.107  28.890  1.00  0.00     0.218 HD
ENDBRANCH  18  22
ENDBRANCH   4  14
BRANCH   8  24
HETATM   24  O17         0      64.856  60.859  22.172  1.00  0.00    -0.359 OA
HETATM   25  H17         0      64.912  61.807  22.164  1.00  0.00     0.218 HD
ENDBRANCH   8  24
TORSDOF 5
ENDMDL
MODEL 3
REMARK VINA RESULT:      -2.7      2.439      5.589
REMARK  5 active torsions:
REMARK  status: ('A' for Active; 'I' for Inactive)
REMARK    1  A    between atoms: C4_4  and  C5_5 
REMARK    2  A    between atoms: C8_8  and  O9_9 
REMARK    3  A    between atoms: C10_11  and  O11_12 
REMARK    4  A    between atoms: C16_18  and  O17_19 
REMARK    5  A    between atoms: C19_22  and  O20_23 
ROOT
HETATM    1  O1          0      60.090  61.179  26.679  1.00  0.00    -0.286 OA
HETATM    2  C2          0      60.952  60.745  25.866  1.00  0.00     0.201 C 
HETATM    3  C3          0      62.312  60.782  26.125  1.00  0.00     0.067 C 
HETATM    4  C4          0      63.246  60.392  25.171  1.00  0.00     0.103 C 
HETATM    5  O13         0      62.814  59.958  24.000  1.00  0.00    -0.307 OA
HETATM    6  C14         0      61.536  59.938  23.690  1.00  0.00     0.107 C 
HETATM    7  C15         0      61.104  59.875  22.373  1.00  0.00     0.049 C 
HETATM    8  C16         0      59.776  60.110  22.037  1.00  0.00     0.093 C 
HETATM    9  C18         0      58.863  59.877  23.057  1.00  0.00     0.048 C 
HETATM   10  C19         0      59.270  59.887  24.385  1.00  0.00     0.096 C 
HETATM   11  C21         0      60.585  60.110  24.690  1.00  0.00     0.084 C 
ENDROOT
BRANCH  10  12
HETATM   12  O20         0      58.324  60.091  25.385  1.00  0.00    -0.359 OA
HETATM   13  H20         0      57.582  59.500  25.423  1.00  0.00     0.218 HD
ENDBRANCH  10  12
BRANCH   4  14
HETATM   14  C5          0      64.577  60.995  25.252  1.00  0.00     0.025 C 
HETATM   15  C6          0      65.118  61.468  26.438  1.00  0.00     0.004 C 
HETATM   16  C7          0      66.477  61.263  26.655  1.00  0.00     0.026 C 
HETATM   17  C8          0      67.300  60.727  25.670  1.00  0.00     0.112 C 
HETATM   18  C10         0      66.829  60.884  24.373  1.00  0.00     0.112 C 
HETATM   19  C12         0      65.458  61.001  24.178  1.00  0.00     0.028 C 
BRANCH  17  20
HETATM   20  O9          0      68.377  59.927  26.005  1.00  0.00    -0.357 OA
HETATM   21  H9          0      68.633  59.732  26.899  1.00  0.00     0.218 HD
ENDBRANCH  17  20
BRANCH  18  22
HETATM   22  O11         0      67.694  60.539  23.344  1.00  0.00    -0.357 OA
HETATM   23  H11         0      67.942  61.230  22.741  1.00  0.00     0.218 HD
ENDBRANCH  18  22
ENDBRANCH   4  14
BRANCH   8  24
HETATM   24  O17         0      59.432  60.837  20.892  1.00  0.00    -0.359 OA
HETATM   25  H17         0      58.643  60.647  20.399  1.00  0.00     0.218 HD
ENDBRANCH   8  24
TORSDOF 5
ENDMDL
MODEL 4
REMARK VINA RESULT:      -2.7      1.520      3.051
REMARK  5 active torsions:
REMARK  status: ('A' for Active; 'I' for Inactive)
REMARK    1  A    between atoms: C4_4  and  C5_5 
REMARK    2  A    between atoms: C8_8  and  O9_9 
REMARK    3  A    between atoms: C10_11  and  O11_12 
REMARK    4  A    between atoms: C16_18  and  O17_19 
REMARK    5  A    between atoms: C19_22  and  O20_23 
ROOT
HETATM    1  O1          0      65.500  62.541  26.338  1.00  0.00    -0.286 OA
HETATM    2  C2          0      64.723  61.661  25.876  1.00  0.00     0.201 C 
HETATM    3  C3          0      64.787  61.217  24.566  1.00  0.00     0.067 C 
HETATM    4  C4          0      63.855  60.322  24.053  1.00  0.00     0.103 C 
HETATM    5  O13         0      62.900  59.875  24.849  1.00  0.00    -0.307 OA
HETATM    6  C14         0      62.771  60.293  26.090  1.00  0.00     0.107 C 
HETATM    7  C15         0      61.581  60.152  26.788  1.00  0.00     0.049 C 
HETATM    8  C16         0      61.368  60.813  27.992  1.00  0.00     0.093 C 
HETATM    9  C18         0      62.522  61.152  28.688  1.00  0.00     0.048 C 
HETATM   10  C19         0      63.739  61.256  28.028  1.00  0.00     0.096 C 
HETATM   11  C21         0      63.806  61.007  26.684  1.00  0.00     0.084 C 
ENDROOT
BRANCH  10  12
HETATM   12  O20         0      64.765  61.997  28.606  1.00  0.00    -0.359 OA
HETATM   13  H20         0      65.462  62.308  28.041  1.00  0.00     0.218 HD
ENDBRANCH  10  12
BRANCH   4  14
HETATM   14  C5          0      63.607  60.366  22.611  1.00  0.00     0.025 C 
HETATM   15  C6          0      62.440  59.887  22.033  1.00  0.00     0.004 C 
HETATM   16  C7          0      61.909  60.603  20.965  1.00  0.00     0.026 C 
HETATM   17  C8          0      62.583  61.681  20.402  1.00  0.00     0.112 C 
HETATM   18  C10         0      63.956  61.677  20.607  1.00  0.00     0.112 C 
HETATM   19  C12         0      64.454  61.026  21.730  1.00  0.00     0.028 C 
BRANCH  17  20
HETATM   20  O9          0      61.888  62.754  19.875  1.00  0.00    -0.357 OA
HETATM   21  H9          0      62.153  63.222  19.092  1.00  0.00     0.218 HD
ENDBRANCH  17  20
BRANCH  18  22
HETATM   22  O11         0      64.698  62.621  19.912  1.00  0.00    -0.357 OA
HETATM   23  H11         0      65.612  62.417  19.753  1.00  0.00     0.218 HD
ENDBRANCH  18  22
ENDBRANCH   4  14
BRANCH   8  24
HETATM   24  O17         0      60.128  61.385  28.300  1.00  0.00    -0.359 OA
HETATM   25  H17         0      59.711  62.013  27.723  1.00  0.00     0.218 HD
ENDBRANCH   8  24
TORSDOF 5
ENDMDL
MODEL 5
REMARK VINA RESULT:      -2.7      2.368      4.617
REMARK  5 active torsions:
REMARK  status: ('A' for Active; 'I' for Inactive)
REMARK    1  A    between atoms: C4_4  and  C5_5 
REMARK    2  A    between atoms: C8_8  and  O9_9 
REMARK    3  A    between atoms: C10_11  and  O11_12 
REMARK    4  A    between atoms: C16_18  and  O17_19 
REMARK    5  A    between atoms: C19_22  and  O20_23 
ROOT
HETATM    1  O1          0      60.777  60.766  29.458  1.00  0.00    -0.286 OA
HETATM    2  C2          0      60.915  60.598  28.215  1.00  0.00     0.201 C 
HETATM    3  C3          0      62.151  60.583  27.592  1.00  0.00     0.067 C 
HETATM    4  C4          0      62.270  60.499  26.210  1.00  0.00     0.103 C 
HETATM    5  O13         0      61.170  60.412  25.482  1.00  0.00    -0.307 OA
HETATM    6  C14         0      59.971  60.461  26.020  1.00  0.00     0.107 C 
HETATM    7  C15         0      58.846  60.771  25.270  1.00  0.00     0.049 C 
HETATM    8  C16         0      57.633  61.070  25.878  1.00  0.00     0.093 C 
HETATM    9  C18         0      57.468  60.538  27.152  1.00  0.00     0.048 C 
HETATM   10  C19         0      58.571  60.173  27.912  1.00  0.00     0.096 C 
HETATM   11  C21         0      59.830  60.322  27.396  1.00  0.00     0.084 C 
ENDROOT
BRANCH  10  12
HETATM   12  O20         0      58.440  60.065  29.293  1.00  0.00    -0.359 OA
HETATM   13  H20         0      58.765  59.277  29.710  1.00  0.00     0.218 HD
ENDBRANCH  10  12
BRANCH   4  14
HETATM   14  C5          0      63.472  61.076  25.604  1.00  0.00     0.025 C 
HETATM   15  C6          0      64.552  61.519  26.353  1.00  0.00     0.004 C 
HETATM   16  C7          0      65.827  61.286  25.846  1.00  0.00     0.026 C 
HETATM   17  C8          0      66.020  60.752  24.577  1.00  0.00     0.112 C 
HETATM   18  C10         0      64.959  60.939  23.701  1.00  0.00     0.112 C 
HETATM   19  C12         0      63.683  61.085  24.232  1.00  0.00     0.028 C 
BRANCH  17  20
HETATM   20  O9          0      67.099  59.927  24.312  1.00  0.00    -0.357 OA
HETATM   21  H9          0      67.308  59.152  24.822  1.00  0.00     0.218 HD
ENDBRANCH  17  20
BRANCH  18  22
HETATM   22  O11         0      65.172  60.596  22.374  1.00  0.00    -0.357 OA
HETATM   23  H11         0      64.583  60.975  21.732  1.00  0.00     0.218 HD
ENDBRANCH  18  22
ENDBRANCH   4  14
BRANCH   8  24
HETATM   24  O17         0      56.805  62.089  25.394  1.00  0.00    -0.359 OA
HETATM   25  H17         0      55.869  61.966  25.293  1.00  0.00     0.218 HD
ENDBRANCH   8  24
TORSDOF 5
ENDMDL
MODEL 6
REMARK VINA RESULT:      -2.7      1.741      3.158
REMARK  5 active torsions:
REMARK  status: ('A' for Active; 'I' for Inactive)
REMARK    1  A    between atoms: C4_4  and  C5_5 
REMARK    2  A    between atoms: C8_8  and  O9_9 
REMARK    3  A    between atoms: C10_11  and  O11_12 
REMARK    4  A    between atoms: C16_18  and  O17_19 
REMARK    5  A    between atoms: C19_22  and  O20_23 
ROOT
HETATM    1  O1          0      63.498  61.154  28.096  1.00  0.00    -0.286 OA
HETATM    2  C2          0      62.610  60.699  27.324  1.00  0.00     0.201 C 
HETATM    3  C3          0      62.828  60.479  25.975  1.00  0.00     0.067 C 
HETATM    4  C4          0      61.804  60.075  25.127  1.00  0.00     0.103 C 
HETATM    5  O13         0      60.600  59.879  25.635  1.00  0.00    -0.307 OA
HETATM    6  C14         0      60.329  60.109  26.901  1.00  0.00     0.107 C 
HETATM    7  C15         0      59.029  60.295  27.349  1.00  0.00     0.049 C 
HETATM    8  C16         0      58.768  60.786  28.623  1.00  0.00     0.093 C 
HETATM    9  C18         0      59.777  60.569  29.553  1.00  0.00     0.048 C 
HETATM   10  C19         0      61.080  60.334  29.139  1.00  0.00     0.096 C 
HETATM   11  C21         0      61.372  60.297  27.802  1.00  0.00     0.084 C 
ENDROOT
BRANCH  10  12
HETATM   12  O20         0      62.127  60.552  30.029  1.00  0.00    -0.359 OA
HETATM   13  H20         0      61.933  61.001  30.843  1.00  0.00     0.218 HD
ENDBRANCH  10  12
BRANCH   4  14
HETATM   14  C5          0      61.922  60.437  23.714  1.00  0.00     0.025 C 
HETATM   15  C6          0      61.181  61.457  23.134  1.00  0.00     0.004 C 
HETATM   16  C7          0      61.814  62.255  22.186  1.00  0.00     0.026 C 
HETATM   17  C8          0      63.096  61.967  21.730  1.00  0.00     0.112 C 
HETATM   18  C10         0      63.478  60.640  21.872  1.00  0.00     0.112 C 
HETATM   19  C12         0      62.891  59.889  22.883  1.00  0.00     0.028 C 
BRANCH  17  20
HETATM   20  O9          0      63.964  62.982  21.369  1.00  0.00    -0.357 OA
HETATM   21  H9          0      64.158  63.732  21.921  1.00  0.00     0.218 HD
ENDBRANCH  17  20
BRANCH  18  22
HETATM   22  O11         0      64.666  60.260  21.265  1.00  0.00    -0.357 OA
HETATM   23  H11         0      65.387  60.027  21.839  1.00  0.00     0.218 HD
ENDBRANCH  18  22
ENDBRANCH   4  14
BRANCH   8  24
HETATM   24  O17         0      57.740  61.707  28.852  1.00  0.00    -0.359 OA
HETATM   25  H17         0      57.900  62.536  29.286  1.00  0.00     0.218 HD
ENDBRANCH   8  24
TORSDOF 5
ENDMDL
MODEL 7
REMARK VINA RESULT:      -2.7      2.166      6.755
REMARK  5 active torsions:
REMARK  status: ('A' for Active; 'I' for Inactive)
REMARK    1  A    between atoms: C4_4  and  C5_5 
REMARK    2  A    between atoms: C8_8  and  O9_9 
REMARK    3  A    between atoms: C10_11  and  O11_12 
REMARK    4  A    between atoms: C16_18  and  O17_19 
REMARK    5  A    between atoms: C19_22  and  O20_23 
ROOT
HETATM    1  O1          0      63.269  64.359  23.697  1.00  0.00    -0.286 OA
HETATM    2  C2          0      62.778  63.198  23.657  1.00  0.00     0.201 C 
HETATM    3  C3          0      62.038  62.660  24.696  1.00  0.00     0.067 C 
HETATM    4  C4          0      61.596  61.341  24.670  1.00  0.00     0.103 C 
HETATM    5  O13         0      61.879  60.598  23.614  1.00  0.00    -0.307 OA
HETATM    6  C14         0      62.611  61.048  22.618  1.00  0.00     0.107 C 
HETATM    7  C15         0      63.238  60.190  21.726  1.00  0.00     0.049 C 
HETATM    8  C16         0      64.206  60.651  20.841  1.00  0.00     0.093 C 
HETATM    9  C18         0      64.121  62.002  20.530  1.00  0.00     0.048 C 
HETATM   10  C19         0      63.459  62.881  21.377  1.00  0.00     0.096 C 
HETATM   11  C21         0      62.872  62.411  22.520  1.00  0.00     0.084 C 
ENDROOT
BRANCH  10  12
HETATM   12  O20         0      63.743  64.242  21.302  1.00  0.00    -0.359 OA
HETATM   13  H20         0      63.144  64.795  20.816  1.00  0.00     0.218 HD
ENDBRANCH  10  12
BRANCH   4  14
HETATM   14  C5          0      61.380  60.682  25.959  1.00  0.00     0.025 C 
HETATM   15  C6          0      62.310  60.719  26.988  1.00  0.00     0.004 C 
HETATM   16  C7          0      61.828  60.834  28.288  1.00  0.00     0.026 C 
HETATM   17  C8          0      60.467  60.779  28.569  1.00  0.00     0.112 C 
HETATM   18  C10         0      59.704  60.125  27.612  1.00  0.00     0.112 C 
HETATM   19  C12         0      60.168  60.098  26.302  1.00  0.00     0.028 C 
BRANCH  17  20
HETATM   20  O9          0      59.929  61.510  29.613  1.00  0.00    -0.357 OA
HETATM   21  H9          0      60.444  62.059  30.194  1.00  0.00     0.218 HD
ENDBRANCH  17  20
BRANCH  18  22
HETATM   22  O11         0      58.376  59.876  27.930  1.00  0.00    -0.357 OA
HETATM   23  H11         0      57.871  59.370  27.303  1.00  0.00     0.218 HD
ENDBRANCH  18  22
ENDBRANCH   4  14
BRANCH   8  24
HETATM   24  O17         0      65.355  59.903  20.564  1.00  0.00    -0.359 OA
HETATM   25  H17         0      65.669  59.782  19.676  1.00  0.00     0.218 HD
ENDBRANCH   8  24
TORSDOF 5
ENDMDL
MODEL 8
REMARK VINA RESULT:      -2.6      1.246      1.594
REMARK  5 active torsions:
REMARK  status: ('A' for Active; 'I' for Inactive)
REMARK    1  A    between atoms: C4_4  and  C5_5 
REMARK    2  A    between atoms: C8_8  and  O9_9 
REMARK    3  A    between atoms: C10_11  and  O11_12 
REMARK    4  A    between atoms: C16_18  and  O17_19 
REMARK    5  A    between atoms: C19_22  and  O20_23 
ROOT
HETATM    1  O1          0      59.661  59.877  28.370  1.00  0.00    -0.286 OA
HETATM    2  C2          0      60.309  60.379  27.411  1.00  0.00     0.201 C 
HETATM    3  C3          0      59.890  60.293  26.094  1.00  0.00     0.067 C 
HETATM    4  C4          0      60.673  60.765  25.048  1.00  0.00     0.103 C 
HETATM    5  O13         0      61.835  61.327  25.328  1.00  0.00    -0.307 OA
HETATM    6  C14         0      62.297  61.401  26.557  1.00  0.00     0.107 C 
HETATM    7  C15         0      63.643  61.611  26.821  1.00  0.00     0.049 C 
HETATM    8  C16         0      64.165  61.435  28.097  1.00  0.00     0.093 C 
HETATM    9  C18         0      63.246  61.574  29.130  1.00  0.00     0.048 C 
HETATM   10  C19         0      61.888  61.417  28.892  1.00  0.00     0.096 C 
HETATM   11  C21         0      61.447  61.141  27.627  1.00  0.00     0.084 C 
ENDROOT
BRANCH  10  12
HETATM   12  O20         0      61.040  61.125  29.956  1.00  0.00    -0.359 OA
HETATM   13  H20         0      60.606  61.849  30.392  1.00  0.00     0.218 HD
ENDBRANCH  10  12
BRANCH   4  14
HETATM   14  C5          0      60.493  60.135  23.739  1.00  0.00     0.025 C 
HETATM   15  C6          0      59.244  59.886  23.189  1.00  0.00     0.004 C 
HETATM   16  C7          0      59.093  60.072  21.819  1.00  0.00     0.026 C 
HETATM   17  C8          0      60.178  60.365  20.999  1.00  0.00     0.112 C 
HETATM   18  C10         0      61.410  59.971  21.506  1.00  0.00     0.112 C 
HETATM   19  C12         0      61.557  59.876  22.884  1.00  0.00     0.028 C 
BRANCH  17  20
HETATM   20  O9          0      60.028  61.169  19.884  1.00  0.00    -0.357 OA
HETATM   21  H9          0      60.696  61.279  19.218  1.00  0.00     0.218 HD
ENDBRANCH  17  20
BRANCH  18  22
HETATM   22  O11         0      62.500  60.067  20.652  1.00  0.00    -0.357 OA
HETATM   23  H11         0      63.339  60.274  21.047  1.00  0.00     0.218 HD
ENDBRANCH  18  22
ENDBRANCH   4  14
BRANCH   8  24
HETATM   24  O17         0      65.415  60.839  28.298  1.00  0.00    -0.359 OA
HETATM   25  H17         0      65.849  60.346  27.612  1.00  0.00     0.218 HD
ENDBRANCH   8  24
TORSDOF 5
ENDMDL
MODEL 9
REMARK VINA RESULT:      -2.6      1.893      3.655
REMARK  5 active torsions:
REMARK  status: ('A' for Active; 'I' for Inactive)
REMARK    1  A    between atoms: C4_4  and  C5_5 
REMARK    2  A    between atoms: C8_8  and  O9_9 
REMARK    3  A    between atoms: C10_11  and  O11_12 
REMARK    4  A    between atoms: C16_18  and  O17_19 
REMARK    5  A    between atoms: C19_22  and  O20_23 
ROOT
HETATM    1  O1          0      63.585  62.290  29.441  1.00  0.00    -0.286 OA
HETATM    2  C2          0      63.316  61.620  28.406  1.00  0.00     0.201 C 
HETATM    3  C3          0      64.098  61.656  27.265  1.00  0.00     0.067 C 
HETATM    4  C4          0      63.724  60.989  26.104  1.00  0.00     0.103 C 
HETATM    5  O13         0      62.602  60.290  26.107  1.00  0.00    -0.307 OA
HETATM    6  C14         0      61.804  60.254  27.152  1.00  0.00     0.107 C 
HETATM    7  C15         0      60.474  59.875  27.043  1.00  0.00     0.049 C 
HETATM    8  C16         0      59.577  60.080  28.084  1.00  0.00     0.093 C 
HETATM    9  C18         0      60.153  60.163  29.346  1.00  0.00     0.048 C 
HETATM   10  C19         0      61.494  60.494  29.490  1.00  0.00     0.096 C 
HETATM   11  C21         0      62.259  60.723  28.379  1.00  0.00     0.084 C 
ENDROOT
BRANCH  10  12
HETATM   12  O20         0      61.944  60.994  30.708  1.00  0.00    -0.359 OA
HETATM   13  H20         0      61.612  61.837  30.993  1.00  0.00     0.218 HD
ENDBRANCH  10  12
BRANCH   4  14
HETATM   14  C5          0      64.216  61.526  24.834  1.00  0.00     0.025 C 
HETATM   15  C6          0      65.207  62.493  24.761  1.00  0.00     0.004 C 
HETATM   16  C7          0      66.140  62.384  23.734  1.00  0.00     0.026 C 
HETATM   17  C8          0      66.015  61.426  22.734  1.00  0.00     0.112 C 
HETATM   18  C10         0      64.722  60.958  22.537  1.00  0.00     0.112 C 
HETATM   19  C12         0      63.834  61.001  23.606  1.00  0.00     0.028 C 
BRANCH  17  20
HETATM   20  O9          0      67.134  60.855  22.155  1.00  0.00    -0.357 OA
HETATM   21  H9          0      67.752  60.308  22.627  1.00  0.00     0.218 HD
ENDBRANCH  17  20
BRANCH  18  22
HETATM   22  O11         0      64.509  60.146  21.433  1.00  0.00    -0.357 OA
HETATM   23  H11         0      64.376  60.581  20.598  1.00  0.00     0.218 HD
ENDBRANCH  18  22
ENDBRANCH   4  14
BRANCH   8  24
HETATM   24  O17         0      58.265  60.505  27.845  1.00  0.00    -0.359 OA
HETATM   25  H17         0      57.973  61.378  28.077  1.00  0.00     0.218 HD
ENDBRANCH   8  24
TORSDOF 5
ENDMDL
