MODEL 1
REMARK VINA RESULT:      -6.8      0.000      0.000
REMARK  5 active torsions:
REMARK  status: ('A' for Active; 'I' for Inactive)
REMARK    1  A    between atoms: C4_4  and  C5_5 
REMARK    2  A    between atoms: C8_8  and  O9_9 
REMARK    3  A    between atoms: C10_11  and  O11_12 
REMARK    4  A    between atoms: C16_18  and  O17_19 
REMARK    5  A    between atoms: C19_22  and  O20_23 
ROOT
HETATM    1  O1          0      34.055  55.216 -18.624  1.00  0.00    -0.286 OA
HETATM    2  C2          0      35.009  55.190 -19.449  1.00  0.00     0.201 C 
HETATM    3  C3          0      35.077  54.279 -20.490  1.00  0.00     0.067 C 
HETATM    4  C4          0      36.188  54.205 -21.322  1.00  0.00     0.103 C 
HETATM    5  O13         0      37.190  55.042 -21.120  1.00  0.00    -0.307 OA
HETATM    6  C14         0      37.193  55.900 -20.124  1.00  0.00     0.107 C 
HETATM    7  C15         0      38.365  56.484 -19.665  1.00  0.00     0.049 C 
HETATM    8  C16         0      38.402  57.184 -18.465  1.00  0.00     0.093 C 
HETATM    9  C18         0      37.182  57.708 -18.054  1.00  0.00     0.048 C 
HETATM   10  C19         0      35.990  57.178 -18.529  1.00  0.00     0.096 C 
HETATM   11  C21         0      36.016  56.142 -19.423  1.00  0.00     0.084 C 
ENDROOT
BRANCH  10  12
HETATM   12  O20         0      34.817  57.392 -17.812  1.00  0.00    -0.359 OA
HETATM   13  H20         0      34.551  58.290 -17.651  1.00  0.00     0.218 HD
ENDBRANCH  10  12
BRANCH   4  14
HETATM   14  C5          0      36.464  52.914 -21.956  1.00  0.00     0.025 C 
HETATM   15  C6          0      36.521  52.750 -23.333  1.00  0.00     0.004 C 
HETATM   16  C7          0      37.486  51.885 -23.840  1.00  0.00     0.026 C 
HETATM   17  C8          0      38.280  51.108 -23.004  1.00  0.00     0.112 C 
HETATM   18  C10         0      37.738  50.868 -21.748  1.00  0.00     0.112 C 
HETATM   19  C12         0      36.840  51.793 -21.229  1.00  0.00     0.028 C 
BRANCH  17  20
HETATM   20  O9          0      39.583  50.799 -23.350  1.00  0.00    -0.357 OA
HETATM   21  H9          0      40.185  51.418 -23.747  1.00  0.00     0.218 HD
ENDBRANCH  17  20
BRANCH  18  22
HETATM   22  O11         0      38.397  49.947 -20.945  1.00  0.00    -0.357 OA
HETATM   23  H11         0      37.971  49.704 -20.131  1.00  0.00     0.218 HD
ENDBRANCH  18  22
ENDBRANCH   4  14
BRANCH   8  24
HETATM   24  O17         0      39.488  57.074 -17.590  1.00  0.00    -0.359 OA
HETATM   25  H17         0      39.578  57.640 -16.832  1.00  0.00     0.218 HD
ENDBRANCH   8  24
TORSDOF 5
ENDMDL
MODEL 2
REMARK VINA RESULT:      -6.7      1.914      6.594
REMARK  5 active torsions:
REMARK  status: ('A' for Active; 'I' for Inactive)
REMARK    1  A    between atoms: C4_4  and  C5_5 
REMARK    2  A    between atoms: C8_8  and  O9_9 
REMARK    3  A    between atoms: C10_11  and  O11_12 
REMARK    4  A    between atoms: C16_18  and  O17_19 
REMARK    5  A    between atoms: C19_22  and  O20_23 
ROOT
HETATM    1  O1          0      37.539  55.288 -23.473  1.00  0.00    -0.286 OA
HETATM    2  C2          0      36.778  54.693 -22.660  1.00  0.00     0.201 C 
HETATM    3  C3          0      35.877  55.362 -21.850  1.00  0.00     0.067 C 
HETATM    4  C4          0      35.124  54.694 -20.891  1.00  0.00     0.103 C 
HETATM    5  O13         0      35.265  53.385 -20.772  1.00  0.00    -0.307 OA
HETATM    6  C14         0      36.133  52.708 -21.490  1.00  0.00     0.107 C 
HETATM    7  C15         0      36.571  51.447 -21.110  1.00  0.00     0.049 C 
HETATM    8  C16         0      37.665  50.848 -21.723  1.00  0.00     0.093 C 
HETATM    9  C18         0      37.934  51.295 -23.011  1.00  0.00     0.048 C 
HETATM   10  C19         0      37.471  52.531 -23.440  1.00  0.00     0.096 C 
HETATM   11  C21         0      36.729  53.309 -22.593  1.00  0.00     0.084 C 
ENDROOT
BRANCH  10  12
HETATM   12  O20         0      38.086  53.149 -24.524  1.00  0.00    -0.359 OA
HETATM   13  H20         0      38.613  53.921 -24.356  1.00  0.00     0.218 HD
ENDBRANCH  10  12
BRANCH   4  14
HETATM   14  C5          0      34.688  55.465 -19.725  1.00  0.00     0.025 C 
HETATM   15  C6          0      34.789  54.986 -18.427  1.00  0.00     0.004 C 
HETATM   16  C7          0      35.142  55.892 -17.432  1.00  0.00     0.026 C 
HETATM   17  C8          0      35.260  57.253 -17.693  1.00  0.00     0.112 C 
HETATM   18  C10         0      34.547  57.695 -18.799  1.00  0.00     0.112 C 
HETATM   19  C12         0      34.280  56.789 -19.819  1.00  0.00     0.028 C 
BRANCH  17  20
HETATM   20  O9          0      36.187  58.027 -17.018  1.00  0.00    -0.357 OA
HETATM   21  H9          0      36.061  58.350 -16.133  1.00  0.00     0.218 HD
ENDBRANCH  17  20
BRANCH  18  22
HETATM   22  O11         0      34.476  59.067 -18.994  1.00  0.00    -0.357 OA
HETATM   23  H11         0      34.908  59.616 -18.349  1.00  0.00     0.218 HD
ENDBRANCH  18  22
ENDBRANCH   4  14
BRANCH   8  24
HETATM   24  O17         0      38.605  50.119 -20.986  1.00  0.00    -0.359 OA
HETATM   25  H17         0      39.486  49.970 -21.309  1.00  0.00     0.218 HD
ENDBRANCH   8  24
TORSDOF 5
ENDMDL
MODEL 3
REMARK VINA RESULT:      -6.6      2.386      4.153
REMARK  5 active torsions:
REMARK  status: ('A' for Active; 'I' for Inactive)
REMARK    1  A    between atoms: C4_4  and  C5_5 
REMARK    2  A    between atoms: C8_8  and  O9_9 
REMARK    3  A    between atoms: C10_11  and  O11_12 
REMARK    4  A    between atoms: C16_18  and  O17_19 
REMARK    5  A    between atoms: C19_22  and  O20_23 
ROOT
HETATM    1  O1          0      36.154  57.837 -17.214  1.00  0.00    -0.286 OA
HETATM    2  C2          0      35.597  56.891 -17.837  1.00  0.00     0.201 C 
HETATM    3  C3          0      36.278  56.071 -18.720  1.00  0.00     0.067 C 
HETATM    4  C4          0      35.620  55.103 -19.470  1.00  0.00     0.103 C 
HETATM    5  O13         0      34.316  54.957 -19.314  1.00  0.00    -0.307 OA
HETATM    6  C14         0      33.616  55.734 -18.517  1.00  0.00     0.107 C 
HETATM    7  C15         0      32.240  55.861 -18.643  1.00  0.00     0.049 C 
HETATM    8  C16         0      31.544  56.863 -17.978  1.00  0.00     0.093 C 
HETATM    9  C18         0      32.163  57.347 -16.832  1.00  0.00     0.048 C 
HETATM   10  C19         0      33.532  57.196 -16.652  1.00  0.00     0.096 C 
HETATM   11  C21         0      34.274  56.550 -17.603  1.00  0.00     0.084 C 
ENDROOT
BRANCH  10  12
HETATM   12  O20         0      34.197  58.033 -15.762  1.00  0.00    -0.359 OA
HETATM   13  H20         0      33.706  58.742 -15.366  1.00  0.00     0.218 HD
ENDBRANCH  10  12
BRANCH   4  14
HETATM   14  C5          0      36.224  54.720 -20.748  1.00  0.00     0.025 C 
HETATM   15  C6          0      37.548  54.325 -20.865  1.00  0.00     0.004 C 
HETATM   16  C7          0      37.837  53.294 -21.753  1.00  0.00     0.026 C 
HETATM   17  C8          0      36.867  52.763 -22.595  1.00  0.00     0.112 C 
HETATM   18  C10         0      35.799  53.611 -22.856  1.00  0.00     0.112 C 
HETATM   19  C12         0      35.478  54.579 -21.911  1.00  0.00     0.028 C 
BRANCH  17  20
HETATM   20  O9          0      36.890  51.426 -22.950  1.00  0.00    -0.357 OA
HETATM   21  H9          0      36.143  50.845 -22.869  1.00  0.00     0.218 HD
ENDBRANCH  17  20
BRANCH  18  22
HETATM   22  O11         0      34.900  53.209 -23.834  1.00  0.00    -0.357 OA
HETATM   23  H11         0      34.106  52.780 -23.538  1.00  0.00     0.218 HD
ENDBRANCH  18  22
ENDBRANCH   4  14
BRANCH   8  24
HETATM   24  O17         0      30.493  57.552 -18.593  1.00  0.00    -0.359 OA
HETATM   25  H17         0      29.877  57.114 -19.168  1.00  0.00     0.218 HD
ENDBRANCH   8  24
TORSDOF 5
ENDMDL
MODEL 4
REMARK VINA RESULT:      -6.5      1.653      1.764
REMARK  5 active torsions:
REMARK  status: ('A' for Active; 'I' for Inactive)
REMARK    1  A    between atoms: C4_4  and  C5_5 
REMARK    2  A    between atoms: C8_8  and  O9_9 
REMARK    3  A    between atoms: C10_11  and  O11_12 
REMARK    4  A    between atoms: C16_18  and  O17_19 
REMARK    5  A    between atoms: C19_22  and  O20_23 
ROOT
HETATM    1  O1          0      33.868  57.025 -22.124  1.00  0.00    -0.286 OA
HETATM    2  C2          0      34.979  56.471 -21.900  1.00  0.00     0.201 C 
HETATM    3  C3          0      35.394  55.327 -22.559  1.00  0.00     0.067 C 
HETATM    4  C4          0      36.576  54.679 -22.221  1.00  0.00     0.103 C 
HETATM    5  O13         0      37.326  55.188 -21.259  1.00  0.00    -0.307 OA
HETATM    6  C14         0      36.961  56.251 -20.576  1.00  0.00     0.107 C 
HETATM    7  C15         0      37.513  56.550 -19.339  1.00  0.00     0.049 C 
HETATM    8  C16         0      36.951  57.516 -18.513  1.00  0.00     0.093 C 
HETATM    9  C18         0      36.202  58.486 -19.169  1.00  0.00     0.048 C 
HETATM   10  C19         0      35.674  58.236 -20.428  1.00  0.00     0.096 C 
HETATM   11  C21         0      35.907  57.033 -21.036  1.00  0.00     0.084 C 
ENDROOT
BRANCH  10  12
HETATM   12  O20         0      34.599  58.997 -20.878  1.00  0.00    -0.359 OA
HETATM   13  H20         0      34.376  58.952 -21.800  1.00  0.00     0.218 HD
ENDBRANCH  10  12
BRANCH   4  14
HETATM   14  C5          0      36.653  53.242 -22.489  1.00  0.00     0.025 C 
HETATM   15  C6          0      36.537  52.707 -23.764  1.00  0.00     0.004 C 
HETATM   16  C7          0      37.351  51.625 -24.085  1.00  0.00     0.026 C 
HETATM   17  C8          0      38.155  51.009 -23.133  1.00  0.00     0.112 C 
HETATM   18  C10         0      37.738  51.185 -21.820  1.00  0.00     0.112 C 
HETATM   19  C12         0      36.998  52.319 -21.509  1.00  0.00     0.028 C 
BRANCH  17  20
HETATM   20  O9          0      39.375  50.458 -23.485  1.00  0.00    -0.357 OA
HETATM   21  H9          0      39.847  49.835 -22.946  1.00  0.00     0.218 HD
ENDBRANCH  17  20
BRANCH  18  22
HETATM   22  O11         0      38.391  50.440 -20.849  1.00  0.00    -0.357 OA
HETATM   23  H11         0      38.708  49.581 -21.106  1.00  0.00     0.218 HD
ENDBRANCH  18  22
ENDBRANCH   4  14
BRANCH   8  24
HETATM   24  O17         0      36.866  57.332 -17.128  1.00  0.00    -0.359 OA
HETATM   25  H17         0      36.774  58.066 -16.532  1.00  0.00     0.218 HD
ENDBRANCH   8  24
TORSDOF 5
ENDMDL
MODEL 5
REMARK VINA RESULT:      -6.5      1.288      1.393
REMARK  5 active torsions:
REMARK  status: ('A' for Active; 'I' for Inactive)
REMARK    1  A    between atoms: C4_4  and  C5_5 
REMARK    2  A    between atoms: C8_8  and  O9_9 
REMARK    3  A    between atoms: C10_11  and  O11_12 
REMARK    4  A    between atoms: C16_18  and  O17_19 
REMARK    5  A    between atoms: C19_22  and  O20_23 
ROOT
HETATM    1  O1          0      33.479  57.098 -19.651  1.00  0.00    -0.286 OA
HETATM    2  C2          0      34.629  56.750 -20.037  1.00  0.00     0.201 C 
HETATM    3  C3          0      34.837  55.727 -20.946  1.00  0.00     0.067 C 
HETATM    4  C4          0      36.117  55.295 -21.276  1.00  0.00     0.103 C 
HETATM    5  O13         0      37.153  55.896 -20.717  1.00  0.00    -0.307 OA
HETATM    6  C14         0      37.010  56.846 -19.820  1.00  0.00     0.107 C 
HETATM    7  C15         0      38.036  57.194 -18.954  1.00  0.00     0.049 C 
HETATM    8  C16         0      37.806  58.009 -17.852  1.00  0.00     0.093 C 
HETATM    9  C18         0      36.704  58.848 -17.963  1.00  0.00     0.048 C 
HETATM   10  C19         0      35.681  58.555 -18.854  1.00  0.00     0.096 C 
HETATM   11  C21         0      35.765  57.439 -19.641  1.00  0.00     0.084 C 
ENDROOT
BRANCH  10  12
HETATM   12  O20         0      34.425  59.122 -18.658  1.00  0.00    -0.359 OA
HETATM   13  H20         0      33.760  58.594 -18.233  1.00  0.00     0.218 HD
ENDBRANCH  10  12
BRANCH   4  14
HETATM   14  C5          0      36.262  53.908 -21.721  1.00  0.00     0.025 C 
HETATM   15  C6          0      35.673  53.425 -22.880  1.00  0.00     0.004 C 
HETATM   16  C7          0      36.401  52.517 -23.643  1.00  0.00     0.026 C 
HETATM   17  C8          0      37.616  52.003 -23.202  1.00  0.00     0.112 C 
HETATM   18  C10         0      37.795  52.040 -21.825  1.00  0.00     0.112 C 
HETATM   19  C12         0      37.120  53.012 -21.097  1.00  0.00     0.028 C 
BRANCH  17  20
HETATM   20  O9          0      38.621  51.690 -24.099  1.00  0.00    -0.357 OA
HETATM   21  H9          0      38.471  51.245 -24.926  1.00  0.00     0.218 HD
ENDBRANCH  17  20
BRANCH  18  22
HETATM   22  O11         0      38.900  51.371 -21.318  1.00  0.00    -0.357 OA
HETATM   23  H11         0      39.708  51.436 -21.815  1.00  0.00     0.218 HD
ENDBRANCH  18  22
ENDBRANCH   4  14
BRANCH   8  24
HETATM   24  O17         0      38.419  57.759 -16.619  1.00  0.00    -0.359 OA
HETATM   25  H17         0      38.378  58.384 -15.905  1.00  0.00     0.218 HD
ENDBRANCH   8  24
TORSDOF 5
ENDMDL
MODEL 6
REMARK VINA RESULT:      -6.1      1.913      2.637
REMARK  5 active torsions:
REMARK  status: ('A' for Active; 'I' for Inactive)
REMARK    1  A    between atoms: C4_4  and  C5_5 
REMARK    2  A    between atoms: C8_8  and  O9_9 
REMARK    3  A    between atoms: C10_11  and  O11_12 
REMARK    4  A    between atoms: C16_18  and  O17_19 
REMARK    5  A    between atoms: C19_22  and  O20_23 
ROOT
HETATM    1  O1          0      34.993  55.271 -17.381  1.00  0.00    -0.286 OA
HETATM    2  C2          0      35.456  55.792 -18.432  1.00  0.00     0.201 C 
HETATM    3  C3          0      35.725  55.060 -19.576  1.00  0.00     0.067 C 
HETATM    4  C4          0      36.330  55.638 -20.686  1.00  0.00     0.103 C 
HETATM    5  O13         0      36.634  56.924 -20.645  1.00  0.00    -0.307 OA
HETATM    6  C14         0      36.434  57.655 -19.571  1.00  0.00     0.107 C 
HETATM    7  C15         0      37.095  58.859 -19.374  1.00  0.00     0.049 C 
HETATM    8  C16         0      37.079  59.497 -18.139  1.00  0.00     0.093 C 
HETATM    9  C18         0      35.993  59.184 -17.331  1.00  0.00     0.048 C 
HETATM   10  C19         0      35.280  58.010 -17.531  1.00  0.00     0.096 C 
HETATM   11  C21         0      35.639  57.162 -18.543  1.00  0.00     0.084 C 
ENDROOT
BRANCH  10  12
HETATM   12  O20         0      34.509  57.497 -16.492  1.00  0.00    -0.359 OA
HETATM   13  H20         0      34.704  56.620 -16.184  1.00  0.00     0.218 HD
ENDBRANCH  10  12
BRANCH   4  14
HETATM   14  C5          0      37.107  54.758 -21.561  1.00  0.00     0.025 C 
HETATM   15  C6          0      37.591  53.525 -21.148  1.00  0.00     0.004 C 
HETATM   16  C7          0      37.566  52.482 -22.068  1.00  0.00     0.026 C 
HETATM   17  C8          0      37.199  52.687 -23.394  1.00  0.00     0.112 C 
HETATM   18  C10         0      37.353  53.992 -23.842  1.00  0.00     0.112 C 
HETATM   19  C12         0      37.289  55.023 -22.912  1.00  0.00     0.028 C 
BRANCH  17  20
HETATM   20  O9          0      36.540  51.703 -24.108  1.00  0.00    -0.357 OA
HETATM   21  H9          0      36.001  51.030 -23.706  1.00  0.00     0.218 HD
ENDBRANCH  17  20
BRANCH  18  22
HETATM   22  O11         0      37.183  54.214 -25.202  1.00  0.00    -0.357 OA
HETATM   23  H11         0      36.922  55.089 -25.465  1.00  0.00     0.218 HD
ENDBRANCH  18  22
ENDBRANCH   4  14
BRANCH   8  24
HETATM   24  O17         0      38.221  60.125 -17.628  1.00  0.00    -0.359 OA
HETATM   25  H17         0      38.281  60.384 -16.716  1.00  0.00     0.218 HD
ENDBRANCH   8  24
TORSDOF 5
ENDMDL
MODEL 7
REMARK VINA RESULT:      -5.9     10.282     12.565
REMARK  5 active torsions:
REMARK  status: ('A' for Active; 'I' for Inactive)
REMARK    1  A    between atoms: C4_4  and  C5_5 
REMARK    2  A    between atoms: C8_8  and  O9_9 
REMARK    3  A    between atoms: C10_11  and  O11_12 
REMARK    4  A    between atoms: C16_18  and  O17_19 
REMARK    5  A    between atoms: C19_22  and  O20_23 
ROOT
HETATM    1  O1          0      30.683  59.151 -24.667  1.00  0.00    -0.286 OA
HETATM    2  C2          0      29.457  59.163 -24.966  1.00  0.00     0.201 C 
HETATM    3  C3          0      28.461  59.413 -24.038  1.00  0.00     0.067 C 
HETATM    4  C4          0      27.115  59.318 -24.371  1.00  0.00     0.103 C 
HETATM    5  O13         0      26.789  59.001 -25.612  1.00  0.00    -0.307 OA
HETATM    6  C14         0      27.694  58.717 -26.522  1.00  0.00     0.107 C 
HETATM    7  C15         0      27.377  58.011 -27.673  1.00  0.00     0.049 C 
HETATM    8  C16         0      28.368  57.495 -28.499  1.00  0.00     0.093 C 
HETATM    9  C18         0      29.593  58.147 -28.424  1.00  0.00     0.048 C 
HETATM   10  C19         0      29.924  58.901 -27.306  1.00  0.00     0.096 C 
HETATM   11  C21         0      29.030  59.016 -26.277  1.00  0.00     0.084 C 
ENDROOT
BRANCH  10  12
HETATM   12  O20         0      31.262  59.175 -27.042  1.00  0.00    -0.359 OA
HETATM   13  H20         0      31.567  59.084 -26.147  1.00  0.00     0.218 HD
ENDBRANCH  10  12
BRANCH   4  14
HETATM   14  C5          0      26.179  58.997 -23.292  1.00  0.00     0.025 C 
HETATM   15  C6          0      25.399  57.850 -23.290  1.00  0.00     0.004 C 
HETATM   16  C7          0      25.203  57.206 -22.072  1.00  0.00     0.026 C 
HETATM   17  C8          0      25.653  57.755 -20.876  1.00  0.00     0.112 C 
HETATM   18  C10         0      25.832  59.131 -20.901  1.00  0.00     0.112 C 
HETATM   19  C12         0      26.111  59.739 -22.120  1.00  0.00     0.028 C 
BRANCH  17  20
HETATM   20  O9          0      26.080  56.943 -19.840  1.00  0.00    -0.357 OA
HETATM   21  H9          0      25.493  56.535 -19.213  1.00  0.00     0.218 HD
ENDBRANCH  17  20
BRANCH  18  22
HETATM   22  O11         0      26.097  59.753 -19.689  1.00  0.00    -0.357 OA
HETATM   23  H11         0      25.748  60.629 -19.570  1.00  0.00     0.218 HD
ENDBRANCH  18  22
ENDBRANCH   4  14
BRANCH   8  24
HETATM   24  O17         0      28.242  56.233 -29.089  1.00  0.00    -0.359 OA
HETATM   25  H17         0      28.928  55.865 -29.633  1.00  0.00     0.218 HD
ENDBRANCH   8  24
TORSDOF 5
ENDMDL
MODEL 8
REMARK VINA RESULT:      -5.6      5.633      8.564
REMARK  5 active torsions:
REMARK  status: ('A' for Active; 'I' for Inactive)
REMARK    1  A    between atoms: C4_4  and  C5_5 
REMARK    2  A    between atoms: C8_8  and  O9_9 
REMARK    3  A    between atoms: C10_11  and  O11_12 
REMARK    4  A    between atoms: C16_18  and  O17_19 
REMARK    5  A    between atoms: C19_22  and  O20_23 
ROOT
HETATM    1  O1          0      31.767  56.756 -17.086  1.00  0.00    -0.286 OA
HETATM    2  C2          0      31.546  56.439 -18.287  1.00  0.00     0.201 C 
HETATM    3  C3          0      30.310  56.596 -18.889  1.00  0.00     0.067 C 
HETATM    4  C4          0      30.066  56.143 -20.181  1.00  0.00     0.103 C 
HETATM    5  O13         0      31.051  55.569 -20.849  1.00  0.00    -0.307 OA
HETATM    6  C14         0      32.233  55.362 -20.311  1.00  0.00     0.107 C 
HETATM    7  C15         0      33.120  54.431 -20.831  1.00  0.00     0.049 C 
HETATM    8  C16         0      34.248  54.034 -20.123  1.00  0.00     0.093 C 
HETATM    9  C18         0      34.707  54.953 -19.188  1.00  0.00     0.048 C 
HETATM   10  C19         0      33.859  55.928 -18.681  1.00  0.00     0.096 C 
HETATM   11  C21         0      32.564  55.995 -19.117  1.00  0.00     0.084 C 
ENDROOT
BRANCH  10  12
HETATM   12  O20         0      34.172  56.540 -17.471  1.00  0.00    -0.359 OA
HETATM   13  H20         0      34.261  55.988 -16.703  1.00  0.00     0.218 HD
ENDBRANCH  10  12
BRANCH   4  14
HETATM   14  C5          0      28.686  55.789 -20.517  1.00  0.00     0.025 C 
HETATM   15  C6          0      28.045  54.677 -19.989  1.00  0.00     0.004 C 
HETATM   16  C7          0      26.699  54.804 -19.663  1.00  0.00     0.026 C 
HETATM   17  C8          0      25.978  55.952 -19.974  1.00  0.00     0.112 C 
HETATM   18  C10         0      26.502  56.700 -21.020  1.00  0.00     0.112 C 
HETATM   19  C12         0      27.866  56.620 -21.270  1.00  0.00     0.028 C 
BRANCH  17  20
HETATM   20  O9          0      24.955  56.391 -19.152  1.00  0.00    -0.357 OA
HETATM   21  H9          0      24.156  56.793 -19.473  1.00  0.00     0.218 HD
ENDBRANCH  17  20
BRANCH  18  22
HETATM   22  O11         0      25.724  57.747 -21.495  1.00  0.00    -0.357 OA
HETATM   23  H11         0      25.011  58.039 -20.940  1.00  0.00     0.218 HD
ENDBRANCH  18  22
ENDBRANCH   4  14
BRANCH   8  24
HETATM   24  O17         0      34.669  52.699 -20.111  1.00  0.00    -0.359 OA
HETATM   25  H17         0      34.625  52.156 -20.889  1.00  0.00     0.218 HD
ENDBRANCH   8  24
TORSDOF 5
ENDMDL
MODEL 9
REMARK VINA RESULT:      -5.6     10.854     11.637
REMARK  5 active torsions:
REMARK  status: ('A' for Active; 'I' for Inactive)
REMARK    1  A    between atoms: C4_4  and  C5_5 
REMARK    2  A    between atoms: C8_8  and  O9_9 
REMARK    3  A    between atoms: C10_11  and  O11_12 
REMARK    4  A    between atoms: C16_18  and  O17_19 
REMARK    5  A    between atoms: C19_22  and  O20_23 
ROOT
HETATM    1  O1          0      26.960  57.730 -19.738  1.00  0.00    -0.286 OA
HETATM    2  C2          0      26.235  57.339 -20.694  1.00  0.00     0.201 C 
HETATM    3  C3          0      25.651  56.084 -20.727  1.00  0.00     0.067 C 
HETATM    4  C4          0      24.942  55.639 -21.837  1.00  0.00     0.103 C 
HETATM    5  O13         0      24.810  56.450 -22.872  1.00  0.00    -0.307 OA
HETATM    6  C14         0      25.376  57.636 -22.907  1.00  0.00     0.107 C 
HETATM    7  C15         0      25.584  58.312 -24.101  1.00  0.00     0.049 C 
HETATM    8  C16         0      26.402  59.434 -24.163  1.00  0.00     0.093 C 
HETATM    9  C18         0      26.542  60.124 -22.965  1.00  0.00     0.048 C 
HETATM   10  C19         0      26.296  59.492 -21.753  1.00  0.00     0.096 C 
HETATM   11  C21         0      25.896  58.183 -21.739  1.00  0.00     0.084 C 
ENDROOT
BRANCH  10  12
HETATM   12  O20         0      26.841  60.020 -20.587  1.00  0.00    -0.359 OA
HETATM   13  H20         0      27.777  60.178 -20.566  1.00  0.00     0.218 HD
ENDBRANCH  10  12
BRANCH   4  14
HETATM   14  C5          0      24.887  54.194 -22.062  1.00  0.00     0.025 C 
HETATM   15  C6          0      24.421  53.634 -23.242  1.00  0.00     0.004 C 
HETATM   16  C7          0      25.077  52.505 -23.723  1.00  0.00     0.026 C 
HETATM   17  C8          0      26.075  51.873 -22.989  1.00  0.00     0.112 C 
HETATM   18  C10         0      26.022  52.103 -21.621  1.00  0.00     0.112 C 
HETATM   19  C12         0      25.436  53.280 -21.171  1.00  0.00     0.028 C 
BRANCH  17  20
HETATM   20  O9          0      27.137  51.254 -23.624  1.00  0.00    -0.357 OA
HETATM   21  H9          0      27.381  51.418 -24.528  1.00  0.00     0.218 HD
ENDBRANCH  17  20
BRANCH  18  22
HETATM   22  O11         0      26.873  51.351 -20.824  1.00  0.00    -0.357 OA
HETATM   23  H11         0      27.802  51.405 -21.017  1.00  0.00     0.218 HD
ENDBRANCH  18  22
ENDBRANCH   4  14
BRANCH   8  24
HETATM   24  O17         0      27.269  59.646 -25.240  1.00  0.00    -0.359 OA
HETATM   25  H17         0      27.650  58.924 -25.724  1.00  0.00     0.218 HD
ENDBRANCH   8  24
TORSDOF 5
ENDMDL
