MODEL 1
REMARK VINA RESULT:      -4.3      0.000      0.000
REMARK  5 active torsions:
REMARK  status: ('A' for Active; 'I' for Inactive)
REMARK    1  A    between atoms: C4_4  and  C5_5 
REMARK    2  A    between atoms: C8_8  and  O9_9 
REMARK    3  A    between atoms: C10_11  and  O11_12 
REMARK    4  A    between atoms: C16_18  and  O17_19 
REMARK    5  A    between atoms: C19_22  and  O20_23 
ROOT
HETATM    1  O1          0      64.985  13.889 -14.342  1.00  0.00    -0.286 OA
HETATM    2  C2          0      65.331  14.420 -13.251  1.00  0.00     0.201 C 
HETATM    3  C3          0      66.536  14.140 -12.629  1.00  0.00     0.067 C 
HETATM    4  C4          0      66.848  14.659 -11.378  1.00  0.00     0.103 C 
HETATM    5  O13         0      65.975  15.455 -10.785  1.00  0.00    -0.307 OA
HETATM    6  C14         0      64.802  15.723 -11.315  1.00  0.00     0.107 C 
HETATM    7  C15         0      63.749  16.206 -10.551  1.00  0.00     0.049 C 
HETATM    8  C16         0      62.453  16.246 -11.052  1.00  0.00     0.093 C 
HETATM    9  C18         0      62.360  16.297 -12.437  1.00  0.00     0.048 C 
HETATM   10  C19         0      63.414  15.865 -13.231  1.00  0.00     0.096 C 
HETATM   11  C21         0      64.559  15.400 -12.645  1.00  0.00     0.084 C 
ENDROOT
BRANCH  10  12
HETATM   12  O20         0      63.168  15.511 -14.554  1.00  0.00    -0.359 OA
HETATM   13  H20         0      63.587  16.021 -15.237  1.00  0.00     0.218 HD
ENDBRANCH  10  12
BRANCH   4  14
HETATM   14  C5          0      67.780  13.893 -10.549  1.00  0.00     0.025 C 
HETATM   15  C6          0      67.608  12.545 -10.273  1.00  0.00     0.004 C 
HETATM   16  C7          0      68.745  11.744 -10.237  1.00  0.00     0.026 C 
HETATM   17  C8          0      70.022  12.285 -10.337  1.00  0.00     0.112 C 
HETATM   18  C10         0      70.115  13.623  -9.975  1.00  0.00     0.112 C 
HETATM   19  C12         0      68.985  14.421 -10.102  1.00  0.00     0.028 C 
BRANCH  17  20
HETATM   20  O9          0      71.043  11.583 -10.952  1.00  0.00    -0.357 OA
HETATM   21  H9          0      71.955  11.638 -10.689  1.00  0.00     0.218 HD
ENDBRANCH  17  20
BRANCH  18  22
HETATM   22  O11         0      71.391  14.160  -9.875  1.00  0.00    -0.357 OA
HETATM   23  H11         0      71.958  14.063 -10.631  1.00  0.00     0.218 HD
ENDBRANCH  18  22
ENDBRANCH   4  14
BRANCH   8  24
HETATM   24  O17         0      61.352  15.918 -10.252  1.00  0.00    -0.359 OA
HETATM   25  H17         0      60.466  15.931 -10.594  1.00  0.00     0.218 HD
ENDBRANCH   8  24
TORSDOF 5
ENDMDL
MODEL 2
REMARK VINA RESULT:      -4.3      1.447      6.685
REMARK  5 active torsions:
REMARK  status: ('A' for Active; 'I' for Inactive)
REMARK    1  A    between atoms: C4_4  and  C5_5 
REMARK    2  A    between atoms: C8_8  and  O9_9 
REMARK    3  A    between atoms: C10_11  and  O11_12 
REMARK    4  A    between atoms: C16_18  and  O17_19 
REMARK    5  A    between atoms: C19_22  and  O20_23 
ROOT
HETATM    1  O1          0      67.717  12.743 -14.494  1.00  0.00    -0.286 OA
HETATM    2  C2          0      67.210  13.152 -13.414  1.00  0.00     0.201 C 
HETATM    3  C3          0      65.936  13.687 -13.338  1.00  0.00     0.067 C 
HETATM    4  C4          0      65.440  14.225 -12.155  1.00  0.00     0.103 C 
HETATM    5  O13         0      66.205  14.201 -11.078  1.00  0.00    -0.307 OA
HETATM    6  C14         0      67.436  13.739 -11.104  1.00  0.00     0.107 C 
HETATM    7  C15         0      68.361  14.066 -10.124  1.00  0.00     0.049 C 
HETATM    8  C16         0      69.714  13.790 -10.286  1.00  0.00     0.093 C 
HETATM    9  C18         0      69.999  12.749 -11.162  1.00  0.00     0.048 C 
HETATM   10  C19         0      69.076  12.364 -12.125  1.00  0.00     0.096 C 
HETATM   11  C21         0      67.869  13.004 -12.203  1.00  0.00     0.084 C 
ENDROOT
BRANCH  10  12
HETATM   12  O20         0      69.513  11.657 -13.241  1.00  0.00    -0.359 OA
HETATM   13  H20         0      69.396  10.714 -13.244  1.00  0.00     0.218 HD
ENDBRANCH  10  12
BRANCH   4  14
HETATM   14  C5          0      64.416  15.265 -12.269  1.00  0.00     0.025 C 
HETATM   15  C6          0      64.077  15.857 -13.477  1.00  0.00     0.004 C 
HETATM   16  C7          0      62.735  16.149 -13.698  1.00  0.00     0.026 C 
HETATM   17  C8          0      61.779  15.983 -12.701  1.00  0.00     0.112 C 
HETATM   18  C10         0      62.281  16.007 -11.407  1.00  0.00     0.112 C 
HETATM   19  C12         0      63.602  15.628 -11.204  1.00  0.00     0.028 C 
BRANCH  17  20
HETATM   20  O9          0      60.483  15.614 -13.016  1.00  0.00    -0.357 OA
HETATM   21  H9          0      60.239  14.744 -13.311  1.00  0.00     0.218 HD
ENDBRANCH  17  20
BRANCH  18  22
HETATM   22  O11         0      61.354  16.035 -10.374  1.00  0.00    -0.357 OA
HETATM   23  H11         0      61.539  16.619  -9.647  1.00  0.00     0.218 HD
ENDBRANCH  18  22
ENDBRANCH   4  14
BRANCH   8  24
HETATM   24  O17         0      70.697  14.696  -9.875  1.00  0.00    -0.359 OA
HETATM   25  H17         0      70.660  15.615 -10.112  1.00  0.00     0.218 HD
ENDBRANCH   8  24
TORSDOF 5
ENDMDL
MODEL 3
REMARK VINA RESULT:      -4.3      2.022      6.724
REMARK  5 active torsions:
REMARK  status: ('A' for Active; 'I' for Inactive)
REMARK    1  A    between atoms: C4_4  and  C5_5 
REMARK    2  A    between atoms: C8_8  and  O9_9 
REMARK    3  A    between atoms: C10_11  and  O11_12 
REMARK    4  A    between atoms: C16_18  and  O17_19 
REMARK    5  A    between atoms: C19_22  and  O20_23 
ROOT
HETATM    1  O1          0      67.905  13.843  -9.876  1.00  0.00    -0.286 OA
HETATM    2  C2          0      67.451  14.132 -11.017  1.00  0.00     0.201 C 
HETATM    3  C3          0      66.463  15.082 -11.213  1.00  0.00     0.067 C 
HETATM    4  C4          0      65.908  15.307 -12.468  1.00  0.00     0.103 C 
HETATM    5  O13         0      66.355  14.607 -13.495  1.00  0.00    -0.307 OA
HETATM    6  C14         0      67.265  13.667 -13.357  1.00  0.00     0.107 C 
HETATM    7  C15         0      67.445  12.679 -14.315  1.00  0.00     0.049 C 
HETATM    8  C16         0      68.219  11.555 -14.054  1.00  0.00     0.093 C 
HETATM    9  C18         0      69.183  11.721 -13.067  1.00  0.00     0.048 C 
HETATM   10  C19         0      69.057  12.729 -12.121  1.00  0.00     0.096 C 
HETATM   11  C21         0      67.984  13.577 -12.171  1.00  0.00     0.084 C 
ENDROOT
BRANCH  10  12
HETATM   12  O20         0      69.751  12.625 -10.919  1.00  0.00    -0.359 OA
HETATM   13  H20         0      69.246  12.519 -10.122  1.00  0.00     0.218 HD
ENDBRANCH  10  12
BRANCH   4  14
HETATM   14  C5          0      64.539  15.827 -12.511  1.00  0.00     0.025 C 
HETATM   15  C6          0      63.450  15.047 -12.873  1.00  0.00     0.004 C 
HETATM   16  C7          0      62.258  15.245 -12.184  1.00  0.00     0.026 C 
HETATM   17  C8          0      62.113  16.274 -11.259  1.00  0.00     0.112 C 
HETATM   18  C10         0      62.988  17.338 -11.432  1.00  0.00     0.112 C 
HETATM   19  C12         0      64.210  17.094 -12.049  1.00  0.00     0.028 C 
BRANCH  17  20
HETATM   20  O9          0      61.303  16.119 -10.148  1.00  0.00    -0.357 OA
HETATM   21  H9          0      61.486  16.511  -9.302  1.00  0.00     0.218 HD
ENDBRANCH  17  20
BRANCH  18  22
HETATM   22  O11         0      62.763  18.468 -10.660  1.00  0.00    -0.357 OA
HETATM   23  H11         0      63.441  18.705 -10.036  1.00  0.00     0.218 HD
ENDBRANCH  18  22
ENDBRANCH   4  14
BRANCH   8  24
HETATM   24  O17         0      67.833  10.285 -14.499  1.00  0.00    -0.359 OA
HETATM   25  H17         0      68.284   9.848 -15.212  1.00  0.00     0.218 HD
ENDBRANCH   8  24
TORSDOF 5
ENDMDL
MODEL 4
REMARK VINA RESULT:      -4.2      3.447      6.435
REMARK  5 active torsions:
REMARK  status: ('A' for Active; 'I' for Inactive)
REMARK    1  A    between atoms: C4_4  and  C5_5 
REMARK    2  A    between atoms: C8_8  and  O9_9 
REMARK    3  A    between atoms: C10_11  and  O11_12 
REMARK    4  A    between atoms: C16_18  and  O17_19 
REMARK    5  A    between atoms: C19_22  and  O20_23 
ROOT
HETATM    1  O1          0      68.254  15.666 -14.833  1.00  0.00    -0.286 OA
HETATM    2  C2          0      67.107  15.181 -14.633  1.00  0.00     0.201 C 
HETATM    3  C3          0      66.231  15.689 -13.689  1.00  0.00     0.067 C 
HETATM    4  C4          0      65.014  15.073 -13.418  1.00  0.00     0.103 C 
HETATM    5  O13         0      64.686  13.989 -14.098  1.00  0.00    -0.307 OA
HETATM    6  C14         0      65.497  13.444 -14.979  1.00  0.00     0.107 C 
HETATM    7  C15         0      65.350  12.128 -15.391  1.00  0.00     0.049 C 
HETATM    8  C16         0      66.345  11.483 -16.117  1.00  0.00     0.093 C 
HETATM    9  C18         0      67.186  12.325 -16.835  1.00  0.00     0.048 C 
HETATM   10  C19         0      67.320  13.660 -16.478  1.00  0.00     0.096 C 
HETATM   11  C21         0      66.607  14.155 -15.421  1.00  0.00     0.084 C 
ENDROOT
BRANCH  10  12
HETATM   12  O20         0      68.446  14.364 -16.893  1.00  0.00    -0.359 OA
HETATM   13  H20         0      68.687  15.144 -16.408  1.00  0.00     0.218 HD
ENDBRANCH  10  12
BRANCH   4  14
HETATM   14  C5          0      64.451  15.263 -12.080  1.00  0.00     0.025 C 
HETATM   15  C6          0      65.194  15.745 -11.012  1.00  0.00     0.004 C 
HETATM   16  C7          0      64.564  16.614 -10.128  1.00  0.00     0.026 C 
HETATM   17  C8          0      63.204  16.891 -10.222  1.00  0.00     0.112 C 
HETATM   18  C10         0      62.458  15.918 -10.874  1.00  0.00     0.112 C 
HETATM   19  C12         0      63.095  15.118 -11.816  1.00  0.00     0.028 C 
BRANCH  17  20
HETATM   20  O9          0      62.708  18.135  -9.875  1.00  0.00    -0.357 OA
HETATM   21  H9          0      62.487  18.386  -8.986  1.00  0.00     0.218 HD
ENDBRANCH  17  20
BRANCH  18  22
HETATM   22  O11         0      61.078  16.050 -10.831  1.00  0.00    -0.357 OA
HETATM   23  H11         0      60.696  16.750 -11.348  1.00  0.00     0.218 HD
ENDBRANCH  18  22
ENDBRANCH   4  14
BRANCH   8  24
HETATM   24  O17         0      66.676  10.146 -15.872  1.00  0.00    -0.359 OA
HETATM   25  H17         0      67.580   9.859 -15.814  1.00  0.00     0.218 HD
ENDBRANCH   8  24
TORSDOF 5
ENDMDL
MODEL 5
REMARK VINA RESULT:      -4.1      2.149      6.359
REMARK  5 active torsions:
REMARK  status: ('A' for Active; 'I' for Inactive)
REMARK    1  A    between atoms: C4_4  and  C5_5 
REMARK    2  A    between atoms: C8_8  and  O9_9 
REMARK    3  A    between atoms: C10_11  and  O11_12 
REMARK    4  A    between atoms: C16_18  and  O17_19 
REMARK    5  A    between atoms: C19_22  and  O20_23 
ROOT
HETATM    1  O1          0      68.563  12.480 -11.324  1.00  0.00    -0.286 OA
HETATM    2  C2          0      67.719  13.224 -11.895  1.00  0.00     0.201 C 
HETATM    3  C3          0      67.071  14.260 -11.244  1.00  0.00     0.067 C 
HETATM    4  C4          0      66.072  14.999 -11.867  1.00  0.00     0.103 C 
HETATM    5  O13         0      65.754  14.712 -13.117  1.00  0.00    -0.307 OA
HETATM    6  C14         0      66.313  13.715 -13.768  1.00  0.00     0.107 C 
HETATM    7  C15         0      65.727  13.159 -14.896  1.00  0.00     0.049 C 
HETATM    8  C16         0      66.178  11.957 -15.427  1.00  0.00     0.093 C 
HETATM    9  C18         0      67.500  11.645 -15.130  1.00  0.00     0.048 C 
HETATM   10  C19         0      68.132  12.218 -14.035  1.00  0.00     0.096 C 
HETATM   11  C21         0      67.454  13.111 -13.251  1.00  0.00     0.084 C 
ENDROOT
BRANCH  10  12
HETATM   12  O20         0      69.255  11.599 -13.497  1.00  0.00    -0.359 OA
HETATM   13  H20         0      69.680  10.922 -14.011  1.00  0.00     0.218 HD
ENDBRANCH  10  12
BRANCH   4  14
HETATM   14  C5          0      65.059  15.615 -11.007  1.00  0.00     0.025 C 
HETATM   15  C6          0      65.366  16.571 -10.049  1.00  0.00     0.004 C 
HETATM   16  C7          0      64.469  17.620  -9.875  1.00  0.00     0.026 C 
HETATM   17  C8          0      63.244  17.648 -10.532  1.00  0.00     0.112 C 
HETATM   18  C10         0      62.774  16.406 -10.937  1.00  0.00     0.112 C 
HETATM   19  C12         0      63.699  15.399 -11.186  1.00  0.00     0.028 C 
BRANCH  17  20
HETATM   20  O9          0      62.675  18.848 -10.921  1.00  0.00    -0.357 OA
HETATM   21  H9          0      62.376  19.513 -10.311  1.00  0.00     0.218 HD
ENDBRANCH  17  20
BRANCH  18  22
HETATM   22  O11         0      61.476  16.353 -11.425  1.00  0.00    -0.357 OA
HETATM   23  H11         0      61.084  15.492 -11.512  1.00  0.00     0.218 HD
ENDBRANCH  18  22
ENDBRANCH   4  14
BRANCH   8  24
HETATM   24  O17         0      65.288  10.997 -15.919  1.00  0.00    -0.359 OA
HETATM   25  H17         0      65.491  10.069 -15.895  1.00  0.00     0.218 HD
ENDBRANCH   8  24
TORSDOF 5
ENDMDL
MODEL 6
REMARK VINA RESULT:      -4.1      2.892      7.054
REMARK  5 active torsions:
REMARK  status: ('A' for Active; 'I' for Inactive)
REMARK    1  A    between atoms: C4_4  and  C5_5 
REMARK    2  A    between atoms: C8_8  and  O9_9 
REMARK    3  A    between atoms: C10_11  and  O11_12 
REMARK    4  A    between atoms: C16_18  and  O17_19 
REMARK    5  A    between atoms: C19_22  and  O20_23 
ROOT
HETATM    1  O1          0      65.845  11.586 -16.594  1.00  0.00    -0.286 OA
HETATM    2  C2          0      66.108  12.161 -15.502  1.00  0.00     0.201 C 
HETATM    3  C3          0      65.163  12.874 -14.783  1.00  0.00     0.067 C 
HETATM    4  C4          0      65.503  13.584 -13.638  1.00  0.00     0.103 C 
HETATM    5  O13         0      66.757  13.555 -13.222  1.00  0.00    -0.307 OA
HETATM    6  C14         0      67.700  12.925 -13.887  1.00  0.00     0.107 C 
HETATM    7  C15         0      69.044  13.212 -13.698  1.00  0.00     0.049 C 
HETATM    8  C16         0      70.014  12.736 -14.573  1.00  0.00     0.093 C 
HETATM    9  C18         0      69.661  11.588 -15.271  1.00  0.00     0.048 C 
HETATM   10  C19         0      68.326  11.246 -15.440  1.00  0.00     0.096 C 
HETATM   11  C21         0      67.350  12.037 -14.899  1.00  0.00     0.084 C 
ENDROOT
BRANCH  10  12
HETATM   12  O20         0      67.970  10.383 -16.471  1.00  0.00    -0.359 OA
HETATM   13  H20         0      67.048  10.299 -16.682  1.00  0.00     0.218 HD
ENDBRANCH  10  12
BRANCH   4  14
HETATM   14  C5          0      64.673  14.741 -13.296  1.00  0.00     0.025 C 
HETATM   15  C6          0      64.305  15.703 -14.225  1.00  0.00     0.004 C 
HETATM   16  C7          0      63.020  16.227 -14.135  1.00  0.00     0.026 C 
HETATM   17  C8          0      62.174  15.907 -13.079  1.00  0.00     0.112 C 
HETATM   18  C10         0      62.820  15.480 -11.927  1.00  0.00     0.112 C 
HETATM   19  C12         0      64.068  14.882 -12.053  1.00  0.00     0.028 C 
BRANCH  17  20
HETATM   20  O9          0      60.805  15.828 -13.266  1.00  0.00    -0.357 OA
HETATM   21  H9          0      60.204  15.467 -12.624  1.00  0.00     0.218 HD
ENDBRANCH  17  20
BRANCH  18  22
HETATM   22  O11         0      62.041  15.329 -10.788  1.00  0.00    -0.357 OA
HETATM   23  H11         0      62.362  14.731 -10.124  1.00  0.00     0.218 HD
ENDBRANCH  18  22
ENDBRANCH   4  14
BRANCH   8  24
HETATM   24  O17         0      71.097  13.531 -14.962  1.00  0.00    -0.359 OA
HETATM   25  H17         0      71.955  13.158 -15.129  1.00  0.00     0.218 HD
ENDBRANCH   8  24
TORSDOF 5
ENDMDL
MODEL 7
REMARK VINA RESULT:      -4.0      2.865      5.474
REMARK  5 active torsions:
REMARK  status: ('A' for Active; 'I' for Inactive)
REMARK    1  A    between atoms: C4_4  and  C5_5 
REMARK    2  A    between atoms: C8_8  and  O9_9 
REMARK    3  A    between atoms: C10_11  and  O11_12 
REMARK    4  A    between atoms: C16_18  and  O17_19 
REMARK    5  A    between atoms: C19_22  and  O20_23 
ROOT
HETATM    1  O1          0      67.110  15.248 -11.343  1.00  0.00    -0.286 OA
HETATM    2  C2          0      66.223  14.786 -12.111  1.00  0.00     0.201 C 
HETATM    3  C3          0      66.502  13.877 -13.118  1.00  0.00     0.067 C 
HETATM    4  C4          0      65.524  13.462 -14.016  1.00  0.00     0.103 C 
HETATM    5  O13         0      64.299  13.938 -13.884  1.00  0.00    -0.307 OA
HETATM    6  C14         0      63.990  14.831 -12.970  1.00  0.00     0.107 C 
HETATM    7  C15         0      62.851  15.617 -13.071  1.00  0.00     0.049 C 
HETATM    8  C16         0      62.662  16.722 -12.250  1.00  0.00     0.093 C 
HETATM    9  C18         0      63.346  16.679 -11.041  1.00  0.00     0.048 C 
HETATM   10  C19         0      64.462  15.868 -10.890  1.00  0.00     0.096 C 
HETATM   11  C21         0      64.882  15.091 -11.935  1.00  0.00     0.084 C 
ENDROOT
BRANCH  10  12
HETATM   12  O20         0      65.372  16.145  -9.876  1.00  0.00    -0.359 OA
HETATM   13  H20         0      65.053  16.591  -9.101  1.00  0.00     0.218 HD
ENDBRANCH  10  12
BRANCH   4  14
HETATM   14  C5          0      65.973  13.026 -15.339  1.00  0.00     0.025 C 
HETATM   15  C6          0      66.924  12.033 -15.521  1.00  0.00     0.004 C 
HETATM   16  C7          0      66.740  11.150 -16.580  1.00  0.00     0.026 C 
HETATM   17  C8          0      65.719  11.326 -17.508  1.00  0.00     0.112 C 
HETATM   18  C10         0      65.251  12.629 -17.614  1.00  0.00     0.112 C 
HETATM   19  C12         0      65.372  13.466 -16.511  1.00  0.00     0.028 C 
BRANCH  17  20
HETATM   20  O9          0      65.101  10.238 -18.098  1.00  0.00    -0.357 OA
HETATM   21  H9          0      64.541   9.630 -17.629  1.00  0.00     0.218 HD
ENDBRANCH  17  20
BRANCH  18  22
HETATM   22  O11         0      64.370  12.898 -18.652  1.00  0.00    -0.357 OA
HETATM   23  H11         0      63.474  12.599 -18.543  1.00  0.00     0.218 HD
ENDBRANCH  18  22
ENDBRANCH   4  14
BRANCH   8  24
HETATM   24  O17         0      62.112  17.911 -12.743  1.00  0.00    -0.359 OA
HETATM   25  H17         0      62.405  18.761 -12.437  1.00  0.00     0.218 HD
ENDBRANCH   8  24
TORSDOF 5
ENDMDL
MODEL 8
REMARK VINA RESULT:      -3.9      2.193      2.755
REMARK  5 active torsions:
REMARK  status: ('A' for Active; 'I' for Inactive)
REMARK    1  A    between atoms: C4_4  and  C5_5 
REMARK    2  A    between atoms: C8_8  and  O9_9 
REMARK    3  A    between atoms: C10_11  and  O11_12 
REMARK    4  A    between atoms: C16_18  and  O17_19 
REMARK    5  A    between atoms: C19_22  and  O20_23 
ROOT
HETATM    1  O1          0      64.620  15.333 -16.226  1.00  0.00    -0.286 OA
HETATM    2  C2          0      65.130  15.312 -15.072  1.00  0.00     0.201 C 
HETATM    3  C3          0      66.430  14.903 -14.833  1.00  0.00     0.067 C 
HETATM    4  C4          0      66.933  14.792 -13.542  1.00  0.00     0.103 C 
HETATM    5  O13         0      66.149  15.106 -12.526  1.00  0.00    -0.307 OA
HETATM    6  C14         0      64.895  15.465 -12.695  1.00  0.00     0.107 C 
HETATM    7  C15         0      63.973  15.406 -11.661  1.00  0.00     0.049 C 
HETATM    8  C16         0      62.610  15.538 -11.902  1.00  0.00     0.093 C 
HETATM    9  C18         0      62.283  16.235 -13.058  1.00  0.00     0.048 C 
HETATM   10  C19         0      63.200  16.353 -14.094  1.00  0.00     0.096 C 
HETATM   11  C21         0      64.442  15.793 -13.968  1.00  0.00     0.084 C 
ENDROOT
BRANCH  10  12
HETATM   12  O20         0      62.745  16.650 -15.375  1.00  0.00    -0.359 OA
HETATM   13  H20         0      61.880  17.032 -15.463  1.00  0.00     0.218 HD
ENDBRANCH  10  12
BRANCH   4  14
HETATM   14  C5          0      68.016  13.830 -13.325  1.00  0.00     0.025 C 
HETATM   15  C6          0      68.418  13.423 -12.062  1.00  0.00     0.004 C 
HETATM   16  C7          0      68.773  12.088 -11.898  1.00  0.00     0.026 C 
HETATM   17  C8          0      68.856  11.217 -12.979  1.00  0.00     0.112 C 
HETATM   18  C10         0      69.061  11.833 -14.206  1.00  0.00     0.112 C 
HETATM   19  C12         0      68.619  13.141 -14.369  1.00  0.00     0.028 C 
BRANCH  17  20
HETATM   20  O9          0      68.542   9.877 -12.835  1.00  0.00    -0.357 OA
HETATM   21  H9          0      67.682   9.514 -13.015  1.00  0.00     0.218 HD
ENDBRANCH  17  20
BRANCH  18  22
HETATM   22  O11         0      69.339  11.007 -15.285  1.00  0.00    -0.357 OA
HETATM   23  H11         0      69.835  10.217 -15.106  1.00  0.00     0.218 HD
ENDBRANCH  18  22
ENDBRANCH   4  14
BRANCH   8  24
HETATM   24  O17         0      61.671  14.750 -11.227  1.00  0.00    -0.359 OA
HETATM   25  H17         0      60.914  14.386 -11.671  1.00  0.00     0.218 HD
ENDBRANCH   8  24
TORSDOF 5
ENDMDL
MODEL 9
REMARK VINA RESULT:      -3.7      3.900      6.795
REMARK  5 active torsions:
REMARK  status: ('A' for Active; 'I' for Inactive)
REMARK    1  A    between atoms: C4_4  and  C5_5 
REMARK    2  A    between atoms: C8_8  and  O9_9 
REMARK    3  A    between atoms: C10_11  and  O11_12 
REMARK    4  A    between atoms: C16_18  and  O17_19 
REMARK    5  A    between atoms: C19_22  and  O20_23 
ROOT
HETATM    1  O1          0      68.158  15.490 -16.828  1.00  0.00    -0.286 OA
HETATM    2  C2          0      67.037  15.030 -16.478  1.00  0.00     0.201 C 
HETATM    3  C3          0      66.094  15.786 -15.802  1.00  0.00     0.067 C 
HETATM    4  C4          0      64.909  15.226 -15.338  1.00  0.00     0.103 C 
HETATM    5  O13         0      64.678  13.946 -15.569  1.00  0.00    -0.307 OA
HETATM    6  C14         0      65.556  13.175 -16.173  1.00  0.00     0.107 C 
HETATM    7  C15         0      65.510  11.793 -16.067  1.00  0.00     0.049 C 
HETATM    8  C16         0      66.572  11.001 -16.486  1.00  0.00     0.093 C 
HETATM    9  C18         0      67.385  11.575 -17.455  1.00  0.00     0.048 C 
HETATM   10  C19         0      67.421  12.953 -17.620  1.00  0.00     0.096 C 
HETATM   11  C21         0      66.635  13.751 -16.833  1.00  0.00     0.084 C 
ENDROOT
BRANCH  10  12
HETATM   12  O20         0      68.515  13.535 -18.252  1.00  0.00    -0.359 OA
HETATM   13  H20         0      68.823  14.373 -17.928  1.00  0.00     0.218 HD
ENDBRANCH  10  12
BRANCH   4  14
HETATM   14  C5          0      64.282  15.857 -14.175  1.00  0.00     0.025 C 
HETATM   15  C6          0      63.006  16.401 -14.211  1.00  0.00     0.004 C 
HETATM   16  C7          0      62.201  16.233 -13.090  1.00  0.00     0.026 C 
HETATM   17  C8          0      62.689  15.661 -11.920  1.00  0.00     0.112 C 
HETATM   18  C10         0      64.067  15.740 -11.768  1.00  0.00     0.112 C 
HETATM   19  C12         0      64.855  15.822 -12.910  1.00  0.00     0.028 C 
BRANCH  17  20
HETATM   20  O9          0      61.869  14.899 -11.107  1.00  0.00    -0.357 OA
HETATM   21  H9          0      60.920  14.927 -11.140  1.00  0.00     0.218 HD
ENDBRANCH  17  20
BRANCH  18  22
HETATM   22  O11         0      64.587  15.357 -10.539  1.00  0.00    -0.357 OA
HETATM   23  H11         0      64.858  16.053  -9.951  1.00  0.00     0.218 HD
ENDBRANCH  18  22
ENDBRANCH   4  14
BRANCH   8  24
HETATM   24  O17         0      66.978   9.878 -15.756  1.00  0.00    -0.359 OA
HETATM   25  H17         0      66.523   9.605 -14.968  1.00  0.00     0.218 HD
ENDBRANCH   8  24
TORSDOF 5
ENDMDL
