MODEL 1
REMARK VINA RESULT:      -5.7      0.000      0.000
REMARK  5 active torsions:
REMARK  status: ('A' for Active; 'I' for Inactive)
REMARK    1  A    between atoms: C4_4  and  C5_5 
REMARK    2  A    between atoms: C8_8  and  O9_9 
REMARK    3  A    between atoms: C10_11  and  O11_12 
REMARK    4  A    between atoms: C16_18  and  O17_19 
REMARK    5  A    between atoms: C19_22  and  O20_23 
ROOT
HETATM    1  O1          0      54.658  24.222  -8.552  1.00  0.00    -0.286 OA
HETATM    2  C2          0      55.841  24.204  -8.115  1.00  0.00     0.201 C 
HETATM    3  C3          0      56.532  23.030  -7.867  1.00  0.00     0.067 C 
HETATM    4  C4          0      57.796  23.036  -7.290  1.00  0.00     0.103 C 
HETATM    5  O13         0      58.353  24.198  -6.994  1.00  0.00    -0.307 OA
HETATM    6  C14         0      57.726  25.340  -7.174  1.00  0.00     0.107 C 
HETATM    7  C15         0      58.114  26.498  -6.517  1.00  0.00     0.049 C 
HETATM    8  C16         0      57.306  27.629  -6.510  1.00  0.00     0.093 C 
HETATM    9  C18         0      56.419  27.723  -7.576  1.00  0.00     0.048 C 
HETATM   10  C19         0      56.046  26.590  -8.286  1.00  0.00     0.096 C 
HETATM   11  C21         0      56.568  25.372  -7.943  1.00  0.00     0.084 C 
ENDROOT
BRANCH  10  12
HETATM   12  O20         0      54.871  26.610  -9.031  1.00  0.00    -0.359 OA
HETATM   13  H20         0      54.920  26.903  -9.932  1.00  0.00     0.218 HD
ENDBRANCH  10  12
BRANCH   4  14
HETATM   14  C5          0      58.191  21.851  -6.526  1.00  0.00     0.025 C 
HETATM   15  C6          0      57.584  21.489  -5.332  1.00  0.00     0.004 C 
HETATM   16  C7          0      57.377  20.134  -5.099  1.00  0.00     0.026 C 
HETATM   17  C8          0      57.876  19.161  -5.959  1.00  0.00     0.112 C 
HETATM   18  C10         0      58.961  19.566  -6.725  1.00  0.00     0.112 C 
HETATM   19  C12         0      59.097  20.918  -7.015  1.00  0.00     0.028 C 
BRANCH  17  20
HETATM   20  O9          0      57.191  17.976  -6.163  1.00  0.00    -0.357 OA
HETATM   21  H9          0      56.746  17.498  -5.472  1.00  0.00     0.218 HD
ENDBRANCH  17  20
BRANCH  18  22
HETATM   22  O11         0      59.614  18.585  -7.458  1.00  0.00    -0.357 OA
HETATM   23  H11         0      59.981  17.857  -6.970  1.00  0.00     0.218 HD
ENDBRANCH  18  22
ENDBRANCH   4  14
BRANCH   8  24
HETATM   24  O17         0      57.162  28.416  -5.362  1.00  0.00    -0.359 OA
HETATM   25  H17         0      57.108  29.363  -5.410  1.00  0.00     0.218 HD
ENDBRANCH   8  24
TORSDOF 5
ENDMDL
MODEL 2
REMARK VINA RESULT:      -5.6      2.245      2.644
REMARK  5 active torsions:
REMARK  status: ('A' for Active; 'I' for Inactive)
REMARK    1  A    between atoms: C4_4  and  C5_5 
REMARK    2  A    between atoms: C8_8  and  O9_9 
REMARK    3  A    between atoms: C10_11  and  O11_12 
REMARK    4  A    between atoms: C16_18  and  O17_19 
REMARK    5  A    between atoms: C19_22  and  O20_23 
ROOT
HETATM    1  O1          0      55.102  25.012  -6.874  1.00  0.00    -0.286 OA
HETATM    2  C2          0      56.360  25.007  -6.775  1.00  0.00     0.201 C 
HETATM    3  C3          0      57.082  23.872  -6.450  1.00  0.00     0.067 C 
HETATM    4  C4          0      58.457  23.917  -6.246  1.00  0.00     0.103 C 
HETATM    5  O13         0      59.082  25.073  -6.387  1.00  0.00    -0.307 OA
HETATM    6  C14         0      58.439  26.187  -6.658  1.00  0.00     0.107 C 
HETATM    7  C15         0      59.001  27.432  -6.416  1.00  0.00     0.049 C 
HETATM    8  C16         0      58.234  28.591  -6.461  1.00  0.00     0.093 C 
HETATM    9  C18         0      57.091  28.508  -7.246  1.00  0.00     0.048 C 
HETATM   10  C19         0      56.528  27.275  -7.546  1.00  0.00     0.096 C 
HETATM   11  C21         0      57.115  26.130  -7.079  1.00  0.00     0.084 C 
ENDROOT
BRANCH  10  12
HETATM   12  O20         0      55.195  27.212  -7.937  1.00  0.00    -0.359 OA
HETATM   13  H20         0      54.562  26.880  -7.311  1.00  0.00     0.218 HD
ENDBRANCH  10  12
BRANCH   4  14
HETATM   14  C5          0      59.036  22.907  -5.358  1.00  0.00     0.025 C 
HETATM   15  C6          0      60.125  23.162  -4.538  1.00  0.00     0.004 C 
HETATM   16  C7          0      60.125  22.589  -3.270  1.00  0.00     0.026 C 
HETATM   17  C8          0      59.143  21.686  -2.877  1.00  0.00     0.112 C 
HETATM   18  C10         0      58.505  21.032  -3.923  1.00  0.00     0.112 C 
HETATM   19  C12         0      58.446  21.665  -5.159  1.00  0.00     0.028 C 
BRANCH  17  20
HETATM   20  O9          0      58.718  21.628  -1.562  1.00  0.00    -0.357 OA
HETATM   21  H9          0      59.214  21.977  -0.831  1.00  0.00     0.218 HD
ENDBRANCH  17  20
BRANCH  18  22
HETATM   22  O11         0      57.655  19.988  -3.587  1.00  0.00    -0.357 OA
HETATM   23  H11         0      56.795  20.223  -3.258  1.00  0.00     0.218 HD
ENDBRANCH  18  22
ENDBRANCH   4  14
BRANCH   8  24
HETATM   24  O17         0      58.416  29.622  -5.533  1.00  0.00    -0.359 OA
HETATM   25  H17         0      57.762  30.298  -5.404  1.00  0.00     0.218 HD
ENDBRANCH   8  24
TORSDOF 5
ENDMDL
MODEL 3
REMARK VINA RESULT:      -5.6      1.473      2.875
REMARK  5 active torsions:
REMARK  status: ('A' for Active; 'I' for Inactive)
REMARK    1  A    between atoms: C4_4  and  C5_5 
REMARK    2  A    between atoms: C8_8  and  O9_9 
REMARK    3  A    between atoms: C10_11  and  O11_12 
REMARK    4  A    between atoms: C16_18  and  O17_19 
REMARK    5  A    between atoms: C19_22  and  O20_23 
ROOT
HETATM    1  O1          0      58.448  25.913  -7.282  1.00  0.00    -0.286 OA
HETATM    2  C2          0      57.626  24.986  -7.048  1.00  0.00     0.201 C 
HETATM    3  C3          0      57.899  23.942  -6.181  1.00  0.00     0.067 C 
HETATM    4  C4          0      57.017  22.879  -6.020  1.00  0.00     0.103 C 
HETATM    5  O13         0      55.883  22.886  -6.699  1.00  0.00    -0.307 OA
HETATM    6  C14         0      55.592  23.834  -7.563  1.00  0.00     0.107 C 
HETATM    7  C15         0      54.632  23.655  -8.549  1.00  0.00     0.049 C 
HETATM    8  C16         0      54.508  24.549  -9.605  1.00  0.00     0.093 C 
HETATM    9  C18         0      54.979  25.831  -9.348  1.00  0.00     0.048 C 
HETATM   10  C19         0      55.905  26.053  -8.338  1.00  0.00     0.096 C 
HETATM   11  C21         0      56.344  25.004  -7.578  1.00  0.00     0.084 C 
ENDROOT
BRANCH  10  12
HETATM   12  O20         0      56.681  27.207  -8.368  1.00  0.00    -0.359 OA
HETATM   13  H20         0      56.235  28.045  -8.339  1.00  0.00     0.218 HD
ENDBRANCH  10  12
BRANCH   4  14
HETATM   14  C5          0      57.585  21.594  -5.609  1.00  0.00     0.025 C 
HETATM   15  C6          0      57.067  20.842  -4.564  1.00  0.00     0.004 C 
HETATM   16  C7          0      57.045  19.459  -4.714  1.00  0.00     0.026 C 
HETATM   17  C8          0      57.638  18.834  -5.805  1.00  0.00     0.112 C 
HETATM   18  C10         0      58.637  19.573  -6.424  1.00  0.00     0.112 C 
HETATM   19  C12         0      58.588  20.959  -6.330  1.00  0.00     0.028 C 
BRANCH  17  20
HETATM   20  O9          0      57.106  17.670  -6.331  1.00  0.00    -0.357 OA
HETATM   21  H9          0      57.561  16.835  -6.332  1.00  0.00     0.218 HD
ENDBRANCH  17  20
BRANCH  18  22
HETATM   22  O11         0      59.389  18.926  -7.394  1.00  0.00    -0.357 OA
HETATM   23  H11         0      59.383  19.304  -8.266  1.00  0.00     0.218 HD
ENDBRANCH  18  22
ENDBRANCH   4  14
BRANCH   8  24
HETATM   24  O17         0      54.250  24.107 -10.908  1.00  0.00    -0.359 OA
HETATM   25  H17         0      53.909  23.238 -11.081  1.00  0.00     0.218 HD
ENDBRANCH   8  24
TORSDOF 5
ENDMDL
MODEL 4
REMARK VINA RESULT:      -5.2      9.933     11.773
REMARK  5 active torsions:
REMARK  status: ('A' for Active; 'I' for Inactive)
REMARK    1  A    between atoms: C4_4  and  C5_5 
REMARK    2  A    between atoms: C8_8  and  O9_9 
REMARK    3  A    between atoms: C10_11  and  O11_12 
REMARK    4  A    between atoms: C16_18  and  O17_19 
REMARK    5  A    between atoms: C19_22  and  O20_23 
ROOT
HETATM    1  O1          0      48.993  19.631  -3.199  1.00  0.00    -0.286 OA
HETATM    2  C2          0      48.042  19.754  -4.019  1.00  0.00     0.201 C 
HETATM    3  C3          0      48.155  19.416  -5.356  1.00  0.00     0.067 C 
HETATM    4  C4          0      47.126  19.657  -6.259  1.00  0.00     0.103 C 
HETATM    5  O13         0      46.008  20.205  -5.815  1.00  0.00    -0.307 OA
HETATM    6  C14         0      45.862  20.580  -4.563  1.00  0.00     0.107 C 
HETATM    7  C15         0      44.890  21.493  -4.181  1.00  0.00     0.049 C 
HETATM    8  C16         0      44.902  22.075  -2.919  1.00  0.00     0.093 C 
HETATM    9  C18         0      45.556  21.338  -1.939  1.00  0.00     0.048 C 
HETATM   10  C19         0      46.502  20.383  -2.288  1.00  0.00     0.096 C 
HETATM   11  C21         0      46.779  20.153  -3.608  1.00  0.00     0.084 C 
ENDROOT
BRANCH  10  12
HETATM   12  O20         0      47.440  19.978  -1.344  1.00  0.00    -0.359 OA
HETATM   13  H20         0      47.343  19.113  -0.963  1.00  0.00     0.218 HD
ENDBRANCH  10  12
BRANCH   4  14
HETATM   14  C5          0      47.496  19.850  -7.662  1.00  0.00     0.025 C 
HETATM   15  C6          0      46.560  20.052  -8.666  1.00  0.00     0.004 C 
HETATM   16  C7          0      46.879  20.959  -9.671  1.00  0.00     0.026 C 
HETATM   17  C8          0      48.137  21.547  -9.752  1.00  0.00     0.112 C 
HETATM   18  C10         0      49.151  20.833  -9.128  1.00  0.00     0.112 C 
HETATM   19  C12         0      48.816  19.997  -8.070  1.00  0.00     0.028 C 
BRANCH  17  20
HETATM   20  O9          0      48.287  22.836 -10.233  1.00  0.00    -0.357 OA
HETATM   21  H9          0      48.585  23.039 -11.112  1.00  0.00     0.218 HD
ENDBRANCH  17  20
BRANCH  18  22
HETATM   22  O11         0      50.450  21.273  -9.338  1.00  0.00    -0.357 OA
HETATM   23  H11         0      50.938  20.856 -10.039  1.00  0.00     0.218 HD
ENDBRANCH  18  22
ENDBRANCH   4  14
BRANCH   8  24
HETATM   24  O17         0      44.587  23.426  -2.736  1.00  0.00    -0.359 OA
HETATM   25  H17         0      45.176  24.118  -3.012  1.00  0.00     0.218 HD
ENDBRANCH   8  24
TORSDOF 5
ENDMDL
MODEL 5
REMARK VINA RESULT:      -5.2     11.896     14.789
REMARK  5 active torsions:
REMARK  status: ('A' for Active; 'I' for Inactive)
REMARK    1  A    between atoms: C4_4  and  C5_5 
REMARK    2  A    between atoms: C8_8  and  O9_9 
REMARK    3  A    between atoms: C10_11  and  O11_12 
REMARK    4  A    between atoms: C16_18  and  O17_19 
REMARK    5  A    between atoms: C19_22  and  O20_23 
ROOT
HETATM    1  O1          0      43.400  15.959  -1.151  1.00  0.00    -0.286 OA
HETATM    2  C2          0      44.635  16.158  -1.309  1.00  0.00     0.201 C 
HETATM    3  C3          0      45.153  17.373  -1.724  1.00  0.00     0.067 C 
HETATM    4  C4          0      46.508  17.536  -1.990  1.00  0.00     0.103 C 
HETATM    5  O13         0      47.316  16.505  -1.820  1.00  0.00    -0.307 OA
HETATM    6  C14         0      46.872  15.319  -1.463  1.00  0.00     0.107 C 
HETATM    7  C15         0      47.617  14.167  -1.667  1.00  0.00     0.049 C 
HETATM    8  C16         0      47.050  12.906  -1.529  1.00  0.00     0.093 C 
HETATM    9  C18         0      45.939  12.851  -0.696  1.00  0.00     0.048 C 
HETATM   10  C19         0      45.197  13.995  -0.433  1.00  0.00     0.096 C 
HETATM   11  C21         0      45.573  15.189  -0.984  1.00  0.00     0.084 C 
ENDROOT
BRANCH  10  12
HETATM   12  O20         0      43.886  13.867   0.016  1.00  0.00    -0.359 OA
HETATM   13  H20         0      43.529  12.991   0.104  1.00  0.00     0.218 HD
ENDBRANCH  10  12
BRANCH   4  14
HETATM   14  C5          0      46.882  18.573  -2.953  1.00  0.00     0.025 C 
HETATM   15  C6          0      46.814  19.928  -2.664  1.00  0.00     0.004 C 
HETATM   16  C7          0      47.824  20.745  -3.161  1.00  0.00     0.026 C 
HETATM   17  C8          0      48.796  20.257  -4.028  1.00  0.00     0.112 C 
HETATM   18  C10         0      48.426  19.121  -4.734  1.00  0.00     0.112 C 
HETATM   19  C12         0      47.474  18.276  -4.174  1.00  0.00     0.028 C 
BRANCH  17  20
HETATM   20  O9          0      50.085  20.760  -4.003  1.00  0.00    -0.357 OA
HETATM   21  H9          0      50.495  21.199  -4.739  1.00  0.00     0.218 HD
ENDBRANCH  17  20
BRANCH  18  22
HETATM   22  O11         0      49.279  18.703  -5.746  1.00  0.00    -0.357 OA
HETATM   23  H11         0      49.287  19.222  -6.542  1.00  0.00     0.218 HD
ENDBRANCH  18  22
ENDBRANCH   4  14
BRANCH   8  24
HETATM   24  O17         0      47.361  11.866  -2.411  1.00  0.00    -0.359 OA
HETATM   25  H17         0      48.070  11.258  -2.236  1.00  0.00     0.218 HD
ENDBRANCH   8  24
TORSDOF 5
ENDMDL
MODEL 6
REMARK VINA RESULT:      -5.0      9.556     11.106
REMARK  5 active torsions:
REMARK  status: ('A' for Active; 'I' for Inactive)
REMARK    1  A    between atoms: C4_4  and  C5_5 
REMARK    2  A    between atoms: C8_8  and  O9_9 
REMARK    3  A    between atoms: C10_11  and  O11_12 
REMARK    4  A    between atoms: C16_18  and  O17_19 
REMARK    5  A    between atoms: C19_22  and  O20_23 
ROOT
HETATM    1  O1          0      44.690  20.987  -7.791  1.00  0.00    -0.286 OA
HETATM    2  C2          0      45.812  20.411  -7.731  1.00  0.00     0.201 C 
HETATM    3  C3          0      46.223  19.682  -6.628  1.00  0.00     0.067 C 
HETATM    4  C4          0      47.503  19.145  -6.547  1.00  0.00     0.103 C 
HETATM    5  O13         0      48.332  19.322  -7.560  1.00  0.00    -0.307 OA
HETATM    6  C14         0      48.004  20.038  -8.614  1.00  0.00     0.107 C 
HETATM    7  C15         0      48.963  20.558  -9.471  1.00  0.00     0.049 C 
HETATM    8  C16         0      48.636  21.514 -10.425  1.00  0.00     0.093 C 
HETATM    9  C18         0      47.305  21.514 -10.824  1.00  0.00     0.048 C 
HETATM   10  C19         0      46.325  20.959 -10.011  1.00  0.00     0.096 C 
HETATM   11  C21         0      46.675  20.393  -8.816  1.00  0.00     0.084 C 
ENDROOT
BRANCH  10  12
HETATM   12  O20         0      44.999  21.338 -10.190  1.00  0.00    -0.359 OA
HETATM   13  H20         0      44.497  20.897 -10.865  1.00  0.00     0.218 HD
ENDBRANCH  10  12
BRANCH   4  14
HETATM   14  C5          0      48.060  18.941  -5.208  1.00  0.00     0.025 C 
HETATM   15  C6          0      49.054  19.750  -4.676  1.00  0.00     0.004 C 
HETATM   16  C7          0      48.975  20.063  -3.323  1.00  0.00     0.026 C 
HETATM   17  C8          0      48.018  19.485  -2.495  1.00  0.00     0.112 C 
HETATM   18  C10         0      47.517  18.272  -2.947  1.00  0.00     0.112 C 
HETATM   19  C12         0      47.531  18.020  -4.314  1.00  0.00     0.028 C 
BRANCH  17  20
HETATM   20  O9          0      47.481  20.191  -1.433  1.00  0.00    -0.357 OA
HETATM   21  H9          0      46.709  19.915  -0.953  1.00  0.00     0.218 HD
ENDBRANCH  17  20
BRANCH  18  22
HETATM   22  O11         0      46.705  17.563  -2.074  1.00  0.00    -0.357 OA
HETATM   23  H11         0      46.948  16.662  -1.895  1.00  0.00     0.218 HD
ENDBRANCH  18  22
ENDBRANCH   4  14
BRANCH   8  24
HETATM   24  O17         0      49.487  22.591 -10.699  1.00  0.00    -0.359 OA
HETATM   25  H17         0      50.335  22.466 -11.108  1.00  0.00     0.218 HD
ENDBRANCH   8  24
TORSDOF 5
ENDMDL
MODEL 7
REMARK VINA RESULT:      -5.0     11.780     12.961
REMARK  5 active torsions:
REMARK  status: ('A' for Active; 'I' for Inactive)
REMARK    1  A    between atoms: C4_4  and  C5_5 
REMARK    2  A    between atoms: C8_8  and  O9_9 
REMARK    3  A    between atoms: C10_11  and  O11_12 
REMARK    4  A    between atoms: C16_18  and  O17_19 
REMARK    5  A    between atoms: C19_22  and  O20_23 
ROOT
HETATM    1  O1          0      44.045  22.981  -0.683  1.00  0.00    -0.286 OA
HETATM    2  C2          0      44.215  22.355  -1.765  1.00  0.00     0.201 C 
HETATM    3  C3          0      45.074  21.275  -1.881  1.00  0.00     0.067 C 
HETATM    4  C4          0      45.319  20.668  -3.107  1.00  0.00     0.103 C 
HETATM    5  O13         0      44.698  21.127  -4.179  1.00  0.00    -0.307 OA
HETATM    6  C14         0      43.901  22.173  -4.131  1.00  0.00     0.107 C 
HETATM    7  C15         0      43.572  22.894  -5.270  1.00  0.00     0.049 C 
HETATM    8  C16         0      42.947  24.132  -5.184  1.00  0.00     0.093 C 
HETATM    9  C18         0      42.220  24.343  -4.019  1.00  0.00     0.048 C 
HETATM   10  C19         0      42.492  23.606  -2.874  1.00  0.00     0.096 C 
HETATM   11  C21         0      43.472  22.652  -2.898  1.00  0.00     0.084 C 
ENDROOT
BRANCH  10  12
HETATM   12  O20         0      42.091  24.099  -1.636  1.00  0.00    -0.359 OA
HETATM   13  H20         0      41.169  24.053  -1.416  1.00  0.00     0.218 HD
ENDBRANCH  10  12
BRANCH   4  14
HETATM   14  C5          0      46.609  19.995  -3.275  1.00  0.00     0.025 C 
HETATM   15  C6          0      46.719  18.655  -3.617  1.00  0.00     0.004 C 
HETATM   16  C7          0      47.738  18.294  -4.492  1.00  0.00     0.026 C 
HETATM   17  C8          0      48.699  19.209  -4.909  1.00  0.00     0.112 C 
HETATM   18  C10         0      48.880  20.289  -4.056  1.00  0.00     0.112 C 
HETATM   19  C12         0      47.816  20.682  -3.252  1.00  0.00     0.028 C 
BRANCH  17  20
HETATM   20  O9          0      49.252  19.129  -6.175  1.00  0.00    -0.357 OA
HETATM   21  H9          0      50.162  18.911  -6.340  1.00  0.00     0.218 HD
ENDBRANCH  17  20
BRANCH  18  22
HETATM   22  O11         0      49.951  21.129  -4.324  1.00  0.00    -0.357 OA
HETATM   23  H11         0      49.883  22.026  -4.016  1.00  0.00     0.218 HD
ENDBRANCH  18  22
ENDBRANCH   4  14
BRANCH   8  24
HETATM   24  O17         0      43.300  25.187  -6.032  1.00  0.00    -0.359 OA
HETATM   25  H17         0      43.978  25.810  -5.798  1.00  0.00     0.218 HD
ENDBRANCH   8  24
TORSDOF 5
ENDMDL
MODEL 8
REMARK VINA RESULT:      -5.0     12.548     14.407
REMARK  5 active torsions:
REMARK  status: ('A' for Active; 'I' for Inactive)
REMARK    1  A    between atoms: C4_4  and  C5_5 
REMARK    2  A    between atoms: C8_8  and  O9_9 
REMARK    3  A    between atoms: C10_11  and  O11_12 
REMARK    4  A    between atoms: C16_18  and  O17_19 
REMARK    5  A    between atoms: C19_22  and  O20_23 
ROOT
HETATM    1  O1          0      47.479  16.975  -0.030  1.00  0.00    -0.286 OA
HETATM    2  C2          0      46.658  17.101  -0.979  1.00  0.00     0.201 C 
HETATM    3  C3          0      45.706  16.143  -1.281  1.00  0.00     0.067 C 
HETATM    4  C4          0      44.882  16.260  -2.395  1.00  0.00     0.103 C 
HETATM    5  O13         0      45.005  17.325  -3.167  1.00  0.00    -0.307 OA
HETATM    6  C14         0      45.918  18.246  -2.947  1.00  0.00     0.107 C 
HETATM    7  C15         0      46.319  19.129  -3.939  1.00  0.00     0.049 C 
HETATM    8  C16         0      47.450  19.922  -3.785  1.00  0.00     0.093 C 
HETATM    9  C18         0      47.813  20.177  -2.468  1.00  0.00     0.048 C 
HETATM   10  C19         0      47.390  19.340  -1.445  1.00  0.00     0.096 C 
HETATM   11  C21         0      46.596  18.264  -1.732  1.00  0.00     0.084 C 
ENDROOT
BRANCH  10  12
HETATM   12  O20         0      48.086  19.334  -0.240  1.00  0.00    -0.359 OA
HETATM   13  H20         0      48.879  19.853  -0.181  1.00  0.00     0.218 HD
ENDBRANCH  10  12
BRANCH   4  14
HETATM   14  C5          0      44.368  15.020  -2.981  1.00  0.00     0.025 C 
HETATM   15  C6          0      43.574  14.999  -4.118  1.00  0.00     0.004 C 
HETATM   16  C7          0      43.782  13.970  -5.030  1.00  0.00     0.026 C 
HETATM   17  C8          0      44.655  12.922  -4.761  1.00  0.00     0.112 C 
HETATM   18  C10         0      44.894  12.698  -3.412  1.00  0.00     0.112 C 
HETATM   19  C12         0      44.761  13.766  -2.532  1.00  0.00     0.028 C 
BRANCH  17  20
HETATM   20  O9          0      45.371  12.316  -5.779  1.00  0.00    -0.357 OA
HETATM   21  H9          0      45.240  11.416  -6.053  1.00  0.00     0.218 HD
ENDBRANCH  17  20
BRANCH  18  22
HETATM   22  O11         0      45.604  11.553  -3.080  1.00  0.00    -0.357 OA
HETATM   23  H11         0      46.322  11.654  -2.466  1.00  0.00     0.218 HD
ENDBRANCH  18  22
ENDBRANCH   4  14
BRANCH   8  24
HETATM   24  O17         0      48.330  20.151  -4.848  1.00  0.00    -0.359 OA
HETATM   25  H17         0      49.169  19.711  -4.906  1.00  0.00     0.218 HD
ENDBRANCH   8  24
TORSDOF 5
ENDMDL
MODEL 9
REMARK VINA RESULT:      -5.0     11.517     13.717
REMARK  5 active torsions:
REMARK  status: ('A' for Active; 'I' for Inactive)
REMARK    1  A    between atoms: C4_4  and  C5_5 
REMARK    2  A    between atoms: C8_8  and  O9_9 
REMARK    3  A    between atoms: C10_11  and  O11_12 
REMARK    4  A    between atoms: C16_18  and  O17_19 
REMARK    5  A    between atoms: C19_22  and  O20_23 
ROOT
HETATM    1  O1          0      53.750  12.446 -17.125  1.00  0.00    -0.286 OA
HETATM    2  C2          0      53.488  13.214 -16.159  1.00  0.00     0.201 C 
HETATM    3  C3          0      52.258  13.230 -15.525  1.00  0.00     0.067 C 
HETATM    4  C4          0      51.962  14.156 -14.531  1.00  0.00     0.103 C 
HETATM    5  O13         0      52.892  15.024 -14.176  1.00  0.00    -0.307 OA
HETATM    6  C14         0      54.064  15.077 -14.771  1.00  0.00     0.107 C 
HETATM    7  C15         0      54.872  16.201 -14.695  1.00  0.00     0.049 C 
HETATM    8  C16         0      55.979  16.352 -15.523  1.00  0.00     0.093 C 
HETATM    9  C18         0      56.518  15.164 -16.003  1.00  0.00     0.048 C 
HETATM   10  C19         0      55.751  14.008 -16.049  1.00  0.00     0.096 C 
HETATM   11  C21         0      54.458  14.034 -15.602  1.00  0.00     0.084 C 
ENDROOT
BRANCH  10  12
HETATM   12  O20         0      56.126  12.976 -16.904  1.00  0.00    -0.359 OA
HETATM   13  H20         0      55.512  12.264 -17.037  1.00  0.00     0.218 HD
ENDBRANCH  10  12
BRANCH   4  14
HETATM   14  C5          0      50.555  14.516 -14.348  1.00  0.00     0.025 C 
HETATM   15  C6          0      49.513  13.777 -14.890  1.00  0.00     0.004 C 
HETATM   16  C7          0      48.363  13.625 -14.122  1.00  0.00     0.026 C 
HETATM   17  C8          0      48.199  14.294 -12.914  1.00  0.00     0.112 C 
HETATM   18  C10         0      48.963  15.445 -12.780  1.00  0.00     0.112 C 
HETATM   19  C12         0      50.152  15.535 -13.495  1.00  0.00     0.028 C 
BRANCH  17  20
HETATM   20  O9          0      47.490  13.717 -11.875  1.00  0.00    -0.357 OA
HETATM   21  H9          0      47.049  14.215 -11.196  1.00  0.00     0.218 HD
ENDBRANCH  17  20
BRANCH  18  22
HETATM   22  O11         0      48.700  16.250 -11.681  1.00  0.00    -0.357 OA
HETATM   23  H11         0      47.896  16.078 -11.204  1.00  0.00     0.218 HD
ENDBRANCH  18  22
ENDBRANCH   4  14
BRANCH   8  24
HETATM   24  O17         0      56.302  17.589 -16.091  1.00  0.00    -0.359 OA
HETATM   25  H17         0      57.107  18.043 -15.873  1.00  0.00     0.218 HD
ENDBRANCH   8  24
TORSDOF 5
ENDMDL
