MODEL 1
REMARK VINA RESULT:      -0.0      0.000      0.000
REMARK  5 active torsions:
REMARK  status: ('A' for Active; 'I' for Inactive)
REMARK    1  A    between atoms: C4_4  and  C5_5 
REMARK    2  A    between atoms: C8_8  and  O9_9 
REMARK    3  A    between atoms: C10_11  and  O11_12 
REMARK    4  A    between atoms: C16_18  and  O17_19 
REMARK    5  A    between atoms: C19_22  and  O20_23 
ROOT
HETATM    1  O1          0      20.002  -4.617   4.630  1.00  0.00    -0.286 OA
HETATM    2  C2          0      18.937  -4.131   4.157  1.00  0.00     0.201 C 
HETATM    3  C3          0      18.904  -2.936   3.459  1.00  0.00     0.067 C 
HETATM    4  C4          0      17.705  -2.373   3.037  1.00  0.00     0.103 C 
HETATM    5  O13         0      16.577  -3.011   3.298  1.00  0.00    -0.307 OA
HETATM    6  C14         0      16.550  -4.128   3.990  1.00  0.00     0.107 C 
HETATM    7  C15         0      15.390  -4.582   4.601  1.00  0.00     0.049 C 
HETATM    8  C16         0      15.421  -5.612   5.533  1.00  0.00     0.093 C 
HETATM    9  C18         0      16.503  -6.476   5.417  1.00  0.00     0.048 C 
HETATM   10  C19         0      17.663  -6.071   4.770  1.00  0.00     0.096 C 
HETATM   11  C21         0      17.735  -4.817   4.227  1.00  0.00     0.084 C 
ENDROOT
BRANCH  10  12
HETATM   12  O20         0      18.856  -6.739   5.030  1.00  0.00    -0.359 OA
HETATM   13  H20         0      19.574  -6.240   5.398  1.00  0.00     0.218 HD
ENDBRANCH  10  12
BRANCH   4  14
HETATM   14  C5          0      17.670  -0.918   2.873  1.00  0.00     0.025 C 
HETATM   15  C6          0      16.504  -0.175   2.995  1.00  0.00     0.004 C 
HETATM   16  C7          0      16.594   1.068   3.612  1.00  0.00     0.026 C 
HETATM   17  C8          0      17.820   1.615   3.976  1.00  0.00     0.112 C 
HETATM   18  C10         0      18.907   1.123   3.267  1.00  0.00     0.112 C 
HETATM   19  C12         0      18.823  -0.157   2.732  1.00  0.00     0.028 C 
BRANCH  17  20
HETATM   20  O9          0      17.933   2.418   5.097  1.00  0.00    -0.357 OA
HETATM   21  H9          0      17.207   2.899   5.477  1.00  0.00     0.218 HD
ENDBRANCH  17  20
BRANCH  18  22
HETATM   22  O11         0      20.123   1.766   3.455  1.00  0.00    -0.357 OA
HETATM   23  H11         0      20.583   2.053   2.675  1.00  0.00     0.218 HD
ENDBRANCH  18  22
ENDBRANCH   4  14
BRANCH   8  24
HETATM   24  O17         0      14.626  -5.579   6.684  1.00  0.00    -0.359 OA
HETATM   25  H17         0      13.710  -5.830   6.666  1.00  0.00     0.218 HD
ENDBRANCH   8  24
TORSDOF 5
ENDMDL
MODEL 2
REMARK VINA RESULT:      -0.0      8.416     11.499
REMARK  5 active torsions:
REMARK  status: ('A' for Active; 'I' for Inactive)
REMARK    1  A    between atoms: C4_4  and  C5_5 
REMARK    2  A    between atoms: C8_8  and  O9_9 
REMARK    3  A    between atoms: C10_11  and  O11_12 
REMARK    4  A    between atoms: C16_18  and  O17_19 
REMARK    5  A    between atoms: C19_22  and  O20_23 
ROOT
HETATM    1  O1          0      10.293  -7.910   9.292  1.00  0.00    -0.286 OA
HETATM    2  C2          0      11.222  -7.226   9.803  1.00  0.00     0.201 C 
HETATM    3  C3          0      11.970  -7.665  10.882  1.00  0.00     0.067 C 
HETATM    4  C4          0      12.918  -6.850  11.490  1.00  0.00     0.103 C 
HETATM    5  O13         0      13.116  -5.637  11.007  1.00  0.00    -0.307 OA
HETATM    6  C14         0      12.406  -5.157  10.009  1.00  0.00     0.107 C 
HETATM    7  C15         0      12.320  -3.795   9.762  1.00  0.00     0.049 C 
HETATM    8  C16         0      11.378  -3.280   8.879  1.00  0.00     0.093 C 
HETATM    9  C18         0      10.936  -4.170   7.908  1.00  0.00     0.048 C 
HETATM   10  C19         0      11.050  -5.540   8.103  1.00  0.00     0.096 C 
HETATM   11  C21         0      11.619  -6.017   9.252  1.00  0.00     0.084 C 
ENDROOT
BRANCH  10  12
HETATM   12  O20         0      10.240  -6.401   7.369  1.00  0.00    -0.359 OA
HETATM   13  H20         0       9.302  -6.362   7.513  1.00  0.00     0.218 HD
ENDBRANCH  10  12
BRANCH   4  14
HETATM   14  C5          0      13.212  -7.104  12.902  1.00  0.00     0.025 C 
HETATM   15  C6          0      13.675  -6.118  13.762  1.00  0.00     0.004 C 
HETATM   16  C7          0      13.194  -6.125  15.068  1.00  0.00     0.026 C 
HETATM   17  C8          0      12.386  -7.153  15.542  1.00  0.00     0.112 C 
HETATM   18  C10         0      12.506  -8.351  14.851  1.00  0.00     0.112 C 
HETATM   19  C12         0      12.907  -8.309  13.521  1.00  0.00     0.028 C 
BRANCH  17  20
HETATM   20  O9          0      11.404  -6.904  16.485  1.00  0.00    -0.357 OA
HETATM   21  H9          0      11.571  -6.498  17.327  1.00  0.00     0.218 HD
ENDBRANCH  17  20
BRANCH  18  22
HETATM   22  O11         0      11.869  -9.457  15.395  1.00  0.00    -0.357 OA
HETATM   23  H11         0      11.656  -9.418  16.321  1.00  0.00     0.218 HD
ENDBRANCH  18  22
ENDBRANCH   4  14
BRANCH   8  24
HETATM   24  O17         0      10.693  -2.091   9.154  1.00  0.00    -0.359 OA
HETATM   25  H17         0      10.921  -1.274   8.728  1.00  0.00     0.218 HD
ENDBRANCH   8  24
TORSDOF 5
ENDMDL
MODEL 3
REMARK VINA RESULT:      -0.0     14.171     16.839
REMARK  5 active torsions:
REMARK  status: ('A' for Active; 'I' for Inactive)
REMARK    1  A    between atoms: C4_4  and  C5_5 
REMARK    2  A    between atoms: C8_8  and  O9_9 
REMARK    3  A    between atoms: C10_11  and  O11_12 
REMARK    4  A    between atoms: C16_18  and  O17_19 
REMARK    5  A    between atoms: C19_22  and  O20_23 
ROOT
HETATM    1  O1          0       7.354   2.780   8.950  1.00  0.00    -0.286 OA
HETATM    2  C2          0       6.592   3.428   9.718  1.00  0.00     0.201 C 
HETATM    3  C3          0       5.650   2.819  10.530  1.00  0.00     0.067 C 
HETATM    4  C4          0       4.754   3.561  11.291  1.00  0.00     0.103 C 
HETATM    5  O13         0       4.824   4.880  11.246  1.00  0.00    -0.307 OA
HETATM    6  C14         0       5.674   5.509  10.464  1.00  0.00     0.107 C 
HETATM    7  C15         0       5.495   6.838  10.109  1.00  0.00     0.049 C 
HETATM    8  C16         0       6.241   7.420   9.091  1.00  0.00     0.093 C 
HETATM    9  C18         0       7.468   6.816   8.845  1.00  0.00     0.048 C 
HETATM   10  C19         0       7.697   5.502   9.229  1.00  0.00     0.096 C 
HETATM   11  C21         0       6.713   4.801   9.871  1.00  0.00     0.084 C 
ENDROOT
BRANCH  10  12
HETATM   12  O20         0       8.717   4.781   8.614  1.00  0.00    -0.359 OA
HETATM   13  H20         0       8.551   3.872   8.398  1.00  0.00     0.218 HD
ENDBRANCH  10  12
BRANCH   4  14
HETATM   14  C5          0       3.471   2.934  11.616  1.00  0.00     0.025 C 
HETATM   15  C6          0       2.319   3.665  11.864  1.00  0.00     0.004 C 
HETATM   16  C7          0       1.117   3.156  11.383  1.00  0.00     0.026 C 
HETATM   17  C8          0       1.041   1.900  10.792  1.00  0.00     0.112 C 
HETATM   18  C10         0       2.057   1.026  11.156  1.00  0.00     0.112 C 
HETATM   19  C12         0       3.277   1.561  11.552  1.00  0.00     0.028 C 
BRANCH  17  20
HETATM   20  O9          0       0.141   1.649   9.772  1.00  0.00    -0.357 OA
HETATM   21  H9          0      -0.175   0.781   9.548  1.00  0.00     0.218 HD
ENDBRANCH  17  20
BRANCH  18  22
HETATM   22  O11         0       1.927  -0.294  10.747  1.00  0.00    -0.357 OA
HETATM   23  H11         0       1.061  -0.578  10.479  1.00  0.00     0.218 HD
ENDBRANCH  18  22
ENDBRANCH   4  14
BRANCH   8  24
HETATM   24  O17         0       5.663   8.310   8.180  1.00  0.00    -0.359 OA
HETATM   25  H17         0       6.163   9.013   7.783  1.00  0.00     0.218 HD
ENDBRANCH   8  24
TORSDOF 5
ENDMDL
MODEL 4
REMARK VINA RESULT:      -0.0      9.406     13.361
REMARK  5 active torsions:
REMARK  status: ('A' for Active; 'I' for Inactive)
REMARK    1  A    between atoms: C4_4  and  C5_5 
REMARK    2  A    between atoms: C8_8  and  O9_9 
REMARK    3  A    between atoms: C10_11  and  O11_12 
REMARK    4  A    between atoms: C16_18  and  O17_19 
REMARK    5  A    between atoms: C19_22  and  O20_23 
ROOT
HETATM    1  O1          0      12.690  -7.653  13.483  1.00  0.00    -0.286 OA
HETATM    2  C2          0      11.882  -6.685  13.432  1.00  0.00     0.201 C 
HETATM    3  C3          0      10.651  -6.702  14.064  1.00  0.00     0.067 C 
HETATM    4  C4          0       9.738  -5.664  13.908  1.00  0.00     0.103 C 
HETATM    5  O13         0      10.072  -4.633  13.152  1.00  0.00    -0.307 OA
HETATM    6  C14         0      11.213  -4.585  12.501  1.00  0.00     0.107 C 
HETATM    7  C15         0      11.403  -3.734  11.421  1.00  0.00     0.049 C 
HETATM    8  C16         0      12.505  -3.865  10.584  1.00  0.00     0.093 C 
HETATM    9  C18         0      13.610  -4.480  11.160  1.00  0.00     0.048 C 
HETATM   10  C19         0      13.462  -5.300  12.270  1.00  0.00     0.096 C 
HETATM   11  C21         0      12.220  -5.492  12.812  1.00  0.00     0.084 C 
ENDROOT
BRANCH  10  12
HETATM   12  O20         0      14.453  -6.231  12.565  1.00  0.00    -0.359 OA
HETATM   13  H20         0      15.296  -6.133  12.139  1.00  0.00     0.218 HD
ENDBRANCH  10  12
BRANCH   4  14
HETATM   14  C5          0       8.320  -5.990  14.068  1.00  0.00     0.025 C 
HETATM   15  C6          0       7.308  -5.272  13.447  1.00  0.00     0.004 C 
HETATM   16  C7          0       6.216  -5.985  12.962  1.00  0.00     0.026 C 
HETATM   17  C8          0       6.068  -7.346  13.204  1.00  0.00     0.112 C 
HETATM   18  C10         0       6.750  -7.815  14.318  1.00  0.00     0.112 C 
HETATM   19  C12         0       7.889  -7.132  14.731  1.00  0.00     0.028 C 
BRANCH  17  20
HETATM   20  O9          0       5.461  -8.170  12.272  1.00  0.00    -0.357 OA
HETATM   21  H9          0       4.779  -7.881  11.677  1.00  0.00     0.218 HD
ENDBRANCH  17  20
BRANCH  18  22
HETATM   22  O11         0       6.488  -9.119  14.714  1.00  0.00    -0.357 OA
HETATM   23  H11         0       5.619  -9.458  14.529  1.00  0.00     0.218 HD
ENDBRANCH  18  22
ENDBRANCH   4  14
BRANCH   8  24
HETATM   24  O17         0      12.391  -3.705   9.199  1.00  0.00    -0.359 OA
HETATM   25  H17         0      12.728  -4.353   8.592  1.00  0.00     0.218 HD
ENDBRANCH   8  24
TORSDOF 5
ENDMDL
MODEL 5
REMARK VINA RESULT:      -0.0      9.907     13.369
REMARK  5 active torsions:
REMARK  status: ('A' for Active; 'I' for Inactive)
REMARK    1  A    between atoms: C4_4  and  C5_5 
REMARK    2  A    between atoms: C8_8  and  O9_9 
REMARK    3  A    between atoms: C10_11  and  O11_12 
REMARK    4  A    between atoms: C16_18  and  O17_19 
REMARK    5  A    between atoms: C19_22  and  O20_23 
ROOT
HETATM    1  O1          0       9.964  -0.411  13.459  1.00  0.00    -0.286 OA
HETATM    2  C2          0       9.190  -0.825  12.554  1.00  0.00     0.201 C 
HETATM    3  C3          0       8.181  -1.744  12.791  1.00  0.00     0.067 C 
HETATM    4  C4          0       7.409  -2.261  11.758  1.00  0.00     0.103 C 
HETATM    5  O13         0       7.637  -1.845  10.525  1.00  0.00    -0.307 OA
HETATM    6  C14         0       8.606  -1.003  10.239  1.00  0.00     0.107 C 
HETATM    7  C15         0       9.106  -0.873   8.952  1.00  0.00     0.049 C 
HETATM    8  C16         0      10.285  -0.181   8.701  1.00  0.00     0.093 C 
HETATM    9  C18         0      10.618   0.775   9.653  1.00  0.00     0.048 C 
HETATM   10  C19         0      10.099   0.701  10.939  1.00  0.00     0.096 C 
HETATM   11  C21         0       9.239  -0.311  11.267  1.00  0.00     0.084 C 
ENDROOT
BRANCH  10  12
HETATM   12  O20         0      10.749   1.366  11.974  1.00  0.00    -0.359 OA
HETATM   13  H20         0      10.657   2.310  12.023  1.00  0.00     0.218 HD
ENDBRANCH  10  12
BRANCH   4  14
HETATM   14  C5          0       6.828  -3.590  11.957  1.00  0.00     0.025 C 
HETATM   15  C6          0       6.520  -4.442  10.905  1.00  0.00     0.004 C 
HETATM   16  C7          0       6.758  -5.800  11.085  1.00  0.00     0.026 C 
HETATM   17  C8          0       7.161  -6.314  12.313  1.00  0.00     0.112 C 
HETATM   18  C10         0       6.830  -5.526  13.408  1.00  0.00     0.112 C 
HETATM   19  C12         0       6.681  -4.158  13.216  1.00  0.00     0.028 C 
BRANCH  17  20
HETATM   20  O9          0       8.004  -7.409  12.382  1.00  0.00    -0.357 OA
HETATM   21  H9          0       7.758  -8.283  12.101  1.00  0.00     0.218 HD
ENDBRANCH  17  20
BRANCH  18  22
HETATM   22  O11         0       7.038  -6.077  14.664  1.00  0.00    -0.357 OA
HETATM   23  H11         0       7.376  -5.498  15.337  1.00  0.00     0.218 HD
ENDBRANCH  18  22
ENDBRANCH   4  14
BRANCH   8  24
HETATM   24  O17         0      11.217  -0.644   7.766  1.00  0.00    -0.359 OA
HETATM   25  H17         0      11.422  -1.567   7.680  1.00  0.00     0.218 HD
ENDBRANCH   8  24
TORSDOF 5
ENDMDL
MODEL 6
REMARK VINA RESULT:      -0.0      8.662     11.409
REMARK  5 active torsions:
REMARK  status: ('A' for Active; 'I' for Inactive)
REMARK    1  A    between atoms: C4_4  and  C5_5 
REMARK    2  A    between atoms: C8_8  and  O9_9 
REMARK    3  A    between atoms: C10_11  and  O11_12 
REMARK    4  A    between atoms: C16_18  and  O17_19 
REMARK    5  A    between atoms: C19_22  and  O20_23 
ROOT
HETATM    1  O1          0      10.207   1.039   5.074  1.00  0.00    -0.286 OA
HETATM    2  C2          0      10.252   0.661   6.277  1.00  0.00     0.201 C 
HETATM    3  C3          0       9.902  -0.617   6.676  1.00  0.00     0.067 C 
HETATM    4  C4          0       9.863  -0.976   8.019  1.00  0.00     0.103 C 
HETATM    5  O13         0      10.189  -0.073   8.927  1.00  0.00    -0.307 OA
HETATM    6  C14         0      10.493   1.165   8.604  1.00  0.00     0.107 C 
HETATM    7  C15         0      10.442   2.196   9.532  1.00  0.00     0.049 C 
HETATM    8  C16         0      10.513   3.526   9.137  1.00  0.00     0.093 C 
HETATM    9  C18         0      11.149   3.744   7.921  1.00  0.00     0.048 C 
HETATM   10  C19         0      11.259   2.722   6.988  1.00  0.00     0.096 C 
HETATM   11  C21         0      10.751   1.484   7.276  1.00  0.00     0.084 C 
ENDROOT
BRANCH  10  12
HETATM   12  O20         0      11.486   3.040   5.653  1.00  0.00    -0.359 OA
HETATM   13  H20         0      12.280   3.514   5.437  1.00  0.00     0.218 HD
ENDBRANCH  10  12
BRANCH   4  14
HETATM   14  C5          0       8.952  -2.058   8.397  1.00  0.00     0.025 C 
HETATM   15  C6          0       8.401  -2.170   9.665  1.00  0.00     0.004 C 
HETATM   16  C7          0       7.082  -2.600   9.760  1.00  0.00     0.026 C 
HETATM   17  C8          0       6.375  -3.035   8.644  1.00  0.00     0.112 C 
HETATM   18  C10         0       7.166  -3.479   7.593  1.00  0.00     0.112 C 
HETATM   19  C12         0       8.453  -2.967   7.473  1.00  0.00     0.028 C 
BRANCH  17  20
HETATM   20  O9          0       5.011  -2.827   8.544  1.00  0.00    -0.357 OA
HETATM   21  H9          0       4.556  -2.693   7.720  1.00  0.00     0.218 HD
ENDBRANCH  17  20
BRANCH  18  22
HETATM   22  O11         0       6.516  -4.097   6.534  1.00  0.00    -0.357 OA
HETATM   23  H11         0       5.640  -4.425   6.700  1.00  0.00     0.218 HD
ENDBRANCH  18  22
ENDBRANCH   4  14
BRANCH   8  24
HETATM   24  O17         0       9.718   4.509   9.738  1.00  0.00    -0.359 OA
HETATM   25  H17         0       9.857   5.433   9.572  1.00  0.00     0.218 HD
ENDBRANCH   8  24
TORSDOF 5
ENDMDL
MODEL 7
REMARK VINA RESULT:       0.0      8.543     10.192
REMARK  5 active torsions:
REMARK  status: ('A' for Active; 'I' for Inactive)
REMARK    1  A    between atoms: C4_4  and  C5_5 
REMARK    2  A    between atoms: C8_8  and  O9_9 
REMARK    3  A    between atoms: C10_11  and  O11_12 
REMARK    4  A    between atoms: C16_18  and  O17_19 
REMARK    5  A    between atoms: C19_22  and  O20_23 
ROOT
HETATM    1  O1          0       9.835   0.693  12.082  1.00  0.00    -0.286 OA
HETATM    2  C2          0      11.056   0.847  12.357  1.00  0.00     0.201 C 
HETATM    3  C3          0      11.737   2.028  12.114  1.00  0.00     0.067 C 
HETATM    4  C4          0      13.105   2.139  12.331  1.00  0.00     0.103 C 
HETATM    5  O13         0      13.760   1.091  12.800  1.00  0.00    -0.307 OA
HETATM    6  C14         0      13.170  -0.064  13.013  1.00  0.00     0.107 C 
HETATM    7  C15         0      13.890  -1.246  13.113  1.00  0.00     0.049 C 
HETATM    8  C16         0      13.257  -2.482  13.081  1.00  0.00     0.093 C 
HETATM    9  C18         0      11.925  -2.470  13.477  1.00  0.00     0.048 C 
HETATM   10  C19         0      11.187  -1.294  13.434  1.00  0.00     0.096 C 
HETATM   11  C21         0      11.781  -0.135  13.014  1.00  0.00     0.084 C 
ENDROOT
BRANCH  10  12
HETATM   12  O20         0       9.798  -1.364  13.403  1.00  0.00    -0.359 OA
HETATM   13  H20         0       9.330  -0.706  12.902  1.00  0.00     0.218 HD
ENDBRANCH  10  12
BRANCH   4  14
HETATM   14  C5          0      13.833   3.124  11.529  1.00  0.00     0.025 C 
HETATM   15  C6          0      15.181   2.998  11.225  1.00  0.00     0.004 C 
HETATM   16  C7          0      15.595   3.388   9.955  1.00  0.00     0.026 C 
HETATM   17  C8          0      14.726   4.008   9.064  1.00  0.00     0.112 C 
HETATM   18  C10         0      13.643   4.644   9.656  1.00  0.00     0.112 C 
HETATM   19  C12         0      13.197   4.178  10.888  1.00  0.00     0.028 C 
BRANCH  17  20
HETATM   20  O9          0      14.845   3.804   7.700  1.00  0.00    -0.357 OA
HETATM   21  H9          0      15.190   3.007   7.314  1.00  0.00     0.218 HD
ENDBRANCH  17  20
BRANCH  18  22
HETATM   22  O11         0      12.852   5.434   8.835  1.00  0.00    -0.357 OA
HETATM   23  H11         0      12.018   5.722   9.189  1.00  0.00     0.218 HD
ENDBRANCH  18  22
ENDBRANCH   4  14
BRANCH   8  24
HETATM   24  O17         0      13.809  -3.567  12.391  1.00  0.00    -0.359 OA
HETATM   25  H17         0      13.915  -3.557  11.447  1.00  0.00     0.218 HD
ENDBRANCH   8  24
TORSDOF 5
ENDMDL
MODEL 8
REMARK VINA RESULT:       0.0      6.354      9.422
REMARK  5 active torsions:
REMARK  status: ('A' for Active; 'I' for Inactive)
REMARK    1  A    between atoms: C4_4  and  C5_5 
REMARK    2  A    between atoms: C8_8  and  O9_9 
REMARK    3  A    between atoms: C10_11  and  O11_12 
REMARK    4  A    between atoms: C16_18  and  O17_19 
REMARK    5  A    between atoms: C19_22  and  O20_23 
ROOT
HETATM    1  O1          0      12.519  -0.013   8.384  1.00  0.00    -0.286 OA
HETATM    2  C2          0      13.609  -0.237   8.978  1.00  0.00     0.201 C 
HETATM    3  C3          0      14.341  -1.397   8.792  1.00  0.00     0.067 C 
HETATM    4  C4          0      15.485  -1.664   9.536  1.00  0.00     0.103 C 
HETATM    5  O13         0      15.886  -0.772  10.425  1.00  0.00    -0.307 OA
HETATM    6  C14         0      15.208   0.327  10.667  1.00  0.00     0.107 C 
HETATM    7  C15         0      15.382   1.051  11.838  1.00  0.00     0.049 C 
HETATM    8  C16         0      14.495   2.056  12.205  1.00  0.00     0.093 C 
HETATM    9  C18         0      13.797   2.635  11.153  1.00  0.00     0.048 C 
HETATM   10  C19         0      13.643   1.958   9.951  1.00  0.00     0.096 C 
HETATM   11  C21         0      14.198   0.717   9.795  1.00  0.00     0.084 C 
ENDROOT
BRANCH  10  12
HETATM   12  O20         0      12.613   2.325   9.090  1.00  0.00    -0.359 OA
HETATM   13  H20         0      12.206   1.645   8.567  1.00  0.00     0.218 HD
ENDBRANCH  10  12
BRANCH   4  14
HETATM   14  C5          0      15.840  -3.070   9.737  1.00  0.00     0.025 C 
HETATM   15  C6          0      16.568  -3.512  10.833  1.00  0.00     0.004 C 
HETATM   16  C7          0      16.210  -4.734  11.393  1.00  0.00     0.026 C 
HETATM   17  C8          0      15.251  -5.553  10.806  1.00  0.00     0.112 C 
HETATM   18  C10         0      15.063  -5.342   9.447  1.00  0.00     0.112 C 
HETATM   19  C12         0      15.348  -4.085   8.928  1.00  0.00     0.028 C 
BRANCH  17  20
HETATM   20  O9          0      14.426  -6.347  11.583  1.00  0.00    -0.357 OA
HETATM   21  H9          0      14.736  -6.888  12.300  1.00  0.00     0.218 HD
ENDBRANCH  17  20
BRANCH  18  22
HETATM   22  O11         0      14.260  -6.254   8.775  1.00  0.00    -0.357 OA
HETATM   23  H11         0      14.660  -6.731   8.057  1.00  0.00     0.218 HD
ENDBRANCH  18  22
ENDBRANCH   4  14
BRANCH   8  24
HETATM   24  O17         0      14.095   2.226  13.535  1.00  0.00    -0.359 OA
HETATM   25  H17         0      13.625   3.000  13.820  1.00  0.00     0.218 HD
ENDBRANCH   8  24
TORSDOF 5
ENDMDL
MODEL 9
REMARK VINA RESULT:       0.0     12.038     12.964
REMARK  5 active torsions:
REMARK  status: ('A' for Active; 'I' for Inactive)
REMARK    1  A    between atoms: C4_4  and  C5_5 
REMARK    2  A    between atoms: C8_8  and  O9_9 
REMARK    3  A    between atoms: C10_11  and  O11_12 
REMARK    4  A    between atoms: C16_18  and  O17_19 
REMARK    5  A    between atoms: C19_22  and  O20_23 
ROOT
HETATM    1  O1          0      11.216  -2.015  14.401  1.00  0.00    -0.286 OA
HETATM    2  C2          0      11.293  -0.798  14.727  1.00  0.00     0.201 C 
HETATM    3  C3          0      10.361   0.146  14.330  1.00  0.00     0.067 C 
HETATM    4  C4          0      10.525   1.496  14.616  1.00  0.00     0.103 C 
HETATM    5  O13         0      11.589   1.875  15.302  1.00  0.00    -0.307 OA
HETATM    6  C14         0      12.523   1.025  15.670  1.00  0.00     0.107 C 
HETATM    7  C15         0      13.798   1.446  16.020  1.00  0.00     0.049 C 
HETATM    8  C16         0      14.843   0.542  16.159  1.00  0.00     0.093 C 
HETATM    9  C18         0      14.458  -0.760  16.456  1.00  0.00     0.048 C 
HETATM   10  C19         0      13.175  -1.200  16.162  1.00  0.00     0.096 C 
HETATM   11  C21         0      12.277  -0.341  15.590  1.00  0.00     0.084 C 
ENDROOT
BRANCH  10  12
HETATM   12  O20         0      12.933  -2.566  16.051  1.00  0.00    -0.359 OA
HETATM   13  H20         0      12.947  -3.087  16.845  1.00  0.00     0.218 HD
ENDBRANCH  10  12
BRANCH   4  14
HETATM   14  C5          0       9.894   2.455  13.707  1.00  0.00     0.025 C 
HETATM   15  C6          0      10.375   3.743  13.521  1.00  0.00     0.004 C 
HETATM   16  C7          0      10.327   4.268  12.233  1.00  0.00     0.026 C 
HETATM   17  C8          0       9.701   3.592  11.192  1.00  0.00     0.112 C 
HETATM   18  C10         0       8.739   2.674  11.592  1.00  0.00     0.112 C 
HETATM   19  C12         0       8.859   2.100  12.853  1.00  0.00     0.028 C 
BRANCH  17  20
HETATM   20  O9          0      10.173   3.694   9.895  1.00  0.00    -0.357 OA
HETATM   21  H9          0      10.990   3.312   9.599  1.00  0.00     0.218 HD
ENDBRANCH  17  20
BRANCH  18  22
HETATM   22  O11         0       7.955   2.111  10.596  1.00  0.00    -0.357 OA
HETATM   23  H11         0       7.458   2.709  10.050  1.00  0.00     0.218 HD
ENDBRANCH  18  22
ENDBRANCH   4  14
BRANCH   8  24
HETATM   24  O17         0      16.132   0.842  15.705  1.00  0.00    -0.359 OA
HETATM   25  H17         0      16.835   0.203  15.738  1.00  0.00     0.218 HD
ENDBRANCH   8  24
TORSDOF 5
ENDMDL
