MODEL 1
REMARK VINA RESULT:      -0.0      0.000      0.000
REMARK  5 active torsions:
REMARK  status: ('A' for Active; 'I' for Inactive)
REMARK    1  A    between atoms: C4_4  and  C5_5 
REMARK    2  A    between atoms: C8_8  and  O9_9 
REMARK    3  A    between atoms: C10_11  and  O11_12 
REMARK    4  A    between atoms: C16_18  and  O17_19 
REMARK    5  A    between atoms: C19_22  and  O20_23 
ROOT
HETATM    1  O1          0      17.528  -1.799  -6.163  1.00  0.00    -0.286 OA
HETATM    2  C2          0      16.722  -0.911  -6.554  1.00  0.00     0.201 C 
HETATM    3  C3          0      16.211  -0.876  -7.840  1.00  0.00     0.067 C 
HETATM    4  C4          0      15.407   0.171  -8.276  1.00  0.00     0.103 C 
HETATM    5  O13         0      15.111   1.140  -7.428  1.00  0.00    -0.307 OA
HETATM    6  C14         0      15.600   1.174  -6.208  1.00  0.00     0.107 C 
HETATM    7  C15         0      15.632   2.346  -5.465  1.00  0.00     0.049 C 
HETATM    8  C16         0      16.371   2.437  -4.292  1.00  0.00     0.093 C 
HETATM    9  C18         0      16.607   1.227  -3.651  1.00  0.00     0.048 C 
HETATM   10  C19         0      16.538   0.031  -4.354  1.00  0.00     0.096 C 
HETATM   11  C21         0      16.218   0.043  -5.684  1.00  0.00     0.084 C 
ENDROOT
BRANCH  10  12
HETATM   12  O20         0      17.182  -1.093  -3.848  1.00  0.00    -0.359 OA
HETATM   13  H20         0      16.863  -1.460  -3.032  1.00  0.00     0.218 HD
ENDBRANCH  10  12
BRANCH   4  14
HETATM   14  C5          0      15.409   0.465  -9.710  1.00  0.00     0.025 C 
HETATM   15  C6          0      15.131   1.726 -10.219  1.00  0.00     0.004 C 
HETATM   16  C7          0      15.869   2.155 -11.318  1.00  0.00     0.026 C 
HETATM   17  C8          0      16.759   1.311 -11.973  1.00  0.00     0.112 C 
HETATM   18  C10         0      16.502  -0.044 -11.808  1.00  0.00     0.112 C 
HETATM   19  C12         0      15.837  -0.455 -10.658  1.00  0.00     0.028 C 
BRANCH  17  20
HETATM   20  O9          0      17.913   1.809 -12.551  1.00  0.00    -0.357 OA
HETATM   21  H9          0      18.697   1.292 -12.696  1.00  0.00     0.218 HD
ENDBRANCH  17  20
BRANCH  18  22
HETATM   22  O11         0      17.240  -0.923 -12.587  1.00  0.00    -0.357 OA
HETATM   23  H11         0      18.130  -1.105 -12.306  1.00  0.00     0.218 HD
ENDBRANCH  18  22
ENDBRANCH   4  14
BRANCH   8  24
HETATM   24  O17         0      17.096   3.591  -3.975  1.00  0.00    -0.359 OA
HETATM   25  H17         0      17.246   4.278  -4.614  1.00  0.00     0.218 HD
ENDBRANCH   8  24
TORSDOF 5
ENDMDL
MODEL 2
REMARK VINA RESULT:      -0.0      9.231     10.961
REMARK  5 active torsions:
REMARK  status: ('A' for Active; 'I' for Inactive)
REMARK    1  A    between atoms: C4_4  and  C5_5 
REMARK    2  A    between atoms: C8_8  and  O9_9 
REMARK    3  A    between atoms: C10_11  and  O11_12 
REMARK    4  A    between atoms: C16_18  and  O17_19 
REMARK    5  A    between atoms: C19_22  and  O20_23 
ROOT
HETATM    1  O1          0      22.383   2.908  -5.454  1.00  0.00    -0.286 OA
HETATM    2  C2          0      23.429   3.526  -5.115  1.00  0.00     0.201 C 
HETATM    3  C3          0      24.692   3.153  -5.542  1.00  0.00     0.067 C 
HETATM    4  C4          0      25.837   3.787  -5.073  1.00  0.00     0.103 C 
HETATM    5  O13         0      25.704   4.782  -4.213  1.00  0.00    -0.307 OA
HETATM    6  C14         0      24.532   5.151  -3.746  1.00  0.00     0.107 C 
HETATM    7  C15         0      24.409   5.892  -2.580  1.00  0.00     0.049 C 
HETATM    8  C16         0      23.178   6.059  -1.957  1.00  0.00     0.093 C 
HETATM    9  C18         0      22.075   5.932  -2.793  1.00  0.00     0.048 C 
HETATM   10  C19         0      22.175   5.237  -3.991  1.00  0.00     0.096 C 
HETATM   11  C21         0      23.373   4.687  -4.359  1.00  0.00     0.084 C 
ENDROOT
BRANCH  10  12
HETATM   12  O20         0      21.019   4.745  -4.590  1.00  0.00    -0.359 OA
HETATM   13  H20         0      20.410   5.370  -4.962  1.00  0.00     0.218 HD
ENDBRANCH  10  12
BRANCH   4  14
HETATM   14  C5          0      27.078   3.010  -5.066  1.00  0.00     0.025 C 
HETATM   15  C6          0      28.118   3.262  -4.182  1.00  0.00     0.004 C 
HETATM   16  C7          0      28.802   2.167  -3.664  1.00  0.00     0.026 C 
HETATM   17  C8          0      28.553   0.874  -4.109  1.00  0.00     0.112 C 
HETATM   18  C10         0      27.997   0.794  -5.379  1.00  0.00     0.112 C 
HETATM   19  C12         0      27.246   1.869  -5.839  1.00  0.00     0.028 C 
BRANCH  17  20
HETATM   20  O9          0      28.662  -0.205  -3.249  1.00  0.00    -0.357 OA
HETATM   21  H9          0      28.333  -1.074  -3.448  1.00  0.00     0.218 HD
ENDBRANCH  17  20
BRANCH  18  22
HETATM   22  O11         0      27.904  -0.469  -5.946  1.00  0.00    -0.357 OA
HETATM   23  H11         0      28.088  -0.537  -6.876  1.00  0.00     0.218 HD
ENDBRANCH  18  22
ENDBRANCH   4  14
BRANCH   8  24
HETATM   24  O17         0      23.054   6.019  -0.564  1.00  0.00    -0.359 OA
HETATM   25  H17         0      22.908   6.806  -0.053  1.00  0.00     0.218 HD
ENDBRANCH   8  24
TORSDOF 5
ENDMDL
MODEL 3
REMARK VINA RESULT:      -0.0      4.640      7.476
REMARK  5 active torsions:
REMARK  status: ('A' for Active; 'I' for Inactive)
REMARK    1  A    between atoms: C4_4  and  C5_5 
REMARK    2  A    between atoms: C8_8  and  O9_9 
REMARK    3  A    between atoms: C10_11  and  O11_12 
REMARK    4  A    between atoms: C16_18  and  O17_19 
REMARK    5  A    between atoms: C19_22  and  O20_23 
ROOT
HETATM    1  O1          0      19.305   2.983 -10.095  1.00  0.00    -0.286 OA
HETATM    2  C2          0      19.695   3.479  -9.003  1.00  0.00     0.201 C 
HETATM    3  C3          0      19.616   2.800  -7.799  1.00  0.00     0.067 C 
HETATM    4  C4          0      19.958   3.408  -6.596  1.00  0.00     0.103 C 
HETATM    5  O13         0      20.387   4.657  -6.615  1.00  0.00    -0.307 OA
HETATM    6  C14         0      20.445   5.359  -7.726  1.00  0.00     0.107 C 
HETATM    7  C15         0      20.501   6.745  -7.712  1.00  0.00     0.049 C 
HETATM    8  C16         0      20.306   7.487  -8.871  1.00  0.00     0.093 C 
HETATM    9  C18         0      20.587   6.812 -10.054  1.00  0.00     0.048 C 
HETATM   10  C19         0      20.586   5.425 -10.092  1.00  0.00     0.096 C 
HETATM   11  C21         0      20.322   4.715  -8.952  1.00  0.00     0.084 C 
ENDROOT
BRANCH  10  12
HETATM   12  O20         0      20.431   4.778 -11.314  1.00  0.00    -0.359 OA
HETATM   13  H20         0      21.214   4.559 -11.804  1.00  0.00     0.218 HD
ENDBRANCH  10  12
BRANCH   4  14
HETATM   14  C5          0      19.311   2.903  -5.383  1.00  0.00     0.025 C 
HETATM   15  C6          0      19.113   3.686  -4.255  1.00  0.00     0.004 C 
HETATM   16  C7          0      17.922   3.518  -3.555  1.00  0.00     0.026 C 
HETATM   17  C8          0      17.018   2.514  -3.884  1.00  0.00     0.112 C 
HETATM   18  C10         0      17.570   1.436  -4.563  1.00  0.00     0.112 C 
HETATM   19  C12         0      18.713   1.651  -5.325  1.00  0.00     0.028 C 
BRANCH  17  20
HETATM   20  O9          0      15.657   2.705  -3.723  1.00  0.00    -0.357 OA
HETATM   21  H9          0      15.074   2.966  -4.426  1.00  0.00     0.218 HD
ENDBRANCH  17  20
BRANCH  18  22
HETATM   22  O11         0      16.757   0.327  -4.748  1.00  0.00    -0.357 OA
HETATM   23  H11         0      17.176  -0.525  -4.704  1.00  0.00     0.218 HD
ENDBRANCH  18  22
ENDBRANCH   4  14
BRANCH   8  24
HETATM   24  O17         0      19.573   8.678  -8.860  1.00  0.00    -0.359 OA
HETATM   25  H17         0      19.735   9.370  -9.491  1.00  0.00     0.218 HD
ENDBRANCH   8  24
TORSDOF 5
ENDMDL
MODEL 4
REMARK VINA RESULT:      -0.0      3.381      6.878
REMARK  5 active torsions:
REMARK  status: ('A' for Active; 'I' for Inactive)
REMARK    1  A    between atoms: C4_4  and  C5_5 
REMARK    2  A    between atoms: C8_8  and  O9_9 
REMARK    3  A    between atoms: C10_11  and  O11_12 
REMARK    4  A    between atoms: C16_18  and  O17_19 
REMARK    5  A    between atoms: C19_22  and  O20_23 
ROOT
HETATM    1  O1          0      17.322   2.013  -8.534  1.00  0.00    -0.286 OA
HETATM    2  C2          0      17.713   2.509  -7.442  1.00  0.00     0.201 C 
HETATM    3  C3          0      17.634   1.830  -6.238  1.00  0.00     0.067 C 
HETATM    4  C4          0      17.975   2.438  -5.035  1.00  0.00     0.103 C 
HETATM    5  O13         0      18.404   3.687  -5.054  1.00  0.00    -0.307 OA
HETATM    6  C14         0      18.463   4.389  -6.165  1.00  0.00     0.107 C 
HETATM    7  C15         0      18.519   5.775  -6.151  1.00  0.00     0.049 C 
HETATM    8  C16         0      18.324   6.517  -7.310  1.00  0.00     0.093 C 
HETATM    9  C18         0      18.605   5.842  -8.492  1.00  0.00     0.048 C 
HETATM   10  C19         0      18.603   4.455  -8.530  1.00  0.00     0.096 C 
HETATM   11  C21         0      18.340   3.745  -7.391  1.00  0.00     0.084 C 
ENDROOT
BRANCH  10  12
HETATM   12  O20         0      18.449   3.808  -9.753  1.00  0.00    -0.359 OA
HETATM   13  H20         0      19.011   3.065  -9.938  1.00  0.00     0.218 HD
ENDBRANCH  10  12
BRANCH   4  14
HETATM   14  C5          0      17.328   1.933  -3.822  1.00  0.00     0.025 C 
HETATM   15  C6          0      17.130   2.716  -2.694  1.00  0.00     0.004 C 
HETATM   16  C7          0      15.940   2.548  -1.994  1.00  0.00     0.026 C 
HETATM   17  C8          0      15.035   1.544  -2.323  1.00  0.00     0.112 C 
HETATM   18  C10         0      15.588   0.466  -3.002  1.00  0.00     0.112 C 
HETATM   19  C12         0      16.731   0.681  -3.763  1.00  0.00     0.028 C 
BRANCH  17  20
HETATM   20  O9          0      13.675   1.735  -2.162  1.00  0.00    -0.357 OA
HETATM   21  H9          0      13.072   1.876  -2.883  1.00  0.00     0.218 HD
ENDBRANCH  17  20
BRANCH  18  22
HETATM   22  O11         0      14.775  -0.643  -3.187  1.00  0.00    -0.357 OA
HETATM   23  H11         0      15.194  -1.495  -3.143  1.00  0.00     0.218 HD
ENDBRANCH  18  22
ENDBRANCH   4  14
BRANCH   8  24
HETATM   24  O17         0      17.590   7.708  -7.299  1.00  0.00    -0.359 OA
HETATM   25  H17         0      17.752   8.400  -7.929  1.00  0.00     0.218 HD
ENDBRANCH   8  24
TORSDOF 5
ENDMDL
MODEL 5
REMARK VINA RESULT:      -0.0      5.099      7.119
REMARK  5 active torsions:
REMARK  status: ('A' for Active; 'I' for Inactive)
REMARK    1  A    between atoms: C4_4  and  C5_5 
REMARK    2  A    between atoms: C8_8  and  O9_9 
REMARK    3  A    between atoms: C10_11  and  O11_12 
REMARK    4  A    between atoms: C16_18  and  O17_19 
REMARK    5  A    between atoms: C19_22  and  O20_23 
ROOT
HETATM    1  O1          0      19.157   1.477  -9.460  1.00  0.00    -0.286 OA
HETATM    2  C2          0      19.103   1.852 -10.663  1.00  0.00     0.201 C 
HETATM    3  C3          0      18.553   3.064 -11.047  1.00  0.00     0.067 C 
HETATM    4  C4          0      18.412   3.408 -12.387  1.00  0.00     0.103 C 
HETATM    5  O13         0      18.835   2.560 -13.308  1.00  0.00    -0.307 OA
HETATM    6  C14         0      19.330   1.382 -12.999  1.00  0.00     0.107 C 
HETATM    7  C15         0      19.399   0.352 -13.926  1.00  0.00     0.049 C 
HETATM    8  C16         0      19.680  -0.952 -13.536  1.00  0.00     0.093 C 
HETATM    9  C18         0      20.386  -1.069 -12.345  1.00  0.00     0.048 C 
HETATM   10  C19         0      20.376  -0.039 -11.415  1.00  0.00     0.096 C 
HETATM   11  C21         0      19.681   1.109 -11.681  1.00  0.00     0.084 C 
ENDROOT
BRANCH  10  12
HETATM   12  O20         0      20.696  -0.315 -10.089  1.00  0.00    -0.359 OA
HETATM   13  H20         0      20.003  -0.258  -9.443  1.00  0.00     0.218 HD
ENDBRANCH  10  12
BRANCH   4  14
HETATM   14  C5          0      17.338   4.342 -12.729  1.00  0.00     0.025 C 
HETATM   15  C6          0      16.731   4.366 -13.976  1.00  0.00     0.004 C 
HETATM   16  C7          0      15.360   4.597 -14.022  1.00  0.00     0.026 C 
HETATM   17  C8          0      14.637   4.926 -12.880  1.00  0.00     0.112 C 
HETATM   18  C10         0      15.392   5.486 -11.858  1.00  0.00     0.112 C 
HETATM   19  C12         0      16.743   5.171 -11.786  1.00  0.00     0.028 C 
BRANCH  17  20
HETATM   20  O9          0      13.323   4.519 -12.731  1.00  0.00    -0.357 OA
HETATM   21  H9          0      12.986   3.693 -13.058  1.00  0.00     0.218 HD
ENDBRANCH  17  20
BRANCH  18  22
HETATM   22  O11         0      14.696   6.004 -10.775  1.00  0.00    -0.357 OA
HETATM   23  H11         0      15.020   6.818 -10.405  1.00  0.00     0.218 HD
ENDBRANCH  18  22
ENDBRANCH   4  14
BRANCH   8  24
HETATM   24  O17         0      19.019  -2.043 -14.110  1.00  0.00    -0.359 OA
HETATM   25  H17         0      18.672  -2.008 -14.994  1.00  0.00     0.218 HD
ENDBRANCH   8  24
TORSDOF 5
ENDMDL
MODEL 6
REMARK VINA RESULT:       0.0      6.243      8.598
REMARK  5 active torsions:
REMARK  status: ('A' for Active; 'I' for Inactive)
REMARK    1  A    between atoms: C4_4  and  C5_5 
REMARK    2  A    between atoms: C8_8  and  O9_9 
REMARK    3  A    between atoms: C10_11  and  O11_12 
REMARK    4  A    between atoms: C16_18  and  O17_19 
REMARK    5  A    between atoms: C19_22  and  O20_23 
ROOT
HETATM    1  O1          0      22.430  -2.247 -12.051  1.00  0.00    -0.286 OA
HETATM    2  C2          0      22.027  -1.184 -12.598  1.00  0.00     0.201 C 
HETATM    3  C3          0      22.781  -0.483 -13.523  1.00  0.00     0.067 C 
HETATM    4  C4          0      22.358   0.739 -14.034  1.00  0.00     0.103 C 
HETATM    5  O13         0      21.195   1.224 -13.635  1.00  0.00    -0.307 OA
HETATM    6  C14         0      20.458   0.618 -12.731  1.00  0.00     0.107 C 
HETATM    7  C15         0      19.469   1.288 -12.024  1.00  0.00     0.049 C 
HETATM    8  C16         0      18.872   0.722 -10.904  1.00  0.00     0.093 C 
HETATM    9  C18         0      18.910  -0.666 -10.858  1.00  0.00     0.048 C 
HETATM   10  C19         0      19.857  -1.371 -11.589  1.00  0.00     0.096 C 
HETATM   11  C21         0      20.749  -0.694 -12.375  1.00  0.00     0.084 C 
ENDROOT
BRANCH  10  12
HETATM   12  O20         0      20.173  -2.674 -11.216  1.00  0.00    -0.359 OA
HETATM   13  H20         0      20.419  -3.285 -11.899  1.00  0.00     0.218 HD
ENDBRANCH  10  12
BRANCH   4  14
HETATM   14  C5          0      23.392   1.670 -14.488  1.00  0.00     0.025 C 
HETATM   15  C6          0      23.211   3.045 -14.503  1.00  0.00     0.004 C 
HETATM   16  C7          0      24.297   3.842 -14.151  1.00  0.00     0.026 C 
HETATM   17  C8          0      25.556   3.298 -13.922  1.00  0.00     0.112 C 
HETATM   18  C10         0      25.778   2.071 -14.532  1.00  0.00     0.112 C 
HETATM   19  C12         0      24.682   1.257 -14.796  1.00  0.00     0.028 C 
BRANCH  17  20
HETATM   20  O9          0      26.410   3.857 -12.988  1.00  0.00    -0.357 OA
HETATM   21  H9          0      26.561   4.792 -12.904  1.00  0.00     0.218 HD
ENDBRANCH  17  20
BRANCH  18  22
HETATM   22  O11         0      27.073   1.575 -14.494  1.00  0.00    -0.357 OA
HETATM   23  H11         0      27.661   1.856 -15.186  1.00  0.00     0.218 HD
ENDBRANCH  18  22
ENDBRANCH   4  14
BRANCH   8  24
HETATM   24  O17         0      18.571   1.488  -9.773  1.00  0.00    -0.359 OA
HETATM   25  H17         0      18.793   2.410  -9.721  1.00  0.00     0.218 HD
ENDBRANCH   8  24
TORSDOF 5
ENDMDL
MODEL 7
REMARK VINA RESULT:       0.0     12.428     13.951
REMARK  5 active torsions:
REMARK  status: ('A' for Active; 'I' for Inactive)
REMARK    1  A    between atoms: C4_4  and  C5_5 
REMARK    2  A    between atoms: C8_8  and  O9_9 
REMARK    3  A    between atoms: C10_11  and  O11_12 
REMARK    4  A    between atoms: C16_18  and  O17_19 
REMARK    5  A    between atoms: C19_22  and  O20_23 
ROOT
HETATM    1  O1          0      26.654   4.593 -13.944  1.00  0.00    -0.286 OA
HETATM    2  C2          0      27.287   5.147 -13.004  1.00  0.00     0.201 C 
HETATM    3  C3          0      28.370   4.555 -12.376  1.00  0.00     0.067 C 
HETATM    4  C4          0      28.984   5.142 -11.276  1.00  0.00     0.103 C 
HETATM    5  O13         0      28.529   6.302 -10.839  1.00  0.00    -0.307 OA
HETATM    6  C14         0      27.481   6.889 -11.374  1.00  0.00     0.107 C 
HETATM    7  C15         0      26.765   7.866 -10.698  1.00  0.00     0.049 C 
HETATM    8  C16         0      25.524   8.296 -11.152  1.00  0.00     0.093 C 
HETATM    9  C18         0      25.304   8.120 -12.513  1.00  0.00     0.048 C 
HETATM   10  C19         0      26.036   7.184 -13.231  1.00  0.00     0.096 C 
HETATM   11  C21         0      26.993   6.439 -12.596  1.00  0.00     0.084 C 
ENDROOT
BRANCH  10  12
HETATM   12  O20         0      25.534   6.709 -14.439  1.00  0.00    -0.359 OA
HETATM   13  H20         0      26.103   6.738 -15.199  1.00  0.00     0.218 HD
ENDBRANCH  10  12
BRANCH   4  14
HETATM   14  C5          0      29.663   4.250 -10.333  1.00  0.00     0.025 C 
HETATM   15  C6          0      29.835   4.564  -8.993  1.00  0.00     0.004 C 
HETATM   16  C7          0      29.706   3.532  -8.068  1.00  0.00     0.026 C 
HETATM   17  C8          0      29.545   2.210  -8.468  1.00  0.00     0.112 C 
HETATM   18  C10         0      30.012   1.929  -9.745  1.00  0.00     0.112 C 
HETATM   19  C12         0      30.051   2.961 -10.675  1.00  0.00     0.028 C 
BRANCH  17  20
HETATM   20  O9          0      28.787   1.329  -7.717  1.00  0.00    -0.357 OA
HETATM   21  H9          0      28.788   1.310  -6.766  1.00  0.00     0.218 HD
ENDBRANCH  17  20
BRANCH  18  22
HETATM   22  O11         0      30.050   0.594 -10.121  1.00  0.00    -0.357 OA
HETATM   23  H11         0      30.276   0.409 -11.025  1.00  0.00     0.218 HD
ENDBRANCH  18  22
ENDBRANCH   4  14
BRANCH   8  24
HETATM   24  O17         0      24.475   8.562 -10.266  1.00  0.00    -0.359 OA
HETATM   25  H17         0      24.429   9.374  -9.775  1.00  0.00     0.218 HD
ENDBRANCH   8  24
TORSDOF 5
ENDMDL
MODEL 8
REMARK VINA RESULT:       0.0      6.425      9.890
REMARK  5 active torsions:
REMARK  status: ('A' for Active; 'I' for Inactive)
REMARK    1  A    between atoms: C4_4  and  C5_5 
REMARK    2  A    between atoms: C8_8  and  O9_9 
REMARK    3  A    between atoms: C10_11  and  O11_12 
REMARK    4  A    between atoms: C16_18  and  O17_19 
REMARK    5  A    between atoms: C19_22  and  O20_23 
ROOT
HETATM    1  O1          0      10.168  -5.122 -13.826  1.00  0.00    -0.286 OA
HETATM    2  C2          0      11.349  -5.105 -13.382  1.00  0.00     0.201 C 
HETATM    3  C3          0      11.752  -5.859 -12.293  1.00  0.00     0.067 C 
HETATM    4  C4          0      13.032  -5.745 -11.761  1.00  0.00     0.103 C 
HETATM    5  O13         0      13.882  -4.908 -12.329  1.00  0.00    -0.307 OA
HETATM    6  C14         0      13.540  -4.142 -13.341  1.00  0.00     0.107 C 
HETATM    7  C15         0      14.264  -3.007 -13.677  1.00  0.00     0.049 C 
HETATM    8  C16         0      13.762  -2.070 -14.572  1.00  0.00     0.093 C 
HETATM    9  C18         0      12.823  -2.561 -15.471  1.00  0.00     0.048 C 
HETATM   10  C19         0      12.114  -3.720 -15.188  1.00  0.00     0.096 C 
HETATM   11  C21         0      12.353  -4.395 -14.021  1.00  0.00     0.084 C 
ENDROOT
BRANCH  10  12
HETATM   12  O20         0      10.910  -3.959 -15.844  1.00  0.00    -0.359 OA
HETATM   13  H20         0      10.110  -3.666 -15.426  1.00  0.00     0.218 HD
ENDBRANCH  10  12
BRANCH   4  14
HETATM   14  C5          0      13.198  -6.064 -10.342  1.00  0.00     0.025 C 
HETATM   15  C6          0      14.203  -5.514  -9.560  1.00  0.00     0.004 C 
HETATM   16  C7          0      13.888  -5.179  -8.247  1.00  0.00     0.026 C 
HETATM   17  C8          0      12.657  -5.503  -7.687  1.00  0.00     0.112 C 
HETATM   18  C10         0      12.003  -6.565  -8.298  1.00  0.00     0.112 C 
HETATM   19  C12         0      12.274  -6.825  -9.637  1.00  0.00     0.028 C 
BRANCH  17  20
HETATM   20  O9          0      12.069  -4.681  -6.742  1.00  0.00    -0.357 OA
HETATM   21  H9          0      11.275  -4.183  -6.897  1.00  0.00     0.218 HD
ENDBRANCH  17  20
BRANCH  18  22
HETATM   22  O11         0      10.867  -7.051  -7.668  1.00  0.00    -0.357 OA
HETATM   23  H11         0      10.299  -6.412  -7.252  1.00  0.00     0.218 HD
ENDBRANCH  18  22
ENDBRANCH   4  14
BRANCH   8  24
HETATM   24  O17         0      13.932  -0.697 -14.362  1.00  0.00    -0.359 OA
HETATM   25  H17         0      14.616  -0.360 -13.795  1.00  0.00     0.218 HD
ENDBRANCH   8  24
TORSDOF 5
ENDMDL
MODEL 9
REMARK VINA RESULT:       0.0      5.638      8.028
REMARK  5 active torsions:
REMARK  status: ('A' for Active; 'I' for Inactive)
REMARK    1  A    between atoms: C4_4  and  C5_5 
REMARK    2  A    between atoms: C8_8  and  O9_9 
REMARK    3  A    between atoms: C10_11  and  O11_12 
REMARK    4  A    between atoms: C16_18  and  O17_19 
REMARK    5  A    between atoms: C19_22  and  O20_23 
ROOT
HETATM    1  O1          0      17.538   0.511 -11.293  1.00  0.00    -0.286 OA
HETATM    2  C2          0      17.310   0.104 -12.465  1.00  0.00     0.201 C 
HETATM    3  C3          0      16.039  -0.203 -12.919  1.00  0.00     0.067 C 
HETATM    4  C4          0      15.828  -0.746 -14.181  1.00  0.00     0.103 C 
HETATM    5  O13         0      16.870  -0.951 -14.967  1.00  0.00    -0.307 OA
HETATM    6  C14         0      18.101  -0.712 -14.571  1.00  0.00     0.107 C 
HETATM    7  C15         0      19.197  -1.281 -15.205  1.00  0.00     0.049 C 
HETATM    8  C16         0      20.464  -1.234 -14.637  1.00  0.00     0.093 C 
HETATM    9  C18         0      20.670  -0.187 -13.747  1.00  0.00     0.048 C 
HETATM   10  C19         0      19.593   0.437 -13.130  1.00  0.00     0.096 C 
HETATM   11  C21         0      18.319   0.028 -13.414  1.00  0.00     0.084 C 
ENDROOT
BRANCH  10  12
HETATM   12  O20         0      19.803   1.151 -11.955  1.00  0.00    -0.359 OA
HETATM   13  H20         0      20.626   1.615 -11.856  1.00  0.00     0.218 HD
ENDBRANCH  10  12
BRANCH   4  14
HETATM   14  C5          0      14.635  -1.576 -14.362  1.00  0.00     0.025 C 
HETATM   15  C6          0      14.557  -2.582 -15.314  1.00  0.00     0.004 C 
HETATM   16  C7          0      13.887  -3.750 -14.963  1.00  0.00     0.026 C 
HETATM   17  C8          0      13.204  -3.866 -13.758  1.00  0.00     0.112 C 
HETATM   18  C10         0      12.812  -2.658 -13.196  1.00  0.00     0.112 C 
HETATM   19  C12         0      13.551  -1.519 -13.496  1.00  0.00     0.028 C 
BRANCH  17  20
HETATM   20  O9          0      13.127  -5.080 -13.099  1.00  0.00    -0.357 OA
HETATM   21  H9          0      12.334  -5.601 -13.042  1.00  0.00     0.218 HD
ENDBRANCH  17  20
BRANCH  18  22
HETATM   22  O11         0      11.967  -2.721 -12.097  1.00  0.00    -0.357 OA
HETATM   23  H11         0      12.300  -3.160 -11.323  1.00  0.00     0.218 HD
ENDBRANCH  18  22
ENDBRANCH   4  14
BRANCH   8  24
HETATM   24  O17         0      21.331  -2.331 -14.695  1.00  0.00    -0.359 OA
HETATM   25  H17         0      21.198  -3.101 -14.155  1.00  0.00     0.218 HD
ENDBRANCH   8  24
TORSDOF 5
ENDMDL
