MODEL 1
REMARK VINA RESULT:      -1.4      0.000      0.000
REMARK  5 active torsions:
REMARK  status: ('A' for Active; 'I' for Inactive)
REMARK    1  A    between atoms: C4_4  and  C5_5 
REMARK    2  A    between atoms: C8_8  and  O9_9 
REMARK    3  A    between atoms: C10_11  and  O11_12 
REMARK    4  A    between atoms: C16_18  and  O17_19 
REMARK    5  A    between atoms: C19_22  and  O20_23 
ROOT
HETATM    1  O1          0      45.442 100.813 -28.723  1.00  0.00    -0.286 OA
HETATM    2  C2          0      46.191 100.464 -27.769  1.00  0.00     0.201 C 
HETATM    3  C3          0      45.759 100.417 -26.454  1.00  0.00     0.067 C 
HETATM    4  C4          0      46.632 100.129 -25.411  1.00  0.00     0.103 C 
HETATM    5  O13         0      47.897  99.875 -25.694  1.00  0.00    -0.307 OA
HETATM    6  C14         0      48.367  99.943 -26.920  1.00  0.00     0.107 C 
HETATM    7  C15         0      49.724 100.076 -27.177  1.00  0.00     0.049 C 
HETATM    8  C16         0      50.190 100.401 -28.445  1.00  0.00     0.093 C 
HETATM    9  C18         0      49.336 100.064 -29.489  1.00  0.00     0.048 C 
HETATM   10  C19         0      47.980  99.877 -29.258  1.00  0.00     0.096 C 
HETATM   11  C21         0      47.482 100.010 -27.991  1.00  0.00     0.084 C 
ENDROOT
BRANCH  10  12
HETATM   12  O20         0      47.089  99.975 -30.323  1.00  0.00    -0.359 OA
HETATM   13  H20         0      46.762  99.170 -30.705  1.00  0.00     0.218 HD
ENDBRANCH  10  12
BRANCH   4  14
HETATM   14  C5          0      46.299 100.668 -24.091  1.00  0.00     0.025 C 
HETATM   15  C6          0      45.341 100.097 -23.266  1.00  0.00     0.004 C 
HETATM   16  C7          0      45.600 100.072 -21.899  1.00  0.00     0.026 C 
HETATM   17  C8          0      46.709 100.711 -21.355  1.00  0.00     0.112 C 
HETATM   18  C10         0      47.222 101.743 -22.130  1.00  0.00     0.112 C 
HETATM   19  C12         0      47.021 101.699 -23.504  1.00  0.00     0.028 C 
BRANCH  17  20
HETATM   20  O9          0      47.348 100.196 -20.242  1.00  0.00    -0.357 OA
HETATM   21  H9          0      46.892  99.867 -19.476  1.00  0.00     0.218 HD
ENDBRANCH  17  20
BRANCH  18  22
HETATM   22  O11         0      48.205 102.534 -21.552  1.00  0.00    -0.357 OA
HETATM   23  H11         0      48.094 102.757 -20.635  1.00  0.00     0.218 HD
ENDBRANCH  18  22
ENDBRANCH   4  14
BRANCH   8  24
HETATM   24  O17         0      51.255 101.290 -28.625  1.00  0.00    -0.359 OA
HETATM   25  H17         0      51.964 101.353 -27.996  1.00  0.00     0.218 HD
ENDBRANCH   8  24
TORSDOF 5
ENDMDL
MODEL 2
REMARK VINA RESULT:      -1.4      1.496      2.308
REMARK  5 active torsions:
REMARK  status: ('A' for Active; 'I' for Inactive)
REMARK    1  A    between atoms: C4_4  and  C5_5 
REMARK    2  A    between atoms: C8_8  and  O9_9 
REMARK    3  A    between atoms: C10_11  and  O11_12 
REMARK    4  A    between atoms: C16_18  and  O17_19 
REMARK    5  A    between atoms: C19_22  and  O20_23 
ROOT
HETATM    1  O1          0      47.476 100.693 -30.971  1.00  0.00    -0.286 OA
HETATM    2  C2          0      47.877 100.395 -29.812  1.00  0.00     0.201 C 
HETATM    3  C3          0      47.033 100.347 -28.716  1.00  0.00     0.067 C 
HETATM    4  C4          0      47.518 100.117 -27.433  1.00  0.00     0.103 C 
HETATM    5  O13         0      48.815  99.922 -27.270  1.00  0.00    -0.307 OA
HETATM    6  C14         0      49.664  99.995 -28.271  1.00  0.00     0.107 C 
HETATM    7  C15         0      51.022 100.191 -28.065  1.00  0.00     0.049 C 
HETATM    8  C16         0      51.871 100.521 -29.115  1.00  0.00     0.093 C 
HETATM    9  C18         0      51.430 100.126 -30.372  1.00  0.00     0.048 C 
HETATM   10  C19         0      50.084  99.876 -30.602  1.00  0.00     0.096 C 
HETATM   11  C21         0      49.186 100.003 -29.577  1.00  0.00     0.084 C 
ENDROOT
BRANCH  10  12
HETATM   12  O20         0      49.597  99.914 -31.905  1.00  0.00    -0.359 OA
HETATM   13  H20         0      50.224 100.016 -32.611  1.00  0.00     0.218 HD
ENDBRANCH  10  12
BRANCH   4  14
HETATM   14  C5          0      46.741 100.658 -26.317  1.00  0.00     0.025 C 
HETATM   15  C6          0      45.472 100.200 -25.992  1.00  0.00     0.004 C 
HETATM   16  C7          0      45.149 100.100 -24.642  1.00  0.00     0.026 C 
HETATM   17  C8          0      46.006 100.565 -23.651  1.00  0.00     0.112 C 
HETATM   18  C10         0      46.902 101.540 -24.069  1.00  0.00     0.112 C 
HETATM   19  C12         0      47.274 101.564 -25.408  1.00  0.00     0.028 C 
BRANCH  17  20
HETATM   20  O9          0      46.074  99.936 -22.421  1.00  0.00    -0.357 OA
HETATM   21  H9          0      45.313  99.725 -21.893  1.00  0.00     0.218 HD
ENDBRANCH  17  20
BRANCH  18  22
HETATM   22  O11         0      47.649 102.171 -23.085  1.00  0.00    -0.357 OA
HETATM   23  H11         0      48.593 102.080 -23.136  1.00  0.00     0.218 HD
ENDBRANCH  18  22
ENDBRANCH   4  14
BRANCH   8  24
HETATM   24  O17         0      52.897 101.458 -28.956  1.00  0.00    -0.359 OA
HETATM   25  H17         0      53.798 101.256 -29.182  1.00  0.00     0.218 HD
ENDBRANCH   8  24
TORSDOF 5
ENDMDL
MODEL 3
REMARK VINA RESULT:      -1.3      4.874     10.079
REMARK  5 active torsions:
REMARK  status: ('A' for Active; 'I' for Inactive)
REMARK    1  A    between atoms: C4_4  and  C5_5 
REMARK    2  A    between atoms: C8_8  and  O9_9 
REMARK    3  A    between atoms: C10_11  and  O11_12 
REMARK    4  A    between atoms: C16_18  and  O17_19 
REMARK    5  A    between atoms: C19_22  and  O20_23 
ROOT
HETATM    1  O1          0      52.184 101.094 -28.227  1.00  0.00    -0.286 OA
HETATM    2  C2          0      52.024 100.720 -29.421  1.00  0.00     0.201 C 
HETATM    3  C3          0      53.031 100.787 -30.370  1.00  0.00     0.067 C 
HETATM    4  C4          0      52.799 100.466 -31.702  1.00  0.00     0.103 C 
HETATM    5  O13         0      51.590 100.069 -32.058  1.00  0.00    -0.307 OA
HETATM    6  C14         0      50.590 100.024 -31.206  1.00  0.00     0.107 C 
HETATM    7  C15         0      49.269 100.003 -31.629  1.00  0.00     0.049 C 
HETATM    8  C16         0      48.222 100.212 -30.739  1.00  0.00     0.093 C 
HETATM    9  C18         0      48.510  99.909 -29.414  1.00  0.00     0.048 C 
HETATM   10  C19         0      49.824  99.875 -28.967  1.00  0.00     0.096 C 
HETATM   11  C21         0      50.845 100.125 -29.842  1.00  0.00     0.084 C 
ENDROOT
BRANCH  10  12
HETATM   12  O20         0      50.083 100.008 -27.607  1.00  0.00    -0.359 OA
HETATM   13  H20         0      50.254 100.879 -27.269  1.00  0.00     0.218 HD
ENDBRANCH  10  12
BRANCH   4  14
HETATM   14  C5          0      53.654 101.105 -32.704  1.00  0.00     0.025 C 
HETATM   15  C6          0      54.951 101.517 -32.432  1.00  0.00     0.004 C 
HETATM   16  C7          0      55.905 101.343 -33.430  1.00  0.00     0.026 C 
HETATM   17  C8          0      55.558 100.899 -34.701  1.00  0.00     0.112 C 
HETATM   18  C10         0      54.234 101.124 -35.053  1.00  0.00     0.112 C 
HETATM   19  C12         0      53.287 101.210 -34.039  1.00  0.00     0.028 C 
BRANCH  17  20
HETATM   20  O9          0      56.426 100.113 -35.439  1.00  0.00    -0.357 OA
HETATM   21  H9          0      56.505  99.172 -35.334  1.00  0.00     0.218 HD
ENDBRANCH  17  20
BRANCH  18  22
HETATM   22  O11         0      53.882 100.875 -36.372  1.00  0.00    -0.357 OA
HETATM   23  H11         0      52.972 100.660 -36.541  1.00  0.00     0.218 HD
ENDBRANCH  18  22
ENDBRANCH   4  14
BRANCH   8  24
HETATM   24  O17         0      47.105 100.976 -31.094  1.00  0.00    -0.359 OA
HETATM   25  H17         0      46.518 100.708 -31.792  1.00  0.00     0.218 HD
ENDBRANCH   8  24
TORSDOF 5
ENDMDL
MODEL 4
REMARK VINA RESULT:      -1.3      3.507      8.279
REMARK  5 active torsions:
REMARK  status: ('A' for Active; 'I' for Inactive)
REMARK    1  A    between atoms: C4_4  and  C5_5 
REMARK    2  A    between atoms: C8_8  and  O9_9 
REMARK    3  A    between atoms: C10_11  and  O11_12 
REMARK    4  A    between atoms: C16_18  and  O17_19 
REMARK    5  A    between atoms: C19_22  and  O20_23 
ROOT
HETATM    1  O1          0      49.855 101.060 -26.647  1.00  0.00    -0.286 OA
HETATM    2  C2          0      49.802 100.658 -27.842  1.00  0.00     0.201 C 
HETATM    3  C3          0      50.897 100.677 -28.689  1.00  0.00     0.067 C 
HETATM    4  C4          0      50.787 100.325 -30.030  1.00  0.00     0.103 C 
HETATM    5  O13         0      49.608  99.945 -30.492  1.00  0.00    -0.307 OA
HETATM    6  C14         0      48.530  99.946 -29.740  1.00  0.00     0.107 C 
HETATM    7  C15         0      47.256  99.943 -30.289  1.00  0.00     0.049 C 
HETATM    8  C16         0      46.133 100.199 -29.510  1.00  0.00     0.093 C 
HETATM    9  C18         0      46.284  99.926 -28.156  1.00  0.00     0.048 C 
HETATM   10  C19         0      47.547  99.875 -27.583  1.00  0.00     0.096 C 
HETATM   11  C21         0      48.654 100.078 -28.361  1.00  0.00     0.084 C 
ENDROOT
BRANCH  10  12
HETATM   12  O20         0      47.677 100.039 -26.207  1.00  0.00    -0.359 OA
HETATM   13  H20         0      47.426  99.315 -25.647  1.00  0.00     0.218 HD
ENDBRANCH  10  12
BRANCH   4  14
HETATM   14  C5          0      51.751 100.917 -30.959  1.00  0.00     0.025 C 
HETATM   15  C6          0      52.875 101.611 -30.535  1.00  0.00     0.004 C 
HETATM   16  C7          0      54.050 101.439 -31.260  1.00  0.00     0.026 C 
HETATM   17  C8          0      54.077 100.708 -32.443  1.00  0.00     0.112 C 
HETATM   18  C10         0      52.853 100.609 -33.091  1.00  0.00     0.112 C 
HETATM   19  C12         0      51.693 100.700 -32.329  1.00  0.00     0.028 C 
BRANCH  17  20
HETATM   20  O9          0      55.197  99.979 -32.800  1.00  0.00    -0.357 OA
HETATM   21  H9          0      55.288  99.044 -32.651  1.00  0.00     0.218 HD
ENDBRANCH  17  20
BRANCH  18  22
HETATM   22  O11         0      52.859 100.056 -34.363  1.00  0.00    -0.357 OA
HETATM   23  H11         0      52.688 100.645 -35.089  1.00  0.00     0.218 HD
ENDBRANCH  18  22
ENDBRANCH   4  14
BRANCH   8  24
HETATM   24  O17         0      45.075 100.978 -29.991  1.00  0.00    -0.359 OA
HETATM   25  H17         0      45.208 101.649 -30.649  1.00  0.00     0.218 HD
ENDBRANCH   8  24
TORSDOF 5
ENDMDL
MODEL 5
REMARK VINA RESULT:      -1.3      3.098      8.223
REMARK  5 active torsions:
REMARK  status: ('A' for Active; 'I' for Inactive)
REMARK    1  A    between atoms: C4_4  and  C5_5 
REMARK    2  A    between atoms: C8_8  and  O9_9 
REMARK    3  A    between atoms: C10_11  and  O11_12 
REMARK    4  A    between atoms: C16_18  and  O17_19 
REMARK    5  A    between atoms: C19_22  and  O20_23 
ROOT
HETATM    1  O1          0      51.797 100.906 -25.698  1.00  0.00    -0.286 OA
HETATM    2  C2          0      51.422 100.530 -26.843  1.00  0.00     0.201 C 
HETATM    3  C3          0      52.276 100.471 -27.931  1.00  0.00     0.067 C 
HETATM    4  C4          0      51.815 100.152 -29.203  1.00  0.00     0.103 C 
HETATM    5  O13         0      50.532  99.880 -29.363  1.00  0.00    -0.307 OA
HETATM    6  C14         0      49.672  99.957 -28.371  1.00  0.00     0.107 C 
HETATM    7  C15         0      48.307 100.070 -28.595  1.00  0.00     0.049 C 
HETATM    8  C16         0      47.433 100.405 -27.568  1.00  0.00     0.093 C 
HETATM    9  C18         0      47.884 100.098 -26.290  1.00  0.00     0.048 C 
HETATM   10  C19         0      49.239  99.933 -26.040  1.00  0.00     0.096 C 
HETATM   11  C21         0      50.138 100.056 -27.065  1.00  0.00     0.084 C 
ENDROOT
BRANCH  10  12
HETATM   12  O20         0      49.712 100.063 -24.738  1.00  0.00    -0.359 OA
HETATM   13  H20         0      50.622 100.305 -24.618  1.00  0.00     0.218 HD
ENDBRANCH  10  12
BRANCH   4  14
HETATM   14  C5          0      52.572 100.677 -30.341  1.00  0.00     0.025 C 
HETATM   15  C6          0      53.387  99.882 -31.133  1.00  0.00     0.004 C 
HETATM   16  C7          0      53.404 100.138 -32.501  1.00  0.00     0.026 C 
HETATM   17  C8          0      52.740 101.231 -33.046  1.00  0.00     0.112 C 
HETATM   18  C10         0      52.511 102.274 -32.158  1.00  0.00     0.112 C 
HETATM   19  C12         0      52.413 101.977 -30.804  1.00  0.00     0.028 C 
BRANCH  17  20
HETATM   20  O9          0      52.181 101.163 -34.310  1.00  0.00    -0.357 OA
HETATM   21  H9          0      51.773 100.381 -34.666  1.00  0.00     0.218 HD
ENDBRANCH  17  20
BRANCH  18  22
HETATM   22  O11         0      52.024 103.459 -32.691  1.00  0.00    -0.357 OA
HETATM   23  H11         0      52.329 103.697 -33.559  1.00  0.00     0.218 HD
ENDBRANCH  18  22
ENDBRANCH   4  14
BRANCH   8  24
HETATM   24  O17         0      46.359 101.277 -27.780  1.00  0.00    -0.359 OA
HETATM   25  H17         0      45.521 100.968 -28.101  1.00  0.00     0.218 HD
ENDBRANCH   8  24
TORSDOF 5
ENDMDL
MODEL 6
REMARK VINA RESULT:      -1.3      3.317      5.470
REMARK  5 active torsions:
REMARK  status: ('A' for Active; 'I' for Inactive)
REMARK    1  A    between atoms: C4_4  and  C5_5 
REMARK    2  A    between atoms: C8_8  and  O9_9 
REMARK    3  A    between atoms: C10_11  and  O11_12 
REMARK    4  A    between atoms: C16_18  and  O17_19 
REMARK    5  A    between atoms: C19_22  and  O20_23 
ROOT
HETATM    1  O1          0      50.549 101.016 -33.000  1.00  0.00    -0.286 OA
HETATM    2  C2          0      50.856 100.609 -31.846  1.00  0.00     0.201 C 
HETATM    3  C3          0      49.941 100.534 -30.809  1.00  0.00     0.067 C 
HETATM    4  C4          0      50.327 100.180 -29.521  1.00  0.00     0.103 C 
HETATM    5  O13         0      51.596  99.891 -29.296  1.00  0.00    -0.307 OA
HETATM    6  C14         0      52.512  99.983 -30.235  1.00  0.00     0.107 C 
HETATM    7  C15         0      53.862 100.077 -29.933  1.00  0.00     0.049 C 
HETATM    8  C16         0      54.796 100.428 -30.901  1.00  0.00     0.093 C 
HETATM    9  C18         0      54.416 100.156 -32.209  1.00  0.00     0.048 C 
HETATM   10  C19         0      53.075 100.009 -32.538  1.00  0.00     0.096 C 
HETATM   11  C21         0      52.121 100.118 -31.563  1.00  0.00     0.084 C 
ENDROOT
BRANCH  10  12
HETATM   12  O20         0      52.677 100.175 -33.861  1.00  0.00    -0.359 OA
HETATM   13  H20         0      51.977 100.790 -34.042  1.00  0.00     0.218 HD
ENDBRANCH  10  12
BRANCH   4  14
HETATM   14  C5          0      49.511 100.686 -28.415  1.00  0.00     0.025 C 
HETATM   15  C6          0      48.244 100.199 -28.131  1.00  0.00     0.004 C 
HETATM   16  C7          0      47.889 100.068 -26.793  1.00  0.00     0.026 C 
HETATM   17  C8          0      48.712 100.530 -25.771  1.00  0.00     0.112 C 
HETATM   18  C10         0      49.600 101.528 -26.149  1.00  0.00     0.112 C 
HETATM   19  C12         0      50.005 101.584 -27.477  1.00  0.00     0.028 C 
BRANCH  17  20
HETATM   20  O9          0      48.761  99.879 -24.551  1.00  0.00    -0.357 OA
HETATM   21  H9          0      49.339 100.132 -23.841  1.00  0.00     0.218 HD
ENDBRANCH  17  20
BRANCH  18  22
HETATM   22  O11         0      50.309 102.155 -25.134  1.00  0.00    -0.357 OA
HETATM   23  H11         0      50.386 103.101 -25.184  1.00  0.00     0.218 HD
ENDBRANCH  18  22
ENDBRANCH   4  14
BRANCH   8  24
HETATM   24  O17         0      55.863 101.284 -30.607  1.00  0.00    -0.359 OA
HETATM   25  H17         0      55.919 101.747 -29.780  1.00  0.00     0.218 HD
ENDBRANCH   8  24
TORSDOF 5
ENDMDL
MODEL 7
REMARK VINA RESULT:      -1.2      2.184      6.362
REMARK  5 active torsions:
REMARK  status: ('A' for Active; 'I' for Inactive)
REMARK    1  A    between atoms: C4_4  and  C5_5 
REMARK    2  A    between atoms: C8_8  and  O9_9 
REMARK    3  A    between atoms: C10_11  and  O11_12 
REMARK    4  A    between atoms: C16_18  and  O17_19 
REMARK    5  A    between atoms: C19_22  and  O20_23 
ROOT
HETATM    1  O1          0      50.164 100.787 -26.326  1.00  0.00    -0.286 OA
HETATM    2  C2          0      48.948 100.454 -26.382  1.00  0.00     0.201 C 
HETATM    3  C3          0      48.250 100.361 -27.574  1.00  0.00     0.067 C 
HETATM    4  C4          0      46.886 100.093 -27.601  1.00  0.00     0.103 C 
HETATM    5  O13         0      46.254  99.904 -26.456  1.00  0.00    -0.307 OA
HETATM    6  C14         0      46.862 100.018 -25.295  1.00  0.00     0.107 C 
HETATM    7  C15         0      46.156 100.219 -24.117  1.00  0.00     0.049 C 
HETATM    8  C16         0      46.801 100.591 -22.944  1.00  0.00     0.093 C 
HETATM    9  C18         0      48.143 100.235 -22.873  1.00  0.00     0.048 C 
HETATM   10  C19         0      48.867  99.981 -24.030  1.00  0.00     0.096 C 
HETATM   11  C21         0      48.251 100.065 -25.249  1.00  0.00     0.084 C 
ENDROOT
BRANCH  10  12
HETATM   12  O20         0      50.256 100.059 -23.994  1.00  0.00    -0.359 OA
HETATM   13  H20         0      50.679 100.070 -23.144  1.00  0.00     0.218 HD
ENDBRANCH  10  12
BRANCH   4  14
HETATM   14  C5          0      46.128 100.589 -28.750  1.00  0.00     0.025 C 
HETATM   15  C6          0      46.003  99.875 -29.933  1.00  0.00     0.004 C 
HETATM   16  C7          0      44.775  99.920 -30.586  1.00  0.00     0.026 C 
HETATM   17  C8          0      43.748 100.752 -30.153  1.00  0.00     0.112 C 
HETATM   18  C10         0      44.164 101.843 -29.402  1.00  0.00     0.112 C 
HETATM   19  C12         0      45.354 101.741 -28.691  1.00  0.00     0.028 C 
BRANCH  17  20
HETATM   20  O9          0      42.424 100.376 -30.294  1.00  0.00    -0.357 OA
HETATM   21  H9          0      41.931  99.918 -29.623  1.00  0.00     0.218 HD
ENDBRANCH  17  20
BRANCH  18  22
HETATM   22  O11         0      43.207 102.803 -29.105  1.00  0.00    -0.357 OA
HETATM   23  H11         0      43.524 103.645 -28.797  1.00  0.00     0.218 HD
ENDBRANCH  18  22
ENDBRANCH   4  14
BRANCH   8  24
HETATM   24  O17         0      46.243 101.532 -22.071  1.00  0.00    -0.359 OA
HETATM   25  H17         0      45.500 102.067 -22.324  1.00  0.00     0.218 HD
ENDBRANCH   8  24
TORSDOF 5
ENDMDL
MODEL 8
REMARK VINA RESULT:      -1.2      2.850      4.716
REMARK  5 active torsions:
REMARK  status: ('A' for Active; 'I' for Inactive)
REMARK    1  A    between atoms: C4_4  and  C5_5 
REMARK    2  A    between atoms: C8_8  and  O9_9 
REMARK    3  A    between atoms: C10_11  and  O11_12 
REMARK    4  A    between atoms: C16_18  and  O17_19 
REMARK    5  A    between atoms: C19_22  and  O20_23 
ROOT
HETATM    1  O1          0      49.463 100.291 -30.123  1.00  0.00    -0.286 OA
HETATM    2  C2          0      49.039 100.197 -28.938  1.00  0.00     0.201 C 
HETATM    3  C3          0      47.724  99.890 -28.634  1.00  0.00     0.067 C 
HETATM    4  C4          0      47.259  99.893 -27.324  1.00  0.00     0.103 C 
HETATM    5  O13         0      48.106 100.177 -26.351  1.00  0.00    -0.307 OA
HETATM    6  C14         0      49.356 100.512 -26.587  1.00  0.00     0.107 C 
HETATM    7  C15         0      50.123 101.184 -25.647  1.00  0.00     0.049 C 
HETATM    8  C16         0      51.343 101.756 -25.987  1.00  0.00     0.093 C 
HETATM    9  C18         0      51.972 101.187 -27.087  1.00  0.00     0.048 C 
HETATM   10  C19         0      51.242 100.467 -28.023  1.00  0.00     0.096 C 
HETATM   11  C21         0      49.894 100.303 -27.852  1.00  0.00     0.084 C 
ENDROOT
BRANCH  10  12
HETATM   12  O20         0      51.765 100.284 -29.299  1.00  0.00    -0.359 OA
HETATM   13  H20         0      51.502 100.892 -29.979  1.00  0.00     0.218 HD
ENDBRANCH  10  12
BRANCH   4  14
HETATM   14  C5          0      45.834 100.163 -27.119  1.00  0.00     0.025 C 
HETATM   15  C6          0      45.348 100.830 -26.004  1.00  0.00     0.004 C 
HETATM   16  C7          0      44.292 101.716 -26.194  1.00  0.00     0.026 C 
HETATM   17  C8          0      43.652 101.836 -27.422  1.00  0.00     0.112 C 
HETATM   18  C10         0      43.770 100.726 -28.249  1.00  0.00     0.112 C 
HETATM   19  C12         0      44.880  99.904 -28.095  1.00  0.00     0.028 C 
BRANCH  17  20
HETATM   20  O9          0      43.134 103.050 -27.836  1.00  0.00    -0.357 OA
HETATM   21  H9          0      42.499 103.142 -28.537  1.00  0.00     0.218 HD
ENDBRANCH  17  20
BRANCH  18  22
HETATM   22  O11         0      42.998 100.716 -29.401  1.00  0.00    -0.357 OA
HETATM   23  H11         0      42.514 101.509 -29.602  1.00  0.00     0.218 HD
ENDBRANCH  18  22
ENDBRANCH   4  14
BRANCH   8  24
HETATM   24  O17         0      51.730 103.002 -25.481  1.00  0.00    -0.359 OA
HETATM   25  H17         0      52.487 103.098 -24.915  1.00  0.00     0.218 HD
ENDBRANCH   8  24
TORSDOF 5
ENDMDL
MODEL 9
REMARK VINA RESULT:      -1.2      3.595      5.979
REMARK  5 active torsions:
REMARK  status: ('A' for Active; 'I' for Inactive)
REMARK    1  A    between atoms: C4_4  and  C5_5 
REMARK    2  A    between atoms: C8_8  and  O9_9 
REMARK    3  A    between atoms: C10_11  and  O11_12 
REMARK    4  A    between atoms: C16_18  and  O17_19 
REMARK    5  A    between atoms: C19_22  and  O20_23 
ROOT
HETATM    1  O1          0      49.015 101.192 -34.562  1.00  0.00    -0.286 OA
HETATM    2  C2          0      49.362 100.728 -33.441  1.00  0.00     0.201 C 
HETATM    3  C3          0      48.483 100.597 -32.379  1.00  0.00     0.067 C 
HETATM    4  C4          0      48.913 100.180 -31.125  1.00  0.00     0.103 C 
HETATM    5  O13         0      50.191  99.885 -30.958  1.00  0.00    -0.307 OA
HETATM    6  C14         0      51.073 100.027 -31.922  1.00  0.00     0.107 C 
HETATM    7  C15         0      52.433 100.110 -31.662  1.00  0.00     0.049 C 
HETATM    8  C16         0      53.332 100.513 -32.642  1.00  0.00     0.093 C 
HETATM    9  C18         0      52.908 100.306 -33.949  1.00  0.00     0.048 C 
HETATM   10  C19         0      51.557 100.172 -34.239  1.00  0.00     0.096 C 
HETATM   11  C21         0      50.637 100.227 -33.227  1.00  0.00     0.084 C 
ENDROOT
BRANCH  10  12
HETATM   12  O20         0      51.113 100.403 -35.537  1.00  0.00    -0.359 OA
HETATM   13  H20         0      51.429  99.828 -36.224  1.00  0.00     0.218 HD
ENDBRANCH  10  12
BRANCH   4  14
HETATM   14  C5          0      48.136 100.626 -29.967  1.00  0.00     0.025 C 
HETATM   15  C6          0      46.979  99.986 -29.546  1.00  0.00     0.004 C 
HETATM   16  C7          0      46.766  99.877 -28.176  1.00  0.00     0.026 C 
HETATM   17  C8          0      47.602 100.499 -27.255  1.00  0.00     0.112 C 
HETATM   18  C10         0      48.305 101.588 -27.754  1.00  0.00     0.112 C 
HETATM   19  C12         0      48.579 101.630 -29.116  1.00  0.00     0.028 C 
BRANCH  17  20
HETATM   20  O9          0      47.850  99.924 -26.021  1.00  0.00    -0.357 OA
HETATM   21  H9          0      48.278  99.084 -25.907  1.00  0.00     0.218 HD
ENDBRANCH  17  20
BRANCH  18  22
HETATM   22  O11         0      49.006 102.357 -26.836  1.00  0.00    -0.357 OA
HETATM   23  H11         0      49.008 103.297 -26.975  1.00  0.00     0.218 HD
ENDBRANCH  18  22
ENDBRANCH   4  14
BRANCH   8  24
HETATM   24  O17         0      54.408 101.357 -32.343  1.00  0.00    -0.359 OA
HETATM   25  H17         0      54.784 101.936 -32.995  1.00  0.00     0.218 HD
ENDBRANCH   8  24
TORSDOF 5
ENDMDL
