MODEL 1
REMARK VINA RESULT:      -0.7      0.000      0.000
REMARK  5 active torsions:
REMARK  status: ('A' for Active; 'I' for Inactive)
REMARK    1  A    between atoms: C4_4  and  C5_5 
REMARK    2  A    between atoms: C8_8  and  O9_9 
REMARK    3  A    between atoms: C10_11  and  O11_12 
REMARK    4  A    between atoms: C16_18  and  O17_19 
REMARK    5  A    between atoms: C19_22  and  O20_23 
ROOT
HETATM    1  O1          0      25.990 104.793 -10.366  1.00  0.00    -0.286 OA
HETATM    2  C2          0      27.248 104.877 -10.402  1.00  0.00     0.201 C 
HETATM    3  C3          0      27.919 106.088 -10.403  1.00  0.00     0.067 C 
HETATM    4  C4          0      29.300 106.156 -10.547  1.00  0.00     0.103 C 
HETATM    5  O13         0      29.982 105.030 -10.667  1.00  0.00    -0.307 OA
HETATM    6  C14         0      29.391 103.856 -10.710  1.00  0.00     0.107 C 
HETATM    7  C15         0      30.027 102.736 -11.225  1.00  0.00     0.049 C 
HETATM    8  C16         0      29.323 101.571 -11.504  1.00  0.00     0.093 C 
HETATM    9  C18         0      28.151 101.405 -10.777  1.00  0.00     0.048 C 
HETATM   10  C19         0      27.513 102.499 -10.208  1.00  0.00     0.096 C 
HETATM   11  C21         0      28.052 103.749 -10.350  1.00  0.00     0.084 C 
ENDROOT
BRANCH  10  12
HETATM   12  O20         0      26.165 102.404  -9.876  1.00  0.00    -0.359 OA
HETATM   13  H20         0      25.880 101.642  -9.387  1.00  0.00     0.218 HD
ENDBRANCH  10  12
BRANCH   4  14
HETATM   14  C5          0      29.853 107.380 -11.130  1.00  0.00     0.025 C 
HETATM   15  C6          0      30.008 107.559 -12.497  1.00  0.00     0.004 C 
HETATM   16  C7          0      29.745 108.823 -13.015  1.00  0.00     0.026 C 
HETATM   17  C8          0      29.469 109.907 -12.189  1.00  0.00     0.112 C 
HETATM   18  C10         0      29.952 109.786 -10.892  1.00  0.00     0.112 C 
HETATM   19  C12         0      30.124 108.510 -10.369  1.00  0.00     0.028 C 
BRANCH  17  20
HETATM   20  O9          0      28.602 110.906 -12.595  1.00  0.00    -0.357 OA
HETATM   21  H9          0      27.779 111.099 -12.162  1.00  0.00     0.218 HD
ENDBRANCH  17  20
BRANCH  18  22
HETATM   22  O11         0      29.871 110.911 -10.084  1.00  0.00    -0.357 OA
HETATM   23  H11         0      29.109 111.468 -10.197  1.00  0.00     0.218 HD
ENDBRANCH  18  22
ENDBRANCH   4  14
BRANCH   8  24
HETATM   24  O17         0      29.593 100.812 -12.648  1.00  0.00    -0.359 OA
HETATM   25  H17         0      30.470 100.509 -12.851  1.00  0.00     0.218 HD
ENDBRANCH   8  24
TORSDOF 5
ENDMDL
MODEL 2
REMARK VINA RESULT:      -0.6      2.773      6.621
REMARK  5 active torsions:
REMARK  status: ('A' for Active; 'I' for Inactive)
REMARK    1  A    between atoms: C4_4  and  C5_5 
REMARK    2  A    between atoms: C8_8  and  O9_9 
REMARK    3  A    between atoms: C10_11  and  O11_12 
REMARK    4  A    between atoms: C16_18  and  O17_19 
REMARK    5  A    between atoms: C19_22  and  O20_23 
ROOT
HETATM    1  O1          0      26.462 105.739 -15.090  1.00  0.00    -0.286 OA
HETATM    2  C2          0      27.311 106.065 -14.217  1.00  0.00     0.201 C 
HETATM    3  C3          0      28.326 105.219 -13.804  1.00  0.00     0.067 C 
HETATM    4  C4          0      29.186 105.563 -12.767  1.00  0.00     0.103 C 
HETATM    5  O13         0      29.035 106.738 -12.181  1.00  0.00    -0.307 OA
HETATM    6  C14         0      28.065 107.563 -12.509  1.00  0.00     0.107 C 
HETATM    7  C15         0      27.656 108.584 -11.663  1.00  0.00     0.049 C 
HETATM    8  C16         0      26.478 109.285 -11.894  1.00  0.00     0.093 C 
HETATM    9  C18         0      26.050 109.293 -13.216  1.00  0.00     0.048 C 
HETATM   10  C19         0      26.477 108.313 -14.102  1.00  0.00     0.096 C 
HETATM   11  C21         0      27.340 107.341 -13.675  1.00  0.00     0.084 C 
ENDROOT
BRANCH  10  12
HETATM   12  O20         0      25.735 108.067 -15.254  1.00  0.00    -0.359 OA
HETATM   13  H20         0      26.130 107.532 -15.931  1.00  0.00     0.218 HD
ENDBRANCH  10  12
BRANCH   4  14
HETATM   14  C5          0      29.789 104.468 -12.005  1.00  0.00     0.025 C 
HETATM   15  C6          0      30.009 104.537 -10.637  1.00  0.00     0.004 C 
HETATM   16  C7          0      29.796 103.382  -9.891  1.00  0.00     0.026 C 
HETATM   17  C8          0      29.503 102.165 -10.499  1.00  0.00     0.112 C 
HETATM   18  C10         0      29.923 102.060 -11.818  1.00  0.00     0.112 C 
HETATM   19  C12         0      30.047 103.224 -12.566  1.00  0.00     0.028 C 
BRANCH  17  20
HETATM   20  O9          0      28.675 101.245  -9.880  1.00  0.00    -0.357 OA
HETATM   21  H9          0      28.652 101.104  -8.941  1.00  0.00     0.218 HD
ENDBRANCH  17  20
BRANCH  18  22
HETATM   22  O11         0      29.827 100.809 -12.410  1.00  0.00    -0.357 OA
HETATM   23  H11         0      28.952 100.484 -12.591  1.00  0.00     0.218 HD
ENDBRANCH  18  22
ENDBRANCH   4  14
BRANCH   8  24
HETATM   24  O17         0      25.630 109.651 -10.843  1.00  0.00    -0.359 OA
HETATM   25  H17         0      25.034 110.388 -10.917  1.00  0.00     0.218 HD
ENDBRANCH   8  24
TORSDOF 5
ENDMDL
MODEL 3
REMARK VINA RESULT:      -0.6      4.437      6.289
REMARK  5 active torsions:
REMARK  status: ('A' for Active; 'I' for Inactive)
REMARK    1  A    between atoms: C4_4  and  C5_5 
REMARK    2  A    between atoms: C8_8  and  O9_9 
REMARK    3  A    between atoms: C10_11  and  O11_12 
REMARK    4  A    between atoms: C16_18  and  O17_19 
REMARK    5  A    between atoms: C19_22  and  O20_23 
ROOT
HETATM    1  O1          0      28.385 105.541 -11.385  1.00  0.00    -0.286 OA
HETATM    2  C2          0      28.208 104.580 -12.183  1.00  0.00     0.201 C 
HETATM    3  C3          0      27.519 104.713 -13.377  1.00  0.00     0.067 C 
HETATM    4  C4          0      27.250 103.617 -14.189  1.00  0.00     0.103 C 
HETATM    5  O13         0      27.683 102.427 -13.813  1.00  0.00    -0.307 OA
HETATM    6  C14         0      28.309 102.239 -12.672  1.00  0.00     0.107 C 
HETATM    7  C15         0      28.408 100.983 -12.090  1.00  0.00     0.049 C 
HETATM    8  C16         0      28.840 100.828 -10.778  1.00  0.00     0.093 C 
HETATM    9  C18         0      29.638 101.858 -10.296  1.00  0.00     0.048 C 
HETATM   10  C19         0      29.598 103.115 -10.885  1.00  0.00     0.096 C 
HETATM   11  C21         0      28.779 103.337 -11.958  1.00  0.00     0.084 C 
ENDROOT
BRANCH  10  12
HETATM   12  O20         0      30.038 104.219 -10.161  1.00  0.00    -0.359 OA
HETATM   13  H20         0      30.970 104.399 -10.147  1.00  0.00     0.218 HD
ENDBRANCH  10  12
BRANCH   4  14
HETATM   14  C5          0      26.070 103.697 -15.052  1.00  0.00     0.025 C 
HETATM   15  C6          0      25.711 104.853 -15.730  1.00  0.00     0.004 C 
HETATM   16  C7          0      25.198 104.713 -17.015  1.00  0.00     0.026 C 
HETATM   17  C8          0      24.924 103.463 -17.560  1.00  0.00     0.112 C 
HETATM   18  C10         0      24.713 102.458 -16.626  1.00  0.00     0.112 C 
HETATM   19  C12         0      25.308 102.582 -15.376  1.00  0.00     0.028 C 
BRANCH  17  20
HETATM   20  O9          0      25.071 103.233 -18.916  1.00  0.00    -0.357 OA
HETATM   21  H9          0      25.843 102.839 -19.304  1.00  0.00     0.218 HD
ENDBRANCH  17  20
BRANCH  18  22
HETATM   22  O11         0      24.252 101.240 -17.107  1.00  0.00    -0.357 OA
HETATM   23  H11         0      24.080 100.561 -16.464  1.00  0.00     0.218 HD
ENDBRANCH  18  22
ENDBRANCH   4  14
BRANCH   8  24
HETATM   24  O17         0      28.245  99.895  -9.921  1.00  0.00    -0.359 OA
HETATM   25  H17         0      28.757  99.392  -9.298  1.00  0.00     0.218 HD
ENDBRANCH   8  24
TORSDOF 5
ENDMDL
MODEL 4
REMARK VINA RESULT:      -0.6      4.184      6.891
REMARK  5 active torsions:
REMARK  status: ('A' for Active; 'I' for Inactive)
REMARK    1  A    between atoms: C4_4  and  C5_5 
REMARK    2  A    between atoms: C8_8  and  O9_9 
REMARK    3  A    between atoms: C10_11  and  O11_12 
REMARK    4  A    between atoms: C16_18  and  O17_19 
REMARK    5  A    between atoms: C19_22  and  O20_23 
ROOT
HETATM    1  O1          0      23.420 104.564 -13.926  1.00  0.00    -0.286 OA
HETATM    2  C2          0      24.575 104.057 -13.900  1.00  0.00     0.201 C 
HETATM    3  C3          0      24.992 103.189 -12.905  1.00  0.00     0.067 C 
HETATM    4  C4          0      26.301 102.726 -12.844  1.00  0.00     0.103 C 
HETATM    5  O13         0      27.156 103.114 -13.774  1.00  0.00    -0.307 OA
HETATM    6  C14         0      26.823 103.966 -14.718  1.00  0.00     0.107 C 
HETATM    7  C15         0      27.777 104.675 -15.433  1.00  0.00     0.049 C 
HETATM    8  C16         0      27.423 105.749 -16.241  1.00  0.00     0.093 C 
HETATM    9  C18         0      26.112 105.729 -16.702  1.00  0.00     0.048 C 
HETATM   10  C19         0      25.141 104.993 -16.037  1.00  0.00     0.096 C 
HETATM   11  C21         0      25.481 104.266 -14.929  1.00  0.00     0.084 C 
ENDROOT
BRANCH  10  12
HETATM   12  O20         0      23.800 105.312 -16.222  1.00  0.00    -0.359 OA
HETATM   13  H20         0      23.213 104.622 -16.508  1.00  0.00     0.218 HD
ENDBRANCH  10  12
BRANCH   4  14
HETATM   14  C5          0      26.816 102.346 -11.527  1.00  0.00     0.025 C 
HETATM   15  C6          0      26.315 101.274 -10.804  1.00  0.00     0.004 C 
HETATM   16  C7          0      27.221 100.499 -10.088  1.00  0.00     0.026 C 
HETATM   17  C8          0      28.562 100.854  -9.984  1.00  0.00     0.112 C 
HETATM   18  C10         0      28.821 102.204 -10.180  1.00  0.00     0.112 C 
HETATM   19  C12         0      27.944 102.937 -10.970  1.00  0.00     0.028 C 
BRANCH  17  20
HETATM   20  O9          0      29.547  99.886  -9.904  1.00  0.00    -0.357 OA
HETATM   21  H9          0      29.512  99.144  -9.312  1.00  0.00     0.218 HD
ENDBRANCH  17  20
BRANCH  18  22
HETATM   22  O11         0      30.108 102.644  -9.903  1.00  0.00    -0.357 OA
HETATM   23  H11         0      30.777 102.450 -10.549  1.00  0.00     0.218 HD
ENDBRANCH  18  22
ENDBRANCH   4  14
BRANCH   8  24
HETATM   24  O17         0      28.207 106.906 -16.300  1.00  0.00    -0.359 OA
HETATM   25  H17         0      27.825 107.759 -16.472  1.00  0.00     0.218 HD
ENDBRANCH   8  24
TORSDOF 5
ENDMDL
MODEL 5
REMARK VINA RESULT:      -0.6      4.313      5.555
REMARK  5 active torsions:
REMARK  status: ('A' for Active; 'I' for Inactive)
REMARK    1  A    between atoms: C4_4  and  C5_5 
REMARK    2  A    between atoms: C8_8  and  O9_9 
REMARK    3  A    between atoms: C10_11  and  O11_12 
REMARK    4  A    between atoms: C16_18  and  O17_19 
REMARK    5  A    between atoms: C19_22  and  O20_23 
ROOT
HETATM    1  O1          0      27.967 106.094 -11.648  1.00  0.00    -0.286 OA
HETATM    2  C2          0      28.582 105.445 -12.538  1.00  0.00     0.201 C 
HETATM    3  C3          0      28.549 105.793 -13.878  1.00  0.00     0.067 C 
HETATM    4  C4          0      29.150 105.002 -14.850  1.00  0.00     0.103 C 
HETATM    5  O13         0      29.782 103.904 -14.475  1.00  0.00    -0.307 OA
HETATM    6  C14         0      29.811 103.509 -13.221  1.00  0.00     0.107 C 
HETATM    7  C15         0      30.107 102.198 -12.875  1.00  0.00     0.049 C 
HETATM    8  C16         0      29.889 101.725 -11.587  1.00  0.00     0.093 C 
HETATM    9  C18         0      29.887 102.700 -10.596  1.00  0.00     0.048 C 
HETATM   10  C19         0      29.640 104.028 -10.914  1.00  0.00     0.096 C 
HETATM   11  C21         0      29.414 104.384 -12.216  1.00  0.00     0.084 C 
ENDROOT
BRANCH  10  12
HETATM   12  O20         0      29.212 104.899  -9.916  1.00  0.00    -0.359 OA
HETATM   13  H20         0      29.006 104.533  -9.065  1.00  0.00     0.218 HD
ENDBRANCH  10  12
BRANCH   4  14
HETATM   14  C5          0      28.595 105.068 -16.204  1.00  0.00     0.025 C 
HETATM   15  C6          0      29.201 104.463 -17.295  1.00  0.00     0.004 C 
HETATM   16  C7          0      28.375 103.870 -18.244  1.00  0.00     0.026 C 
HETATM   17  C8          0      26.991 103.989 -18.183  1.00  0.00     0.112 C 
HETATM   18  C10         0      26.535 105.091 -17.472  1.00  0.00     0.112 C 
HETATM   19  C12         0      27.345 105.612 -16.470  1.00  0.00     0.028 C 
BRANCH  17  20
HETATM   20  O9          0      26.171 102.964 -18.620  1.00  0.00    -0.357 OA
HETATM   21  H9          0      25.844 102.893 -19.510  1.00  0.00     0.218 HD
ENDBRANCH  17  20
BRANCH  18  22
HETATM   22  O11         0      25.175 105.363 -17.537  1.00  0.00    -0.357 OA
HETATM   23  H11         0      24.743 105.197 -18.367  1.00  0.00     0.218 HD
ENDBRANCH  18  22
ENDBRANCH   4  14
BRANCH   8  24
HETATM   24  O17         0      29.381 100.442 -11.357  1.00  0.00    -0.359 OA
HETATM   25  H17         0      28.828 100.003 -11.993  1.00  0.00     0.218 HD
ENDBRANCH   8  24
TORSDOF 5
ENDMDL
MODEL 6
REMARK VINA RESULT:      -0.5      4.303      5.444
REMARK  5 active torsions:
REMARK  status: ('A' for Active; 'I' for Inactive)
REMARK    1  A    between atoms: C4_4  and  C5_5 
REMARK    2  A    between atoms: C8_8  and  O9_9 
REMARK    3  A    between atoms: C10_11  and  O11_12 
REMARK    4  A    between atoms: C16_18  and  O17_19 
REMARK    5  A    between atoms: C19_22  and  O20_23 
ROOT
HETATM    1  O1          0      27.967 106.094 -11.648  1.00  0.00    -0.286 OA
HETATM    2  C2          0      28.580 105.446 -12.539  1.00  0.00     0.201 C 
HETATM    3  C3          0      28.546 105.795 -13.879  1.00  0.00     0.067 C 
HETATM    4  C4          0      29.146 105.004 -14.853  1.00  0.00     0.103 C 
HETATM    5  O13         0      29.778 103.906 -14.479  1.00  0.00    -0.307 OA
HETATM    6  C14         0      29.808 103.509 -13.225  1.00  0.00     0.107 C 
HETATM    7  C15         0      30.105 102.199 -12.880  1.00  0.00     0.049 C 
HETATM    8  C16         0      29.888 101.725 -11.592  1.00  0.00     0.093 C 
HETATM    9  C18         0      29.887 102.699 -10.601  1.00  0.00     0.048 C 
HETATM   10  C19         0      29.640 104.028 -10.918  1.00  0.00     0.096 C 
HETATM   11  C21         0      29.413 104.384 -12.219  1.00  0.00     0.084 C 
ENDROOT
BRANCH  10  12
HETATM   12  O20         0      29.214 104.897  -9.919  1.00  0.00    -0.359 OA
HETATM   13  H20         0      29.594 104.803  -9.054  1.00  0.00     0.218 HD
ENDBRANCH  10  12
BRANCH   4  14
HETATM   14  C5          0      28.589 105.071 -16.205  1.00  0.00     0.025 C 
HETATM   15  C6          0      27.807 106.129 -16.645  1.00  0.00     0.004 C 
HETATM   16  C7          0      27.984 106.560 -17.956  1.00  0.00     0.026 C 
HETATM   17  C8          0      28.811 105.878 -18.843  1.00  0.00     0.112 C 
HETATM   18  C10         0      29.025 104.543 -18.526  1.00  0.00     0.112 C 
HETATM   19  C12         0      28.925 104.156 -17.195  1.00  0.00     0.028 C 
BRANCH  17  20
HETATM   20  O9          0      29.513 106.557 -19.822  1.00  0.00    -0.357 OA
HETATM   21  H9          0      29.901 106.137 -20.582  1.00  0.00     0.218 HD
ENDBRANCH  17  20
BRANCH  18  22
HETATM   22  O11         0      29.684 103.770 -19.472  1.00  0.00    -0.357 OA
HETATM   23  H11         0      30.608 103.947 -19.603  1.00  0.00     0.218 HD
ENDBRANCH  18  22
ENDBRANCH   4  14
BRANCH   8  24
HETATM   24  O17         0      29.380 100.441 -11.363  1.00  0.00    -0.359 OA
HETATM   25  H17         0      28.826 100.003 -11.998  1.00  0.00     0.218 HD
ENDBRANCH   8  24
TORSDOF 5
ENDMDL
MODEL 7
REMARK VINA RESULT:      -0.5      4.325      6.827
REMARK  5 active torsions:
REMARK  status: ('A' for Active; 'I' for Inactive)
REMARK    1  A    between atoms: C4_4  and  C5_5 
REMARK    2  A    between atoms: C8_8  and  O9_9 
REMARK    3  A    between atoms: C10_11  and  O11_12 
REMARK    4  A    between atoms: C16_18  and  O17_19 
REMARK    5  A    between atoms: C19_22  and  O20_23 
ROOT
HETATM    1  O1          0      24.333 104.398 -14.923  1.00  0.00    -0.286 OA
HETATM    2  C2          0      24.659 103.923 -13.800  1.00  0.00     0.201 C 
HETATM    3  C3          0      25.939 104.030 -13.283  1.00  0.00     0.067 C 
HETATM    4  C4          0      26.298 103.410 -12.092  1.00  0.00     0.103 C 
HETATM    5  O13         0      25.382 102.722 -11.434  1.00  0.00    -0.307 OA
HETATM    6  C14         0      24.163 102.558 -11.898  1.00  0.00     0.107 C 
HETATM    7  C15         0      23.339 101.539 -11.444  1.00  0.00     0.049 C 
HETATM    8  C16         0      22.162 101.212 -12.107  1.00  0.00     0.093 C 
HETATM    9  C18         0      21.611 102.238 -12.864  1.00  0.00     0.048 C 
HETATM   10  C19         0      22.397 103.297 -13.296  1.00  0.00     0.096 C 
HETATM   11  C21         0      23.723 103.340 -12.960  1.00  0.00     0.084 C 
ENDROOT
BRANCH  10  12
HETATM   12  O20         0      21.973 104.062 -14.379  1.00  0.00    -0.359 OA
HETATM   13  H20         0      21.148 104.526 -14.301  1.00  0.00     0.218 HD
ENDBRANCH  10  12
BRANCH   4  14
HETATM   14  C5          0      27.707 103.052 -11.921  1.00  0.00     0.025 C 
HETATM   15  C6          0      28.502 103.583 -10.915  1.00  0.00     0.004 C 
HETATM   16  C7          0      29.422 102.736 -10.305  1.00  0.00     0.026 C 
HETATM   17  C8          0      29.640 101.443 -10.768  1.00  0.00     0.112 C 
HETATM   18  C10         0      29.297 101.236 -12.097  1.00  0.00     0.112 C 
HETATM   19  C12         0      28.313 102.042 -12.658  1.00  0.00     0.028 C 
BRANCH  17  20
HETATM   20  O9          0      29.970 100.423  -9.893  1.00  0.00    -0.357 OA
HETATM   21  H9          0      30.388 100.564  -9.051  1.00  0.00     0.218 HD
ENDBRANCH  17  20
BRANCH  18  22
HETATM   22  O11         0      29.668 100.024 -12.661  1.00  0.00    -0.357 OA
HETATM   23  H11         0      30.431 100.029 -13.228  1.00  0.00     0.218 HD
ENDBRANCH  18  22
ENDBRANCH   4  14
BRANCH   8  24
HETATM   24  O17         0      21.764  99.880 -12.272  1.00  0.00    -0.359 OA
HETATM   25  H17         0      21.907  99.229 -11.595  1.00  0.00     0.218 HD
ENDBRANCH   8  24
TORSDOF 5
ENDMDL
MODEL 8
REMARK VINA RESULT:      -0.5      3.005      6.717
REMARK  5 active torsions:
REMARK  status: ('A' for Active; 'I' for Inactive)
REMARK    1  A    between atoms: C4_4  and  C5_5 
REMARK    2  A    between atoms: C8_8  and  O9_9 
REMARK    3  A    between atoms: C10_11  and  O11_12 
REMARK    4  A    between atoms: C16_18  and  O17_19 
REMARK    5  A    between atoms: C19_22  and  O20_23 
ROOT
HETATM    1  O1          0      24.714 105.495 -12.491  1.00  0.00    -0.286 OA
HETATM    2  C2          0      25.819 105.506 -13.099  1.00  0.00     0.201 C 
HETATM    3  C3          0      26.767 104.508 -12.952  1.00  0.00     0.067 C 
HETATM    4  C4          0      28.017 104.596 -13.554  1.00  0.00     0.103 C 
HETATM    5  O13         0      28.290 105.652 -14.299  1.00  0.00    -0.307 OA
HETATM    6  C14         0      27.440 106.646 -14.441  1.00  0.00     0.107 C 
HETATM    7  C15         0      27.848 107.901 -14.869  1.00  0.00     0.049 C 
HETATM    8  C16         0      27.008 109.004 -14.774  1.00  0.00     0.093 C 
HETATM    9  C18         0      25.651 108.708 -14.753  1.00  0.00     0.048 C 
HETATM   10  C19         0      25.210 107.447 -14.375  1.00  0.00     0.096 C 
HETATM   11  C21         0      26.120 106.482 -14.037  1.00  0.00     0.084 C 
ENDROOT
BRANCH  10  12
HETATM   12  O20         0      23.898 107.287 -13.940  1.00  0.00    -0.359 OA
HETATM   13  H20         0      23.272 107.969 -14.153  1.00  0.00     0.218 HD
ENDBRANCH  10  12
BRANCH   4  14
HETATM   14  C5          0      29.122 103.883 -12.910  1.00  0.00     0.025 C 
HETATM   15  C6          0      29.723 104.326 -11.741  1.00  0.00     0.004 C 
HETATM   16  C7          0      30.102 103.367 -10.808  1.00  0.00     0.026 C 
HETATM   17  C8          0      30.011 102.006 -11.081  1.00  0.00     0.112 C 
HETATM   18  C10         0      30.014 101.685 -12.432  1.00  0.00     0.112 C 
HETATM   19  C12         0      29.550 102.632 -13.337  1.00  0.00     0.028 C 
BRANCH  17  20
HETATM   20  O9          0      29.726 101.099 -10.077  1.00  0.00    -0.357 OA
HETATM   21  H9          0      30.093 100.223 -10.037  1.00  0.00     0.218 HD
ENDBRANCH  17  20
BRANCH  18  22
HETATM   22  O11         0      30.116 100.340 -12.758  1.00  0.00    -0.357 OA
HETATM   23  H11         0      29.422  99.974 -13.295  1.00  0.00     0.218 HD
ENDBRANCH  18  22
ENDBRANCH   4  14
BRANCH   8  24
HETATM   24  O17         0      27.493 110.260 -14.392  1.00  0.00    -0.359 OA
HETATM   25  H17         0      27.860 110.867 -15.024  1.00  0.00     0.218 HD
ENDBRANCH   8  24
TORSDOF 5
ENDMDL
MODEL 9
REMARK VINA RESULT:      -0.5      3.512      6.267
REMARK  5 active torsions:
REMARK  status: ('A' for Active; 'I' for Inactive)
REMARK    1  A    between atoms: C4_4  and  C5_5 
REMARK    2  A    between atoms: C8_8  and  O9_9 
REMARK    3  A    between atoms: C10_11  and  O11_12 
REMARK    4  A    between atoms: C16_18  and  O17_19 
REMARK    5  A    between atoms: C19_22  and  O20_23 
ROOT
HETATM    1  O1          0      26.672 100.286 -11.290  1.00  0.00    -0.286 OA
HETATM    2  C2          0      26.323 101.408 -10.833  1.00  0.00     0.201 C 
HETATM    3  C3          0      25.015 101.861 -10.871  1.00  0.00     0.067 C 
HETATM    4  C4          0      24.675 103.143 -10.454  1.00  0.00     0.103 C 
HETATM    5  O13         0      25.627 103.934  -9.993  1.00  0.00    -0.307 OA
HETATM    6  C14         0      26.890 103.568  -9.970  1.00  0.00     0.107 C 
HETATM    7  C15         0      27.918 104.494  -9.876  1.00  0.00     0.049 C 
HETATM    8  C16         0      29.240 104.132 -10.107  1.00  0.00     0.093 C 
HETATM    9  C18         0      29.524 102.787  -9.903  1.00  0.00     0.048 C 
HETATM   10  C19         0      28.512 101.838  -9.944  1.00  0.00     0.096 C 
HETATM   11  C21         0      27.221 102.232 -10.170  1.00  0.00     0.084 C 
ENDROOT
BRANCH  10  12
HETATM   12  O20         0      28.837 100.505 -10.176  1.00  0.00    -0.359 OA
HETATM   13  H20         0      28.396 100.056 -10.887  1.00  0.00     0.218 HD
ENDBRANCH  10  12
BRANCH   4  14
HETATM   14  C5          0      23.485 103.748 -11.055  1.00  0.00     0.025 C 
HETATM   15  C6          0      22.290 103.061 -11.214  1.00  0.00     0.004 C 
HETATM   16  C7          0      21.109 103.763 -11.001  1.00  0.00     0.026 C 
HETATM   17  C8          0      21.107 105.135 -10.768  1.00  0.00     0.112 C 
HETATM   18  C10         0      22.225 105.805 -11.247  1.00  0.00     0.112 C 
HETATM   19  C12         0      23.416 105.099 -11.371  1.00  0.00     0.028 C 
BRANCH  17  20
HETATM   20  O9          0      20.161 105.712  -9.941  1.00  0.00    -0.357 OA
HETATM   21  H9          0      19.869 105.327  -9.123  1.00  0.00     0.218 HD
ENDBRANCH  17  20
BRANCH  18  22
HETATM   22  O11         0      22.189 107.192 -11.212  1.00  0.00    -0.357 OA
HETATM   23  H11         0      21.349 107.596 -11.027  1.00  0.00     0.218 HD
ENDBRANCH  18  22
ENDBRANCH   4  14
BRANCH   8  24
HETATM   24  O17         0      30.114 104.971 -10.807  1.00  0.00    -0.359 OA
HETATM   25  H17         0      30.998 105.138 -10.500  1.00  0.00     0.218 HD
ENDBRANCH   8  24
TORSDOF 5
ENDMDL
