MODEL 1
REMARK VINA RESULT:      -5.5      0.000      0.000
REMARK  5 active torsions:
REMARK  status: ('A' for Active; 'I' for Inactive)
REMARK    1  A    between atoms: C4_4  and  C5_5 
REMARK    2  A    between atoms: C8_8  and  O9_9 
REMARK    3  A    between atoms: C10_11  and  O11_12 
REMARK    4  A    between atoms: C16_18  and  O17_19 
REMARK    5  A    between atoms: C19_22  and  O20_23 
ROOT
HETATM    1  O1          0      47.414  96.753 -16.675  1.00  0.00    -0.286 OA
HETATM    2  C2          0      46.977  97.110 -15.546  1.00  0.00     0.201 C 
HETATM    3  C3          0      47.577  96.734 -14.356  1.00  0.00     0.067 C 
HETATM    4  C4          0      47.017  97.055 -13.125  1.00  0.00     0.103 C 
HETATM    5  O13         0      45.896  97.754 -13.100  1.00  0.00    -0.307 OA
HETATM    6  C14         0      45.266  98.103 -14.200  1.00  0.00     0.107 C 
HETATM    7  C15         0      43.927  98.468 -14.191  1.00  0.00     0.049 C 
HETATM    8  C16         0      43.204  98.588 -15.372  1.00  0.00     0.093 C 
HETATM    9  C18         0      43.967  98.851 -16.503  1.00  0.00     0.048 C 
HETATM   10  C19         0      45.320  98.542 -16.529  1.00  0.00     0.096 C 
HETATM   11  C21         0      45.911  97.989 -15.426  1.00  0.00     0.084 C 
ENDROOT
BRANCH  10  12
HETATM   12  O20         0      45.960  98.395 -17.756  1.00  0.00    -0.359 OA
HETATM   13  H20         0      46.060  97.517 -18.104  1.00  0.00     0.218 HD
ENDBRANCH  10  12
BRANCH   4  14
HETATM   14  C5          0      47.320  96.168 -12.000  1.00  0.00     0.025 C 
HETATM   15  C6          0      46.390  95.291 -11.462  1.00  0.00     0.004 C 
HETATM   16  C7          0      46.843  94.040 -11.056  1.00  0.00     0.026 C 
HETATM   17  C8          0      48.197  93.719 -11.057  1.00  0.00     0.112 C 
HETATM   18  C10         0      49.052  94.811 -10.993  1.00  0.00     0.112 C 
HETATM   19  C12         0      48.603  96.031 -11.485  1.00  0.00     0.028 C 
BRANCH  17  20
HETATM   20  O9          0      48.618  92.427 -11.318  1.00  0.00    -0.357 OA
HETATM   21  H9          0      48.227  91.867 -11.979  1.00  0.00     0.218 HD
ENDBRANCH  17  20
BRANCH  18  22
HETATM   22  O11         0      50.400  94.543 -10.802  1.00  0.00    -0.357 OA
HETATM   23  H11         0      50.664  93.631 -10.825  1.00  0.00     0.218 HD
ENDBRANCH  18  22
ENDBRANCH   4  14
BRANCH   8  24
HETATM   24  O17         0      41.879  98.146 -15.464  1.00  0.00    -0.359 OA
HETATM   25  H17         0      41.436  97.740 -14.728  1.00  0.00     0.218 HD
ENDBRANCH   8  24
TORSDOF 5
ENDMDL
MODEL 2
REMARK VINA RESULT:      -5.5      2.260      3.599
REMARK  5 active torsions:
REMARK  status: ('A' for Active; 'I' for Inactive)
REMARK    1  A    between atoms: C4_4  and  C5_5 
REMARK    2  A    between atoms: C8_8  and  O9_9 
REMARK    3  A    between atoms: C10_11  and  O11_12 
REMARK    4  A    between atoms: C16_18  and  O17_19 
REMARK    5  A    between atoms: C19_22  and  O20_23 
ROOT
HETATM    1  O1          0      43.537  98.755 -15.426  1.00  0.00    -0.286 OA
HETATM    2  C2          0      43.893  98.135 -14.386  1.00  0.00     0.201 C 
HETATM    3  C3          0      45.217  98.023 -13.996  1.00  0.00     0.067 C 
HETATM    4  C4          0      45.591  97.249 -12.903  1.00  0.00     0.103 C 
HETATM    5  O13         0      44.651  96.625 -12.216  1.00  0.00    -0.307 OA
HETATM    6  C14         0      43.384  96.667 -12.566  1.00  0.00     0.107 C 
HETATM    7  C15         0      42.470  95.725 -12.117  1.00  0.00     0.049 C 
HETATM    8  C16         0      41.205  95.621 -12.683  1.00  0.00     0.093 C 
HETATM    9  C18         0      40.736  96.779 -13.290  1.00  0.00     0.048 C 
HETATM   10  C19         0      41.620  97.764 -13.709  1.00  0.00     0.096 C 
HETATM   11  C21         0      42.964  97.600 -13.508  1.00  0.00     0.084 C 
ENDROOT
BRANCH  10  12
HETATM   12  O20         0      41.212  98.678 -14.675  1.00  0.00    -0.359 OA
HETATM   13  H20         0      40.748  98.347 -15.434  1.00  0.00     0.218 HD
ENDBRANCH  10  12
BRANCH   4  14
HETATM   14  C5          0      46.946  96.695 -12.908  1.00  0.00     0.025 C 
HETATM   15  C6          0      48.023  97.346 -13.492  1.00  0.00     0.004 C 
HETATM   16  C7          0      49.251  97.270 -12.843  1.00  0.00     0.026 C 
HETATM   17  C8          0      49.437  96.465 -11.725  1.00  0.00     0.112 C 
HETATM   18  C10         0      48.538  95.413 -11.612  1.00  0.00     0.112 C 
HETATM   19  C12         0      47.285  95.550 -12.198  1.00  0.00     0.028 C 
BRANCH  17  20
HETATM   20  O9          0      50.315  96.836 -10.722  1.00  0.00    -0.357 OA
HETATM   21  H9          0      50.621  97.726 -10.591  1.00  0.00     0.218 HD
ENDBRANCH  17  20
BRANCH  18  22
HETATM   22  O11         0      48.792  94.472 -10.625  1.00  0.00    -0.357 OA
HETATM   23  H11         0      48.129  94.365  -9.952  1.00  0.00     0.218 HD
ENDBRANCH  18  22
ENDBRANCH   4  14
BRANCH   8  24
HETATM   24  O17         0      40.612  94.375 -12.917  1.00  0.00    -0.359 OA
HETATM   25  H17         0      39.849  94.283 -13.476  1.00  0.00     0.218 HD
ENDBRANCH   8  24
TORSDOF 5
ENDMDL
MODEL 3
REMARK VINA RESULT:      -5.3     11.075     12.693
REMARK  5 active torsions:
REMARK  status: ('A' for Active; 'I' for Inactive)
REMARK    1  A    between atoms: C4_4  and  C5_5 
REMARK    2  A    between atoms: C8_8  and  O9_9 
REMARK    3  A    between atoms: C10_11  and  O11_12 
REMARK    4  A    between atoms: C16_18  and  O17_19 
REMARK    5  A    between atoms: C19_22  and  O20_23 
ROOT
HETATM    1  O1          0      55.191  97.965 -24.333  1.00  0.00    -0.286 OA
HETATM    2  C2          0      54.035  97.465 -24.261  1.00  0.00     0.201 C 
HETATM    3  C3          0      53.680  96.531 -23.302  1.00  0.00     0.067 C 
HETATM    4  C4          0      52.431  95.920 -23.308  1.00  0.00     0.103 C 
HETATM    5  O13         0      51.563  96.260 -24.245  1.00  0.00    -0.307 OA
HETATM    6  C14         0      51.863  97.112 -25.200  1.00  0.00     0.107 C 
HETATM    7  C15         0      51.137  97.171 -26.381  1.00  0.00     0.049 C 
HETATM    8  C16         0      51.603  97.883 -27.480  1.00  0.00     0.093 C 
HETATM    9  C18         0      52.488  98.912 -27.180  1.00  0.00     0.048 C 
HETATM   10  C19         0      53.196  98.908 -25.986  1.00  0.00     0.096 C 
HETATM   11  C21         0      53.009  97.892 -25.089  1.00  0.00     0.084 C 
ENDROOT
BRANCH  10  12
HETATM   12  O20         0      54.360  99.663 -25.883  1.00  0.00    -0.359 OA
HETATM   13  H20         0      54.460 100.408 -26.462  1.00  0.00     0.218 HD
ENDBRANCH  10  12
BRANCH   4  14
HETATM   14  C5          0      52.334  94.589 -22.707  1.00  0.00     0.025 C 
HETATM   15  C6          0      51.128  94.026 -22.316  1.00  0.00     0.004 C 
HETATM   16  C7          0      50.953  92.663 -22.529  1.00  0.00     0.026 C 
HETATM   17  C8          0      51.989  91.858 -22.991  1.00  0.00     0.112 C 
HETATM   18  C10         0      53.263  92.355 -22.746  1.00  0.00     0.112 C 
HETATM   19  C12         0      53.422  93.730 -22.621  1.00  0.00     0.028 C 
BRANCH  17  20
HETATM   20  O9          0      51.733  90.772 -23.809  1.00  0.00    -0.357 OA
HETATM   21  H9          0      50.859  90.470 -24.028  1.00  0.00     0.218 HD
ENDBRANCH  17  20
BRANCH  18  22
HETATM   22  O11         0      54.329  91.509 -23.014  1.00  0.00    -0.357 OA
HETATM   23  H11         0      54.443  90.764 -22.436  1.00  0.00     0.218 HD
ENDBRANCH  18  22
ENDBRANCH   4  14
BRANCH   8  24
HETATM   24  O17         0      51.461  97.390 -28.782  1.00  0.00    -0.359 OA
HETATM   25  H17         0      52.097  96.795 -29.162  1.00  0.00     0.218 HD
ENDBRANCH   8  24
TORSDOF 5
ENDMDL
MODEL 4
REMARK VINA RESULT:      -5.2     11.440     13.275
REMARK  5 active torsions:
REMARK  status: ('A' for Active; 'I' for Inactive)
REMARK    1  A    between atoms: C4_4  and  C5_5 
REMARK    2  A    between atoms: C8_8  and  O9_9 
REMARK    3  A    between atoms: C10_11  and  O11_12 
REMARK    4  A    between atoms: C16_18  and  O17_19 
REMARK    5  A    between atoms: C19_22  and  O20_23 
ROOT
HETATM    1  O1          0      55.337  96.727 -26.743  1.00  0.00    -0.286 OA
HETATM    2  C2          0      54.246  96.724 -26.109  1.00  0.00     0.201 C 
HETATM    3  C3          0      54.104  96.136 -24.864  1.00  0.00     0.067 C 
HETATM    4  C4          0      52.868  96.056 -24.232  1.00  0.00     0.103 C 
HETATM    5  O13         0      51.813  96.576 -24.834  1.00  0.00    -0.307 OA
HETATM    6  C14         0      51.886  97.113 -26.033  1.00  0.00     0.107 C 
HETATM    7  C15         0      50.760  97.290 -26.824  1.00  0.00     0.049 C 
HETATM    8  C16         0      50.869  97.615 -28.171  1.00  0.00     0.093 C 
HETATM    9  C18         0      52.050  98.254 -28.527  1.00  0.00     0.048 C 
HETATM   10  C19         0      53.183  98.136 -27.733  1.00  0.00     0.096 C 
HETATM   11  C21         0      53.131  97.399 -26.581  1.00  0.00     0.084 C 
ENDROOT
BRANCH  10  12
HETATM   12  O20         0      54.433  98.392 -28.289  1.00  0.00    -0.359 OA
HETATM   13  H20         0      54.715  99.296 -28.354  1.00  0.00     0.218 HD
ENDBRANCH  10  12
BRANCH   4  14
HETATM   14  C5          0      52.669  94.958 -23.285  1.00  0.00     0.025 C 
HETATM   15  C6          0      51.446  94.694 -22.686  1.00  0.00     0.004 C 
HETATM   16  C7          0      51.089  93.361 -22.509  1.00  0.00     0.026 C 
HETATM   17  C8          0      51.973  92.325 -22.793  1.00  0.00     0.112 C 
HETATM   18  C10         0      53.314  92.684 -22.767  1.00  0.00     0.112 C 
HETATM   19  C12         0      53.649  94.007 -23.032  1.00  0.00     0.028 C 
BRANCH  17  20
HETATM   20  O9          0      51.512  91.110 -23.266  1.00  0.00    -0.357 OA
HETATM   21  H9          0      50.852  90.587 -22.825  1.00  0.00     0.218 HD
ENDBRANCH  17  20
BRANCH  18  22
HETATM   22  O11         0      54.242  91.656 -22.856  1.00  0.00    -0.357 OA
HETATM   23  H11         0      54.333  91.092 -22.096  1.00  0.00     0.218 HD
ENDBRANCH  18  22
ENDBRANCH   4  14
BRANCH   8  24
HETATM   24  O17         0      50.022  97.046 -29.129  1.00  0.00    -0.359 OA
HETATM   25  H17         0      50.088  97.270 -30.049  1.00  0.00     0.218 HD
ENDBRANCH   8  24
TORSDOF 5
ENDMDL
MODEL 5
REMARK VINA RESULT:      -5.1     11.165     13.029
REMARK  5 active torsions:
REMARK  status: ('A' for Active; 'I' for Inactive)
REMARK    1  A    between atoms: C4_4  and  C5_5 
REMARK    2  A    between atoms: C8_8  and  O9_9 
REMARK    3  A    between atoms: C10_11  and  O11_12 
REMARK    4  A    between atoms: C16_18  and  O17_19 
REMARK    5  A    between atoms: C19_22  and  O20_23 
ROOT
HETATM    1  O1          0      54.963  97.495 -26.707  1.00  0.00    -0.286 OA
HETATM    2  C2          0      53.818  97.349 -26.198  1.00  0.00     0.201 C 
HETATM    3  C3          0      53.618  96.786 -24.949  1.00  0.00     0.067 C 
HETATM    4  C4          0      52.342  96.543 -24.456  1.00  0.00     0.103 C 
HETATM    5  O13         0      51.300  96.879 -25.196  1.00  0.00    -0.307 OA
HETATM    6  C14         0      51.434  97.381 -26.404  1.00  0.00     0.107 C 
HETATM    7  C15         0      50.395  97.361 -27.323  1.00  0.00     0.049 C 
HETATM    8  C16         0      50.612  97.656 -28.664  1.00  0.00     0.093 C 
HETATM    9  C18         0      51.722  98.453 -28.918  1.00  0.00     0.048 C 
HETATM   10  C19         0      52.759  98.533 -27.998  1.00  0.00     0.096 C 
HETATM   11  C21         0      52.680  97.834 -26.824  1.00  0.00     0.084 C 
ENDROOT
BRANCH  10  12
HETATM   12  O20         0      54.014  98.955 -28.423  1.00  0.00    -0.359 OA
HETATM   13  H20         0      54.519  98.367 -28.973  1.00  0.00     0.218 HD
ENDBRANCH  10  12
BRANCH   4  14
HETATM   14  C5          0      52.195  95.457 -23.484  1.00  0.00     0.025 C 
HETATM   15  C6          0      52.527  94.141 -23.771  1.00  0.00     0.004 C 
HETATM   16  C7          0      53.126  93.393 -22.763  1.00  0.00     0.026 C 
HETATM   17  C8          0      53.269  93.891 -21.472  1.00  0.00     0.112 C 
HETATM   18  C10         0      52.375  94.898 -21.137  1.00  0.00     0.112 C 
HETATM   19  C12         0      51.856  95.687 -22.157  1.00  0.00     0.028 C 
BRANCH  17  20
HETATM   20  O9          0      54.357  93.538 -20.693  1.00  0.00    -0.357 OA
HETATM   21  H9          0      55.236  93.873 -20.831  1.00  0.00     0.218 HD
ENDBRANCH  17  20
BRANCH  18  22
HETATM   22  O11         0      52.348  95.298 -19.808  1.00  0.00    -0.357 OA
HETATM   23  H11         0      51.733  94.851 -19.237  1.00  0.00     0.218 HD
ENDBRANCH  18  22
ENDBRANCH   4  14
BRANCH   8  24
HETATM   24  O17         0      49.976  96.935 -29.681  1.00  0.00    -0.359 OA
HETATM   25  H17         0      49.820  96.001 -29.608  1.00  0.00     0.218 HD
ENDBRANCH   8  24
TORSDOF 5
ENDMDL
MODEL 6
REMARK VINA RESULT:      -5.0     10.598     11.626
REMARK  5 active torsions:
REMARK  status: ('A' for Active; 'I' for Inactive)
REMARK    1  A    between atoms: C4_4  and  C5_5 
REMARK    2  A    between atoms: C8_8  and  O9_9 
REMARK    3  A    between atoms: C10_11  and  O11_12 
REMARK    4  A    between atoms: C16_18  and  O17_19 
REMARK    5  A    between atoms: C19_22  and  O20_23 
ROOT
HETATM    1  O1          0      52.609  96.241 -26.756  1.00  0.00    -0.286 OA
HETATM    2  C2          0      52.334  96.284 -25.526  1.00  0.00     0.201 C 
HETATM    3  C3          0      52.793  95.343 -24.620  1.00  0.00     0.067 C 
HETATM    4  C4          0      52.392  95.355 -23.290  1.00  0.00     0.103 C 
HETATM    5  O13         0      51.566  96.304 -22.884  1.00  0.00    -0.307 OA
HETATM    6  C14         0      51.071  97.199 -23.711  1.00  0.00     0.107 C 
HETATM    7  C15         0      49.930  97.926 -23.402  1.00  0.00     0.049 C 
HETATM    8  C16         0      49.268  98.675 -24.368  1.00  0.00     0.093 C 
HETATM    9  C18         0      50.057  99.081 -25.438  1.00  0.00     0.048 C 
HETATM   10  C19         0      51.230  98.405 -25.746  1.00  0.00     0.096 C 
HETATM   11  C21         0      51.622  97.341 -24.980  1.00  0.00     0.084 C 
ENDROOT
BRANCH  10  12
HETATM   12  O20         0      51.766  98.520 -27.025  1.00  0.00    -0.359 OA
HETATM   13  H20         0      51.356  98.027 -27.725  1.00  0.00     0.218 HD
ENDBRANCH  10  12
BRANCH   4  14
HETATM   14  C5          0      52.401  94.077 -22.575  1.00  0.00     0.025 C 
HETATM   15  C6          0      51.336  93.190 -22.608  1.00  0.00     0.004 C 
HETATM   16  C7          0      51.630  91.831 -22.658  1.00  0.00     0.026 C 
HETATM   17  C8          0      52.935  91.362 -22.544  1.00  0.00     0.112 C 
HETATM   18  C10         0      53.807  92.228 -21.897  1.00  0.00     0.112 C 
HETATM   19  C12         0      53.534  93.591 -21.936  1.00  0.00     0.028 C 
BRANCH  17  20
HETATM   20  O9          0      53.340  90.223 -23.216  1.00  0.00    -0.357 OA
HETATM   21  H9          0      53.075  89.344 -22.972  1.00  0.00     0.218 HD
ENDBRANCH  17  20
BRANCH  18  22
HETATM   22  O11         0      55.067  91.736 -21.589  1.00  0.00    -0.357 OA
HETATM   23  H11         0      55.192  90.797 -21.661  1.00  0.00     0.218 HD
ENDBRANCH  18  22
ENDBRANCH   4  14
BRANCH   8  24
HETATM   24  O17         0      47.871  98.721 -24.425  1.00  0.00    -0.359 OA
HETATM   25  H17         0      47.399  99.545 -24.434  1.00  0.00     0.218 HD
ENDBRANCH   8  24
TORSDOF 5
ENDMDL
MODEL 7
REMARK VINA RESULT:      -4.9      1.786      2.411
REMARK  5 active torsions:
REMARK  status: ('A' for Active; 'I' for Inactive)
REMARK    1  A    between atoms: C4_4  and  C5_5 
REMARK    2  A    between atoms: C8_8  and  O9_9 
REMARK    3  A    between atoms: C10_11  and  O11_12 
REMARK    4  A    between atoms: C16_18  and  O17_19 
REMARK    5  A    between atoms: C19_22  and  O20_23 
ROOT
HETATM    1  O1          0      47.766  97.420 -17.430  1.00  0.00    -0.286 OA
HETATM    2  C2          0      46.816  97.789 -16.686  1.00  0.00     0.201 C 
HETATM    3  C3          0      46.910  97.810 -15.305  1.00  0.00     0.067 C 
HETATM    4  C4          0      45.816  98.123 -14.505  1.00  0.00     0.103 C 
HETATM    5  O13         0      44.670  98.426 -15.088  1.00  0.00    -0.307 OA
HETATM    6  C14         0      44.517  98.385 -16.394  1.00  0.00     0.107 C 
HETATM    7  C15         0      43.263  98.305 -16.981  1.00  0.00     0.049 C 
HETATM    8  C16         0      43.115  98.008 -18.330  1.00  0.00     0.093 C 
HETATM    9  C18         0      44.212  98.321 -19.124  1.00  0.00     0.048 C 
HETATM   10  C19         0      45.474  98.454 -18.562  1.00  0.00     0.096 C 
HETATM   11  C21         0      45.637  98.293 -17.213  1.00  0.00     0.084 C 
ENDROOT
BRANCH  10  12
HETATM   12  O20         0      46.597  98.331 -19.374  1.00  0.00    -0.359 OA
HETATM   13  H20         0      47.137  99.101 -19.507  1.00  0.00     0.218 HD
ENDBRANCH  10  12
BRANCH   4  14
HETATM   14  C5          0      45.792  97.561 -13.153  1.00  0.00     0.025 C 
HETATM   15  C6          0      44.670  96.950 -12.612  1.00  0.00     0.004 C 
HETATM   16  C7          0      44.869  95.828 -11.814  1.00  0.00     0.026 C 
HETATM   17  C8          0      46.144  95.405 -11.455  1.00  0.00     0.112 C 
HETATM   18  C10         0      47.117  96.395 -11.498  1.00  0.00     0.112 C 
HETATM   19  C12         0      46.934  97.464 -12.368  1.00  0.00     0.028 C 
BRANCH  17  20
HETATM   20  O9          0      46.423  94.061 -11.284  1.00  0.00    -0.357 OA
HETATM   21  H9          0      46.857  93.705 -10.517  1.00  0.00     0.218 HD
ENDBRANCH  17  20
BRANCH  18  22
HETATM   22  O11         0      48.361  96.077 -10.971  1.00  0.00    -0.357 OA
HETATM   23  H11         0      48.697  96.646 -10.288  1.00  0.00     0.218 HD
ENDBRANCH  18  22
ENDBRANCH   4  14
BRANCH   8  24
HETATM   24  O17         0      42.097  97.161 -18.783  1.00  0.00    -0.359 OA
HETATM   25  H17         0      41.510  96.719 -18.180  1.00  0.00     0.218 HD
ENDBRANCH   8  24
TORSDOF 5
ENDMDL
MODEL 8
REMARK VINA RESULT:      -4.8      2.458      6.355
REMARK  5 active torsions:
REMARK  status: ('A' for Active; 'I' for Inactive)
REMARK    1  A    between atoms: C4_4  and  C5_5 
REMARK    2  A    between atoms: C8_8  and  O9_9 
REMARK    3  A    between atoms: C10_11  and  O11_12 
REMARK    4  A    between atoms: C16_18  and  O17_19 
REMARK    5  A    between atoms: C19_22  and  O20_23 
ROOT
HETATM    1  O1          0      47.633  97.438 -17.017  1.00  0.00    -0.286 OA
HETATM    2  C2          0      46.881  97.460 -16.004  1.00  0.00     0.201 C 
HETATM    3  C3          0      45.545  97.815 -16.070  1.00  0.00     0.067 C 
HETATM    4  C4          0      44.764  97.931 -14.925  1.00  0.00     0.103 C 
HETATM    5  O13         0      45.316  97.675 -13.752  1.00  0.00    -0.307 OA
HETATM    6  C14         0      46.590  97.370 -13.631  1.00  0.00     0.107 C 
HETATM    7  C15         0      47.258  97.493 -12.421  1.00  0.00     0.049 C 
HETATM    8  C16         0      48.644  97.418 -12.351  1.00  0.00     0.093 C 
HETATM    9  C18         0      49.246  96.712 -13.386  1.00  0.00     0.048 C 
HETATM   10  C19         0      48.587  96.530 -14.594  1.00  0.00     0.096 C 
HETATM   11  C21         0      47.326  97.036 -14.762  1.00  0.00     0.084 C 
ENDROOT
BRANCH  10  12
HETATM   12  O20         0      49.325  96.227 -15.733  1.00  0.00    -0.359 OA
HETATM   13  H20         0      49.136  96.710 -16.528  1.00  0.00     0.218 HD
ENDBRANCH  10  12
BRANCH   4  14
HETATM   14  C5          0      43.624  98.847 -14.982  1.00  0.00     0.025 C 
HETATM   15  C6          0      42.315  98.411 -15.134  1.00  0.00     0.004 C 
HETATM   16  C7          0      41.325  99.082 -14.424  1.00  0.00     0.026 C 
HETATM   17  C8          0      41.604 100.231 -13.692  1.00  0.00     0.112 C 
HETATM   18  C10         0      42.737 100.920 -14.105  1.00  0.00     0.112 C 
HETATM   19  C12         0      43.749 100.209 -14.738  1.00  0.00     0.028 C 
BRANCH  17  20
HETATM   20  O9          0      40.915 100.514 -12.527  1.00  0.00    -0.357 OA
HETATM   21  H9          0      40.428  99.866 -12.031  1.00  0.00     0.218 HD
ENDBRANCH  17  20
BRANCH  18  22
HETATM   22  O11         0      42.955 102.168 -13.538  1.00  0.00    -0.357 OA
HETATM   23  H11         0      42.615 102.920 -14.009  1.00  0.00     0.218 HD
ENDBRANCH  18  22
ENDBRANCH   4  14
BRANCH   8  24
HETATM   24  O17         0      49.379  98.262 -11.511  1.00  0.00    -0.359 OA
HETATM   25  H17         0      49.329  99.208 -11.587  1.00  0.00     0.218 HD
ENDBRANCH   8  24
TORSDOF 5
ENDMDL
MODEL 9
REMARK VINA RESULT:      -4.8     11.171     14.408
REMARK  5 active torsions:
REMARK  status: ('A' for Active; 'I' for Inactive)
REMARK    1  A    between atoms: C4_4  and  C5_5 
REMARK    2  A    between atoms: C8_8  and  O9_9 
REMARK    3  A    between atoms: C10_11  and  O11_12 
REMARK    4  A    between atoms: C16_18  and  O17_19 
REMARK    5  A    between atoms: C19_22  and  O20_23 
ROOT
HETATM    1  O1          0      56.106  95.247 -24.344  1.00  0.00    -0.286 OA
HETATM    2  C2          0      54.849  95.275 -24.447  1.00  0.00     0.201 C 
HETATM    3  C3          0      54.197  95.833 -25.534  1.00  0.00     0.067 C 
HETATM    4  C4          0      52.812  95.943 -25.574  1.00  0.00     0.103 C 
HETATM    5  O13         0      52.108  95.482 -24.555  1.00  0.00    -0.307 OA
HETATM    6  C14         0      52.679  94.977 -23.483  1.00  0.00     0.107 C 
HETATM    7  C15         0      52.001  94.867 -22.278  1.00  0.00     0.049 C 
HETATM    8  C16         0      52.673  94.576 -21.096  1.00  0.00     0.093 C 
HETATM    9  C18         0      53.877  93.902 -21.257  1.00  0.00     0.048 C 
HETATM   10  C19         0      54.558  93.952 -22.465  1.00  0.00     0.096 C 
HETATM   11  C21         0      54.032  94.658 -23.512  1.00  0.00     0.084 C 
ENDROOT
BRANCH  10  12
HETATM   12  O20         0      55.919  93.664 -22.491  1.00  0.00    -0.359 OA
HETATM   13  H20         0      56.366  93.547 -21.661  1.00  0.00     0.218 HD
ENDBRANCH  10  12
BRANCH   4  14
HETATM   14  C5          0      52.249  97.022 -26.389  1.00  0.00     0.025 C 
HETATM   15  C6          0      52.976  97.681 -27.370  1.00  0.00     0.004 C 
HETATM   16  C7          0      52.310  98.029 -28.541  1.00  0.00     0.026 C 
HETATM   17  C8          0      50.938  97.850 -28.680  1.00  0.00     0.112 C 
HETATM   18  C10         0      50.236  97.796 -27.484  1.00  0.00     0.112 C 
HETATM   19  C12         0      50.904  97.363 -26.345  1.00  0.00     0.028 C 
BRANCH  17  20
HETATM   20  O9          0      50.386  97.541 -29.911  1.00  0.00    -0.357 OA
HETATM   21  H9          0      49.558  97.087 -30.018  1.00  0.00     0.218 HD
ENDBRANCH  17  20
BRANCH  18  22
HETATM   22  O11         0      48.851  97.809 -27.568  1.00  0.00    -0.357 OA
HETATM   23  H11         0      48.468  97.585 -28.408  1.00  0.00     0.218 HD
ENDBRANCH  18  22
ENDBRANCH   4  14
BRANCH   8  24
HETATM   24  O17         0      52.336  95.205 -19.892  1.00  0.00    -0.359 OA
HETATM   25  H17         0      53.000  95.536 -19.299  1.00  0.00     0.218 HD
ENDBRANCH   8  24
TORSDOF 5
ENDMDL
