MODEL 1
REMARK VINA RESULT:      -4.4      0.000      0.000
REMARK  5 active torsions:
REMARK  status: ('A' for Active; 'I' for Inactive)
REMARK    1  A    between atoms: C4_4  and  C5_5 
REMARK    2  A    between atoms: C8_8  and  O9_9 
REMARK    3  A    between atoms: C10_11  and  O11_12 
REMARK    4  A    between atoms: C16_18  and  O17_19 
REMARK    5  A    between atoms: C19_22  and  O20_23 
ROOT
HETATM    1  O1          0      44.831 101.692  11.433  1.00  0.00    -0.286 OA
HETATM    2  C2          0      43.818 102.304  11.870  1.00  0.00     0.201 C 
HETATM    3  C3          0      43.894 103.548  12.471  1.00  0.00     0.067 C 
HETATM    4  C4          0      42.777 104.155  13.036  1.00  0.00     0.103 C 
HETATM    5  O13         0      41.616 103.528  12.974  1.00  0.00    -0.307 OA
HETATM    6  C14         0      41.495 102.329  12.447  1.00  0.00     0.107 C 
HETATM    7  C15         0      40.408 101.514  12.727  1.00  0.00     0.049 C 
HETATM    8  C16         0      40.407 100.168  12.380  1.00  0.00     0.093 C 
HETATM    9  C18         0      41.246  99.834  11.324  1.00  0.00     0.048 C 
HETATM   10  C19         0      42.316 100.652  10.987  1.00  0.00     0.096 C 
HETATM   11  C21         0      42.537 101.805  11.689  1.00  0.00     0.084 C 
ENDROOT
BRANCH  10  12
HETATM   12  O20         0      43.374 100.121  10.255  1.00  0.00    -0.359 OA
HETATM   13  H20         0      43.435 100.343   9.334  1.00  0.00     0.218 HD
ENDBRANCH  10  12
BRANCH   4  14
HETATM   14  C5          0      43.010 105.102  14.128  1.00  0.00     0.025 C 
HETATM   15  C6          0      44.277 105.532  14.493  1.00  0.00     0.004 C 
HETATM   16  C7          0      44.423 106.864  14.867  1.00  0.00     0.026 C 
HETATM   17  C8          0      43.325 107.707  15.004  1.00  0.00     0.112 C 
HETATM   18  C10         0      42.121 107.058  15.240  1.00  0.00     0.112 C 
HETATM   19  C12         0      41.972 105.755  14.780  1.00  0.00     0.028 C 
BRANCH  17  20
HETATM   20  O9          0      43.426 109.056  14.710  1.00  0.00    -0.357 OA
HETATM   21  H9          0      43.206 109.430  13.865  1.00  0.00     0.218 HD
ENDBRANCH  17  20
BRANCH  18  22
HETATM   22  O11         0      41.033 107.853  15.571  1.00  0.00    -0.357 OA
HETATM   23  H11         0      41.209 108.629  16.089  1.00  0.00     0.218 HD
ENDBRANCH  18  22
ENDBRANCH   4  14
BRANCH   8  24
HETATM   24  O17         0      39.875  99.195  13.233  1.00  0.00    -0.359 OA
HETATM   25  H17         0      40.250  98.325  13.293  1.00  0.00     0.218 HD
ENDBRANCH   8  24
TORSDOF 5
ENDMDL
MODEL 2
REMARK VINA RESULT:      -4.4      1.887      6.939
REMARK  5 active torsions:
REMARK  status: ('A' for Active; 'I' for Inactive)
REMARK    1  A    between atoms: C4_4  and  C5_5 
REMARK    2  A    between atoms: C8_8  and  O9_9 
REMARK    3  A    between atoms: C10_11  and  O11_12 
REMARK    4  A    between atoms: C16_18  and  O17_19 
REMARK    5  A    between atoms: C19_22  and  O20_23 
ROOT
HETATM    1  O1          0      40.945 104.067  15.892  1.00  0.00    -0.286 OA
HETATM    2  C2          0      41.090 103.766  14.675  1.00  0.00     0.201 C 
HETATM    3  C3          0      40.290 102.838  14.032  1.00  0.00     0.067 C 
HETATM    4  C4          0      40.535 102.449  12.719  1.00  0.00     0.103 C 
HETATM    5  O13         0      41.548 103.001  12.073  1.00  0.00    -0.307 OA
HETATM    6  C14         0      42.361 103.859  12.649  1.00  0.00     0.107 C 
HETATM    7  C15         0      43.621 104.129  12.137  1.00  0.00     0.049 C 
HETATM    8  C16         0      44.566 104.831  12.876  1.00  0.00     0.093 C 
HETATM    9  C18         0      44.042 105.669  13.853  1.00  0.00     0.048 C 
HETATM   10  C19         0      42.765 105.456  14.354  1.00  0.00     0.096 C 
HETATM   11  C21         0      42.010 104.422  13.871  1.00  0.00     0.084 C 
ENDROOT
BRANCH  10  12
HETATM   12  O20         0      42.422 105.992  15.592  1.00  0.00    -0.359 OA
HETATM   13  H20         0      43.105 106.412  16.100  1.00  0.00     0.218 HD
ENDBRANCH  10  12
BRANCH   4  14
HETATM   14  C5          0      40.089 101.113  12.322  1.00  0.00     0.025 C 
HETATM   15  C6          0      39.875 100.754  10.999  1.00  0.00     0.004 C 
HETATM   16  C7          0      40.247  99.471  10.611  1.00  0.00     0.026 C 
HETATM   17  C8          0      40.692  98.530  11.533  1.00  0.00     0.112 C 
HETATM   18  C10         0      40.277  98.756  12.839  1.00  0.00     0.112 C 
HETATM   19  C12         0      39.993 100.061  13.224  1.00  0.00     0.028 C 
BRANCH  17  20
HETATM   20  O9          0      41.640  97.585  11.182  1.00  0.00    -0.357 OA
HETATM   21  H9          0      42.566  97.669  11.376  1.00  0.00     0.218 HD
ENDBRANCH  17  20
BRANCH  18  22
HETATM   22  O11         0      40.531  97.753  13.763  1.00  0.00    -0.357 OA
HETATM   23  H11         0      40.554  98.006  14.678  1.00  0.00     0.218 HD
ENDBRANCH  18  22
ENDBRANCH   4  14
BRANCH   8  24
HETATM   24  O17         0      45.917 104.468  12.866  1.00  0.00    -0.359 OA
HETATM   25  H17         0      46.280 103.878  13.517  1.00  0.00     0.218 HD
ENDBRANCH   8  24
TORSDOF 5
ENDMDL
MODEL 3
REMARK VINA RESULT:      -3.9      2.453      4.310
REMARK  5 active torsions:
REMARK  status: ('A' for Active; 'I' for Inactive)
REMARK    1  A    between atoms: C4_4  and  C5_5 
REMARK    2  A    between atoms: C8_8  and  O9_9 
REMARK    3  A    between atoms: C10_11  and  O11_12 
REMARK    4  A    between atoms: C16_18  and  O17_19 
REMARK    5  A    between atoms: C19_22  and  O20_23 
ROOT
HETATM    1  O1          0      41.671 103.380  12.098  1.00  0.00    -0.286 OA
HETATM    2  C2          0      42.526 104.070  12.718  1.00  0.00     0.201 C 
HETATM    3  C3          0      42.199 104.885  13.788  1.00  0.00     0.067 C 
HETATM    4  C4          0      43.142 105.714  14.387  1.00  0.00     0.103 C 
HETATM    5  O13         0      44.381 105.701  13.929  1.00  0.00    -0.307 OA
HETATM    6  C14         0      44.735 104.974  12.892  1.00  0.00     0.107 C 
HETATM    7  C15         0      45.888 105.245  12.169  1.00  0.00     0.049 C 
HETATM    8  C16         0      46.125 104.647  10.938  1.00  0.00     0.093 C 
HETATM    9  C18         0      45.474 103.435  10.739  1.00  0.00     0.048 C 
HETATM   10  C19         0      44.345 103.111  11.478  1.00  0.00     0.096 C 
HETATM   11  C21         0      43.878 103.985  12.423  1.00  0.00     0.084 C 
ENDROOT
BRANCH  10  12
HETATM   12  O20         0      43.469 102.144  10.994  1.00  0.00    -0.359 OA
HETATM   13  H20         0      42.582 102.138  11.333  1.00  0.00     0.218 HD
ENDBRANCH  10  12
BRANCH   4  14
HETATM   14  C5          0      42.647 106.923  15.047  1.00  0.00     0.025 C 
HETATM   15  C6          0      41.459 106.957  15.763  1.00  0.00     0.004 C 
HETATM   16  C7          0      41.429 107.719  16.927  1.00  0.00     0.026 C 
HETATM   17  C8          0      42.498 108.527  17.297  1.00  0.00     0.112 C 
HETATM   18  C10         0      43.326 108.910  16.250  1.00  0.00     0.112 C 
HETATM   19  C12         0      43.402 108.086  15.133  1.00  0.00     0.028 C 
BRANCH  17  20
HETATM   20  O9          0      42.801 108.733  18.632  1.00  0.00    -0.357 OA
HETATM   21  H9          0      42.406 109.413  19.164  1.00  0.00     0.218 HD
ENDBRANCH  17  20
BRANCH  18  22
HETATM   22  O11         0      44.293 109.864  16.531  1.00  0.00    -0.357 OA
HETATM   23  H11         0      44.453 110.522  15.864  1.00  0.00     0.218 HD
ENDBRANCH  18  22
ENDBRANCH   4  14
BRANCH   8  24
HETATM   24  O17         0      46.687 105.363   9.875  1.00  0.00    -0.359 OA
HETATM   25  H17         0      47.440 105.929   9.998  1.00  0.00     0.218 HD
ENDBRANCH   8  24
TORSDOF 5
ENDMDL
MODEL 4
REMARK VINA RESULT:      -3.9      2.748      4.746
REMARK  5 active torsions:
REMARK  status: ('A' for Active; 'I' for Inactive)
REMARK    1  A    between atoms: C4_4  and  C5_5 
REMARK    2  A    between atoms: C8_8  and  O9_9 
REMARK    3  A    between atoms: C10_11  and  O11_12 
REMARK    4  A    between atoms: C16_18  and  O17_19 
REMARK    5  A    between atoms: C19_22  and  O20_23 
ROOT
HETATM    1  O1          0      40.146  98.324  10.272  1.00  0.00    -0.286 OA
HETATM    2  C2          0      40.179  98.715  11.471  1.00  0.00     0.201 C 
HETATM    3  C3          0      39.875 100.012  11.846  1.00  0.00     0.067 C 
HETATM    4  C4          0      40.019 100.444  13.160  1.00  0.00     0.103 C 
HETATM    5  O13         0      40.438  99.581  14.069  1.00  0.00    -0.307 OA
HETATM    6  C14         0      40.776  98.349  13.760  1.00  0.00     0.107 C 
HETATM    7  C15         0      41.575  97.579  14.593  1.00  0.00     0.049 C 
HETATM    8  C16         0      42.136  96.386  14.154  1.00  0.00     0.093 C 
HETATM    9  C18         0      41.459  95.767  13.111  1.00  0.00     0.048 C 
HETATM   10  C19         0      40.615  96.499  12.286  1.00  0.00     0.096 C 
HETATM   11  C21         0      40.435  97.836  12.513  1.00  0.00     0.084 C 
ENDROOT
BRANCH  10  12
HETATM   12  O20         0      40.298  96.003  11.025  1.00  0.00    -0.359 OA
HETATM   13  H20         0      41.009  95.698  10.475  1.00  0.00     0.218 HD
ENDBRANCH  10  12
BRANCH   4  14
HETATM   14  C5          0      40.272 101.870  13.372  1.00  0.00     0.025 C 
HETATM   15  C6          0      40.138 102.481  14.611  1.00  0.00     0.004 C 
HETATM   16  C7          0      41.066 103.461  14.949  1.00  0.00     0.026 C 
HETATM   17  C8          0      42.013 103.915  14.038  1.00  0.00     0.112 C 
HETATM   18  C10         0      41.672 103.727  12.705  1.00  0.00     0.112 C 
HETATM   19  C12         0      40.808 102.686  12.385  1.00  0.00     0.028 C 
BRANCH  17  20
HETATM   20  O9          0      43.268 104.317  14.460  1.00  0.00    -0.357 OA
HETATM   21  H9          0      43.417 104.877  15.213  1.00  0.00     0.218 HD
ENDBRANCH  17  20
BRANCH  18  22
HETATM   22  O11         0      42.488 104.328  11.757  1.00  0.00    -0.357 OA
HETATM   23  H11         0      42.316 105.241  11.558  1.00  0.00     0.218 HD
ENDBRANCH  18  22
ENDBRANCH   4  14
BRANCH   8  24
HETATM   24  O17         0      43.443  96.024  14.500  1.00  0.00    -0.359 OA
HETATM   25  H17         0      43.633  95.210  14.951  1.00  0.00     0.218 HD
ENDBRANCH   8  24
TORSDOF 5
ENDMDL
MODEL 5
REMARK VINA RESULT:      -3.9      1.956      3.419
REMARK  5 active torsions:
REMARK  status: ('A' for Active; 'I' for Inactive)
REMARK    1  A    between atoms: C4_4  and  C5_5 
REMARK    2  A    between atoms: C8_8  and  O9_9 
REMARK    3  A    between atoms: C10_11  and  O11_12 
REMARK    4  A    between atoms: C16_18  and  O17_19 
REMARK    5  A    between atoms: C19_22  and  O20_23 
ROOT
HETATM    1  O1          0      41.110 102.769  11.853  1.00  0.00    -0.286 OA
HETATM    2  C2          0      42.076 102.993  12.632  1.00  0.00     0.201 C 
HETATM    3  C3          0      41.950 103.749  13.786  1.00  0.00     0.067 C 
HETATM    4  C4          0      43.052 104.067  14.572  1.00  0.00     0.103 C 
HETATM    5  O13         0      44.240 103.616  14.212  1.00  0.00    -0.307 OA
HETATM    6  C14         0      44.421 102.927  13.107  1.00  0.00     0.107 C 
HETATM    7  C15         0      45.673 102.798  12.522  1.00  0.00     0.049 C 
HETATM    8  C16         0      45.820 102.294  11.235  1.00  0.00     0.093 C 
HETATM    9  C18         0      44.788 101.467  10.808  1.00  0.00     0.048 C 
HETATM   10  C19         0      43.535 101.536  11.403  1.00  0.00     0.096 C 
HETATM   11  C21         0      43.320 102.414  12.430  1.00  0.00     0.084 C 
ENDROOT
BRANCH  10  12
HETATM   12  O20         0      42.427 101.053  10.714  1.00  0.00    -0.359 OA
HETATM   13  H20         0      41.870 100.422  11.154  1.00  0.00     0.218 HD
ENDBRANCH  10  12
BRANCH   4  14
HETATM   14  C5          0      42.975 105.294  15.367  1.00  0.00     0.025 C 
HETATM   15  C6          0      43.205 106.553  14.832  1.00  0.00     0.004 C 
HETATM   16  C7          0      42.407 107.600  15.282  1.00  0.00     0.026 C 
HETATM   17  C8          0      41.502 107.432  16.324  1.00  0.00     0.112 C 
HETATM   18  C10         0      41.792 106.377  17.179  1.00  0.00     0.112 C 
HETATM   19  C12         0      42.519 105.303  16.679  1.00  0.00     0.028 C 
BRANCH  17  20
HETATM   20  O9          0      40.312 108.138  16.351  1.00  0.00    -0.357 OA
HETATM   21  H9          0      40.188 108.980  15.928  1.00  0.00     0.218 HD
ENDBRANCH  17  20
BRANCH  18  22
HETATM   22  O11         0      41.034 106.280  18.337  1.00  0.00    -0.357 OA
HETATM   23  H11         0      41.496 106.372  19.163  1.00  0.00     0.218 HD
ENDBRANCH  18  22
ENDBRANCH   4  14
BRANCH   8  24
HETATM   24  O17         0      46.743 102.842  10.338  1.00  0.00    -0.359 OA
HETATM   25  H17         0      46.982 102.397   9.534  1.00  0.00     0.218 HD
ENDBRANCH   8  24
TORSDOF 5
ENDMDL
MODEL 6
REMARK VINA RESULT:      -3.9      2.062      2.548
REMARK  5 active torsions:
REMARK  status: ('A' for Active; 'I' for Inactive)
REMARK    1  A    between atoms: C4_4  and  C5_5 
REMARK    2  A    between atoms: C8_8  and  O9_9 
REMARK    3  A    between atoms: C10_11  and  O11_12 
REMARK    4  A    between atoms: C16_18  and  O17_19 
REMARK    5  A    between atoms: C19_22  and  O20_23 
ROOT
HETATM    1  O1          0      44.473  99.891  10.733  1.00  0.00    -0.286 OA
HETATM    2  C2          0      43.956 100.998  11.048  1.00  0.00     0.201 C 
HETATM    3  C3          0      44.648 102.196  10.979  1.00  0.00     0.067 C 
HETATM    4  C4          0      44.089 103.387  11.428  1.00  0.00     0.103 C 
HETATM    5  O13         0      42.860 103.368  11.913  1.00  0.00    -0.307 OA
HETATM    6  C14         0      42.174 102.253  12.035  1.00  0.00     0.107 C 
HETATM    7  C15         0      41.082 102.156  12.885  1.00  0.00     0.049 C 
HETATM    8  C16         0      40.522 100.925  13.204  1.00  0.00     0.093 C 
HETATM    9  C18         0      40.736  99.922  12.266  1.00  0.00     0.048 C 
HETATM   10  C19         0      41.792 100.010  11.369  1.00  0.00     0.096 C 
HETATM   11  C21         0      42.618 101.100  11.397  1.00  0.00     0.084 C 
ENDROOT
BRANCH  10  12
HETATM   12  O20         0      42.260  98.852  10.754  1.00  0.00    -0.359 OA
HETATM   13  H20         0      42.257  98.821   9.805  1.00  0.00     0.218 HD
ENDBRANCH  10  12
BRANCH   4  14
HETATM   14  C5          0      45.011 104.429  11.885  1.00  0.00     0.025 C 
HETATM   15  C6          0      45.909 105.062  11.038  1.00  0.00     0.004 C 
HETATM   16  C7          0      46.124 106.423  11.228  1.00  0.00     0.026 C 
HETATM   17  C8          0      45.571 107.105  12.306  1.00  0.00     0.112 C 
HETATM   18  C10         0      45.246 106.305  13.393  1.00  0.00     0.112 C 
HETATM   19  C12         0      44.952 104.967  13.164  1.00  0.00     0.028 C 
BRANCH  17  20
HETATM   20  O9          0      45.193 108.431  12.187  1.00  0.00    -0.357 OA
HETATM   21  H9          0      45.726 109.160  12.483  1.00  0.00     0.218 HD
ENDBRANCH  17  20
BRANCH  18  22
HETATM   22  O11         0      44.869 106.954  14.560  1.00  0.00    -0.357 OA
HETATM   23  H11         0      43.985 106.798  14.873  1.00  0.00     0.218 HD
ENDBRANCH  18  22
ENDBRANCH   4  14
BRANCH   8  24
HETATM   24  O17         0      40.082 100.637  14.501  1.00  0.00    -0.359 OA
HETATM   25  H17         0      39.181 100.395  14.681  1.00  0.00     0.218 HD
ENDBRANCH   8  24
TORSDOF 5
ENDMDL
MODEL 7
REMARK VINA RESULT:      -3.8      2.545      4.105
REMARK  5 active torsions:
REMARK  status: ('A' for Active; 'I' for Inactive)
REMARK    1  A    between atoms: C4_4  and  C5_5 
REMARK    2  A    between atoms: C8_8  and  O9_9 
REMARK    3  A    between atoms: C10_11  and  O11_12 
REMARK    4  A    between atoms: C16_18  and  O17_19 
REMARK    5  A    between atoms: C19_22  and  O20_23 
ROOT
HETATM    1  O1          0      46.869 102.639  13.008  1.00  0.00    -0.286 OA
HETATM    2  C2          0      45.783 102.635  12.367  1.00  0.00     0.201 C 
HETATM    3  C3          0      44.711 103.444  12.701  1.00  0.00     0.067 C 
HETATM    4  C4          0      43.491 103.346  12.042  1.00  0.00     0.103 C 
HETATM    5  O13         0      43.368 102.470  11.061  1.00  0.00    -0.307 OA
HETATM    6  C14         0      44.342 101.652  10.728  1.00  0.00     0.107 C 
HETATM    7  C15         0      44.108 100.492  10.003  1.00  0.00     0.049 C 
HETATM    8  C16         0      45.084  99.512   9.875  1.00  0.00     0.093 C 
HETATM    9  C18         0      46.391  99.961  10.023  1.00  0.00     0.048 C 
HETATM   10  C19         0      46.658 101.142  10.702  1.00  0.00     0.096 C 
HETATM   11  C21         0      45.625 101.878  11.216  1.00  0.00     0.084 C 
ENDROOT
BRANCH  10  12
HETATM   12  O20         0      47.932 101.357  11.219  1.00  0.00    -0.359 OA
HETATM   13  H20         0      48.503 100.605  11.322  1.00  0.00     0.218 HD
ENDBRANCH  10  12
BRANCH   4  14
HETATM   14  C5          0      42.294 103.744  12.786  1.00  0.00     0.025 C 
HETATM   15  C6          0      41.055 103.150  12.590  1.00  0.00     0.004 C 
HETATM   16  C7          0      40.258 102.938  13.710  1.00  0.00     0.026 C 
HETATM   17  C8          0      40.618 103.421  14.964  1.00  0.00     0.112 C 
HETATM   18  C10         0      41.493 104.499  14.940  1.00  0.00     0.112 C 
HETATM   19  C12         0      42.340 104.639  13.847  1.00  0.00     0.028 C 
BRANCH  17  20
HETATM   20  O9          0      40.284 102.728  16.114  1.00  0.00    -0.357 OA
HETATM   21  H9          0      39.437 102.322  16.258  1.00  0.00     0.218 HD
ENDBRANCH  17  20
BRANCH  18  22
HETATM   22  O11         0      41.736 105.138  16.148  1.00  0.00    -0.357 OA
HETATM   23  H11         0      42.228 104.652  16.800  1.00  0.00     0.218 HD
ENDBRANCH  18  22
ENDBRANCH   4  14
BRANCH   8  24
HETATM   24  O17         0      44.763  98.151   9.934  1.00  0.00    -0.359 OA
HETATM   25  H17         0      45.277  97.539  10.448  1.00  0.00     0.218 HD
ENDBRANCH   8  24
TORSDOF 5
ENDMDL
MODEL 8
REMARK VINA RESULT:      -3.8      1.534      6.650
REMARK  5 active torsions:
REMARK  status: ('A' for Active; 'I' for Inactive)
REMARK    1  A    between atoms: C4_4  and  C5_5 
REMARK    2  A    between atoms: C8_8  and  O9_9 
REMARK    3  A    between atoms: C10_11  and  O11_12 
REMARK    4  A    between atoms: C16_18  and  O17_19 
REMARK    5  A    between atoms: C19_22  and  O20_23 
ROOT
HETATM    1  O1          0      44.595 104.340  11.836  1.00  0.00    -0.286 OA
HETATM    2  C2          0      43.748 103.965  12.692  1.00  0.00     0.201 C 
HETATM    3  C3          0      43.084 102.754  12.611  1.00  0.00     0.067 C 
HETATM    4  C4          0      42.081 102.410  13.511  1.00  0.00     0.103 C 
HETATM    5  O13         0      41.777 103.260  14.476  1.00  0.00    -0.307 OA
HETATM    6  C14         0      42.351 104.439  14.577  1.00  0.00     0.107 C 
HETATM    7  C15         0      41.779 105.469  15.309  1.00  0.00     0.049 C 
HETATM    8  C16         0      42.248 106.774  15.206  1.00  0.00     0.093 C 
HETATM    9  C18         0      43.570 106.891  14.794  1.00  0.00     0.048 C 
HETATM   10  C19         0      44.188 105.860  14.101  1.00  0.00     0.096 C 
HETATM   11  C21         0      43.494 104.710  13.834  1.00  0.00     0.084 C 
ENDROOT
BRANCH  10  12
HETATM   12  O20         0      45.314 106.135  13.331  1.00  0.00    -0.359 OA
HETATM   13  H20         0      46.052 106.555  13.757  1.00  0.00     0.218 HD
ENDBRANCH  10  12
BRANCH   4  14
HETATM   14  C5          0      41.056 101.474  13.046  1.00  0.00     0.025 C 
HETATM   15  C6          0      40.196 101.761  11.996  1.00  0.00     0.004 C 
HETATM   16  C7          0      39.875 100.726  11.124  1.00  0.00     0.026 C 
HETATM   17  C8          0      40.285  99.418  11.362  1.00  0.00     0.112 C 
HETATM   18  C10         0      40.565  99.132  12.692  1.00  0.00     0.112 C 
HETATM   19  C12         0      40.966 100.172  13.521  1.00  0.00     0.028 C 
BRANCH  17  20
HETATM   20  O9          0      40.582  98.566  10.314  1.00  0.00    -0.357 OA
HETATM   21  H9          0      39.954  98.305   9.651  1.00  0.00     0.218 HD
ENDBRANCH  17  20
BRANCH  18  22
HETATM   22  O11         0      40.794  97.801  13.013  1.00  0.00    -0.357 OA
HETATM   23  H11         0      40.965  97.603  13.927  1.00  0.00     0.218 HD
ENDBRANCH  18  22
ENDBRANCH   4  14
BRANCH   8  24
HETATM   24  O17         0      41.372 107.864  15.186  1.00  0.00    -0.359 OA
HETATM   25  H17         0      41.337 108.463  14.449  1.00  0.00     0.218 HD
ENDBRANCH   8  24
TORSDOF 5
ENDMDL
MODEL 9
REMARK VINA RESULT:      -3.8      1.842      2.545
REMARK  5 active torsions:
REMARK  status: ('A' for Active; 'I' for Inactive)
REMARK    1  A    between atoms: C4_4  and  C5_5 
REMARK    2  A    between atoms: C8_8  and  O9_9 
REMARK    3  A    between atoms: C10_11  and  O11_12 
REMARK    4  A    between atoms: C16_18  and  O17_19 
REMARK    5  A    between atoms: C19_22  and  O20_23 
ROOT
HETATM    1  O1          0      42.012 100.592  10.339  1.00  0.00    -0.286 OA
HETATM    2  C2          0      41.570 100.870  11.488  1.00  0.00     0.201 C 
HETATM    3  C3          0      41.798 102.088  12.105  1.00  0.00     0.067 C 
HETATM    4  C4          0      41.387 102.331  13.411  1.00  0.00     0.103 C 
HETATM    5  O13         0      40.746 101.377  14.063  1.00  0.00    -0.307 OA
HETATM    6  C14         0      40.536 100.190  13.537  1.00  0.00     0.107 C 
HETATM    7  C15         0      40.239  99.085  14.321  1.00  0.00     0.049 C 
HETATM    8  C16         0      40.271  97.799  13.797  1.00  0.00     0.093 C 
HETATM    9  C18         0      40.082  97.720  12.422  1.00  0.00     0.048 C 
HETATM   10  C19         0      40.325  98.821  11.613  1.00  0.00     0.096 C 
HETATM   11  C21         0      40.738  99.999  12.174  1.00  0.00     0.084 C 
ENDROOT
BRANCH  10  12
HETATM   12  O20         0      40.558  98.629  10.254  1.00  0.00    -0.359 OA
HETATM   13  H20         0      41.397  98.902   9.904  1.00  0.00     0.218 HD
ENDBRANCH  10  12
BRANCH   4  14
HETATM   14  C5          0      42.144 103.323  14.178  1.00  0.00     0.025 C 
HETATM   15  C6          0      43.494 103.181  14.465  1.00  0.00     0.004 C 
HETATM   16  C7          0      44.284 104.325  14.427  1.00  0.00     0.026 C 
HETATM   17  C8          0      43.732 105.588  14.243  1.00  0.00     0.112 C 
HETATM   18  C10         0      42.394 105.692  14.598  1.00  0.00     0.112 C 
HETATM   19  C12         0      41.605 104.549  14.545  1.00  0.00     0.028 C 
BRANCH  17  20
HETATM   20  O9          0      44.425 106.573  13.562  1.00  0.00    -0.357 OA
HETATM   21  H9          0      44.339 107.501  13.745  1.00  0.00     0.218 HD
ENDBRANCH  17  20
BRANCH  18  22
HETATM   22  O11         0      41.846 106.967  14.614  1.00  0.00    -0.357 OA
HETATM   23  H11         0      42.425 107.681  14.852  1.00  0.00     0.218 HD
ENDBRANCH  18  22
ENDBRANCH   4  14
BRANCH   8  24
HETATM   24  O17         0      40.785  96.724  14.531  1.00  0.00    -0.359 OA
HETATM   25  H17         0      41.643  96.359  14.348  1.00  0.00     0.218 HD
ENDBRANCH   8  24
TORSDOF 5
ENDMDL
