MODEL 1
REMARK VINA RESULT:      -0.9      0.000      0.000
REMARK  5 active torsions:
REMARK  status: ('A' for Active; 'I' for Inactive)
REMARK    1  A    between atoms: C4_4  and  C5_5 
REMARK    2  A    between atoms: C8_8  and  O9_9 
REMARK    3  A    between atoms: C10_11  and  O11_12 
REMARK    4  A    between atoms: C16_18  and  O17_19 
REMARK    5  A    between atoms: C19_22  and  O20_23 
ROOT
HETATM    1  O1          0      49.843   7.300 -24.355  1.00  0.00    -0.286 OA
HETATM    2  C2          0      49.771   7.053 -23.120  1.00  0.00     0.201 C 
HETATM    3  C3          0      49.943   5.783 -22.597  1.00  0.00     0.067 C 
HETATM    4  C4          0      49.757   5.521 -21.244  1.00  0.00     0.103 C 
HETATM    5  O13         0      49.428   6.519 -20.444  1.00  0.00    -0.307 OA
HETATM    6  C14         0      49.216   7.736 -20.894  1.00  0.00     0.107 C 
HETATM    7  C15         0      48.500   8.672 -20.163  1.00  0.00     0.049 C 
HETATM    8  C16         0      48.061   9.858 -20.740  1.00  0.00     0.093 C 
HETATM    9  C18         0      48.797  10.282 -21.840  1.00  0.00     0.048 C 
HETATM   10  C19         0      49.562   9.380 -22.567  1.00  0.00     0.096 C 
HETATM   11  C21         0      49.606   8.066 -22.188  1.00  0.00     0.084 C 
ENDROOT
BRANCH  10  12
HETATM   12  O20         0      49.927   9.695 -23.872  1.00  0.00    -0.359 OA
HETATM   13  H20         0      50.692   9.266 -24.236  1.00  0.00     0.218 HD
ENDBRANCH  10  12
BRANCH   4  14
HETATM   14  C5          0      49.362   4.160 -20.874  1.00  0.00     0.025 C 
HETATM   15  C6          0      48.432   3.892 -19.880  1.00  0.00     0.004 C 
HETATM   16  C7          0      47.549   2.838 -20.092  1.00  0.00     0.026 C 
HETATM   17  C8          0      47.670   1.995 -21.191  1.00  0.00     0.112 C 
HETATM   18  C10         0      48.942   1.942 -21.745  1.00  0.00     0.112 C 
HETATM   19  C12         0      49.775   3.044 -21.590  1.00  0.00     0.028 C 
BRANCH  17  20
HETATM   20  O9          0      46.550   1.438 -21.784  1.00  0.00    -0.357 OA
HETATM   21  H9          0      45.913   1.938 -22.281  1.00  0.00     0.218 HD
ENDBRANCH  17  20
BRANCH  18  22
HETATM   22  O11         0      49.164   0.980 -22.719  1.00  0.00    -0.357 OA
HETATM   23  H11         0      49.992   0.514 -22.682  1.00  0.00     0.218 HD
ENDBRANCH  18  22
ENDBRANCH   4  14
BRANCH   8  24
HETATM   24  O17         0      46.798  10.386 -20.452  1.00  0.00    -0.359 OA
HETATM   25  H17         0      46.695  11.213 -19.997  1.00  0.00     0.218 HD
ENDBRANCH   8  24
TORSDOF 5
ENDMDL
MODEL 2
REMARK VINA RESULT:      -0.9      3.147      5.715
REMARK  5 active torsions:
REMARK  status: ('A' for Active; 'I' for Inactive)
REMARK    1  A    between atoms: C4_4  and  C5_5 
REMARK    2  A    between atoms: C8_8  and  O9_9 
REMARK    3  A    between atoms: C10_11  and  O11_12 
REMARK    4  A    between atoms: C16_18  and  O17_19 
REMARK    5  A    between atoms: C19_22  and  O20_23 
ROOT
HETATM    1  O1          0      48.654   9.785 -22.286  1.00  0.00    -0.286 OA
HETATM    2  C2          0      49.161   8.768 -22.833  1.00  0.00     0.201 C 
HETATM    3  C3          0      49.245   8.618 -24.207  1.00  0.00     0.067 C 
HETATM    4  C4          0      49.714   7.444 -24.784  1.00  0.00     0.103 C 
HETATM    5  O13         0      50.106   6.460 -23.994  1.00  0.00    -0.307 OA
HETATM    6  C14         0      50.013   6.536 -22.685  1.00  0.00     0.107 C 
HETATM    7  C15         0      50.036   5.404 -21.883  1.00  0.00     0.049 C 
HETATM    8  C16         0      49.685   5.463 -20.540  1.00  0.00     0.093 C 
HETATM    9  C18         0      49.837   6.711 -19.948  1.00  0.00     0.048 C 
HETATM   10  C19         0      49.866   7.862 -20.724  1.00  0.00     0.096 C 
HETATM   11  C21         0      49.759   7.765 -22.085  1.00  0.00     0.084 C 
ENDROOT
BRANCH  10  12
HETATM   12  O20         0      49.581   9.089 -20.133  1.00  0.00    -0.359 OA
HETATM   13  H20         0      49.122   9.086 -19.301  1.00  0.00     0.218 HD
ENDBRANCH  10  12
BRANCH   4  14
HETATM   14  C5          0      49.231   7.119 -26.128  1.00  0.00     0.025 C 
HETATM   15  C6          0      48.996   5.818 -26.547  1.00  0.00     0.004 C 
HETATM   16  C7          0      47.892   5.594 -27.365  1.00  0.00     0.026 C 
HETATM   17  C8          0      47.125   6.643 -27.859  1.00  0.00     0.112 C 
HETATM   18  C10         0      47.784   7.865 -27.917  1.00  0.00     0.112 C 
HETATM   19  C12         0      48.829   8.094 -27.031  1.00  0.00     0.028 C 
BRANCH  17  20
HETATM   20  O9          0      45.765   6.493 -28.062  1.00  0.00    -0.357 OA
HETATM   21  H9          0      45.390   5.940 -28.738  1.00  0.00     0.218 HD
ENDBRANCH  17  20
BRANCH  18  22
HETATM   22  O11         0      47.132   8.899 -28.574  1.00  0.00    -0.357 OA
HETATM   23  H11         0      47.592   9.304 -29.300  1.00  0.00     0.218 HD
ENDBRANCH  18  22
ENDBRANCH   4  14
BRANCH   8  24
HETATM   24  O17         0      48.928   4.451 -19.939  1.00  0.00    -0.359 OA
HETATM   25  H17         0      49.111   4.148 -19.057  1.00  0.00     0.218 HD
ENDBRANCH   8  24
TORSDOF 5
ENDMDL
MODEL 3
REMARK VINA RESULT:      -0.8      1.865      2.290
REMARK  5 active torsions:
REMARK  status: ('A' for Active; 'I' for Inactive)
REMARK    1  A    between atoms: C4_4  and  C5_5 
REMARK    2  A    between atoms: C8_8  and  O9_9 
REMARK    3  A    between atoms: C10_11  and  O11_12 
REMARK    4  A    between atoms: C16_18  and  O17_19 
REMARK    5  A    between atoms: C19_22  and  O20_23 
ROOT
HETATM    1  O1          0      46.124   7.775 -23.827  1.00  0.00    -0.286 OA
HETATM    2  C2          0      47.268   7.841 -23.300  1.00  0.00     0.201 C 
HETATM    3  C3          0      48.096   6.740 -23.165  1.00  0.00     0.067 C 
HETATM    4  C4          0      49.309   6.819 -22.489  1.00  0.00     0.103 C 
HETATM    5  O13         0      49.680   7.983 -21.985  1.00  0.00    -0.307 OA
HETATM    6  C14         0      48.914   9.050 -22.053  1.00  0.00     0.107 C 
HETATM    7  C15         0      49.096  10.135 -21.208  1.00  0.00     0.049 C 
HETATM    8  C16         0      48.141  11.140 -21.107  1.00  0.00     0.093 C 
HETATM    9  C18         0      47.320  11.282 -22.219  1.00  0.00     0.048 C 
HETATM   10  C19         0      47.152  10.232 -23.112  1.00  0.00     0.096 C 
HETATM   11  C21         0      47.814   9.052 -22.904  1.00  0.00     0.084 C 
ENDROOT
BRANCH  10  12
HETATM   12  O20         0      46.036  10.216 -23.942  1.00  0.00    -0.359 OA
HETATM   13  H20         0      45.774  11.031 -24.352  1.00  0.00     0.218 HD
ENDBRANCH  10  12
BRANCH   4  14
HETATM   14  C5          0      49.813   5.591 -21.872  1.00  0.00     0.025 C 
HETATM   15  C6          0      50.103   5.494 -20.519  1.00  0.00     0.004 C 
HETATM   16  C7          0      49.789   4.301 -19.876  1.00  0.00     0.026 C 
HETATM   17  C8          0      49.327   3.193 -20.579  1.00  0.00     0.112 C 
HETATM   18  C10         0      49.669   3.176 -21.924  1.00  0.00     0.112 C 
HETATM   19  C12         0      49.895   4.390 -22.564  1.00  0.00     0.028 C 
BRANCH  17  20
HETATM   20  O9          0      48.426   2.315 -20.004  1.00  0.00    -0.357 OA
HETATM   21  H9          0      47.486   2.357 -20.141  1.00  0.00     0.218 HD
ENDBRANCH  17  20
BRANCH  18  22
HETATM   22  O11         0      49.399   2.011 -22.627  1.00  0.00    -0.357 OA
HETATM   23  H11         0      49.542   2.032 -23.566  1.00  0.00     0.218 HD
ENDBRANCH  18  22
ENDBRANCH   4  14
BRANCH   8  24
HETATM   24  O17         0      47.817  11.718 -19.875  1.00  0.00    -0.359 OA
HETATM   25  H17         0      47.909  11.239 -19.060  1.00  0.00     0.218 HD
ENDBRANCH   8  24
TORSDOF 5
ENDMDL
MODEL 4
REMARK VINA RESULT:      -0.8      1.878      6.768
REMARK  5 active torsions:
REMARK  status: ('A' for Active; 'I' for Inactive)
REMARK    1  A    between atoms: C4_4  and  C5_5 
REMARK    2  A    between atoms: C8_8  and  O9_9 
REMARK    3  A    between atoms: C10_11  and  O11_12 
REMARK    4  A    between atoms: C16_18  and  O17_19 
REMARK    5  A    between atoms: C19_22  and  O20_23 
ROOT
HETATM    1  O1          0      45.986   4.925 -22.903  1.00  0.00    -0.286 OA
HETATM    2  C2          0      46.872   5.364 -22.119  1.00  0.00     0.201 C 
HETATM    3  C3          0      47.345   6.664 -22.174  1.00  0.00     0.067 C 
HETATM    4  C4          0      48.393   7.092 -21.367  1.00  0.00     0.103 C 
HETATM    5  O13         0      48.930   6.236 -20.516  1.00  0.00    -0.307 OA
HETATM    6  C14         0      48.544   4.981 -20.450  1.00  0.00     0.107 C 
HETATM    7  C15         0      49.340   4.000 -19.875  1.00  0.00     0.049 C 
HETATM    8  C16         0      49.049   2.650 -20.033  1.00  0.00     0.093 C 
HETATM    9  C18         0      47.716   2.365 -20.301  1.00  0.00     0.048 C 
HETATM   10  C19         0      46.879   3.337 -20.833  1.00  0.00     0.096 C 
HETATM   11  C21         0      47.366   4.591 -21.079  1.00  0.00     0.084 C 
ENDROOT
BRANCH  10  12
HETATM   12  O20         0      45.716   2.947 -21.491  1.00  0.00    -0.359 OA
HETATM   13  H20         0      45.044   3.603 -21.633  1.00  0.00     0.218 HD
ENDBRANCH  10  12
BRANCH   4  14
HETATM   14  C5          0      49.212   8.199 -21.864  1.00  0.00     0.025 C 
HETATM   15  C6          0      49.577   8.324 -23.197  1.00  0.00     0.004 C 
HETATM   16  C7          0      49.597   9.604 -23.742  1.00  0.00     0.026 C 
HETATM   17  C8          0      49.391  10.734 -22.959  1.00  0.00     0.112 C 
HETATM   18  C10         0      49.667  10.562 -21.609  1.00  0.00     0.112 C 
HETATM   19  C12         0      49.557   9.285 -21.070  1.00  0.00     0.028 C 
BRANCH  17  20
HETATM   20  O9          0      48.762  11.852 -23.478  1.00  0.00    -0.357 OA
HETATM   21  H9          0      48.974  12.743 -23.224  1.00  0.00     0.218 HD
ENDBRANCH  17  20
BRANCH  18  22
HETATM   22  O11         0      49.661  11.700 -20.816  1.00  0.00    -0.357 OA
HETATM   23  H11         0      49.627  11.569 -19.875  1.00  0.00     0.218 HD
ENDBRANCH  18  22
ENDBRANCH   4  14
BRANCH   8  24
HETATM   24  O17         0      50.060   1.706 -20.242  1.00  0.00    -0.359 OA
HETATM   25  H17         0      50.158   0.947 -19.680  1.00  0.00     0.218 HD
ENDBRANCH   8  24
TORSDOF 5
ENDMDL
MODEL 5
REMARK VINA RESULT:      -0.7      2.858      4.701
REMARK  5 active torsions:
REMARK  status: ('A' for Active; 'I' for Inactive)
REMARK    1  A    between atoms: C4_4  and  C5_5 
REMARK    2  A    between atoms: C8_8  and  O9_9 
REMARK    3  A    between atoms: C10_11  and  O11_12 
REMARK    4  A    between atoms: C16_18  and  O17_19 
REMARK    5  A    between atoms: C19_22  and  O20_23 
ROOT
HETATM    1  O1          0      46.064   9.802 -24.909  1.00  0.00    -0.286 OA
HETATM    2  C2          0      46.790  10.165 -23.943  1.00  0.00     0.201 C 
HETATM    3  C3          0      47.981   9.536 -23.622  1.00  0.00     0.067 C 
HETATM    4  C4          0      48.710   9.889 -22.492  1.00  0.00     0.103 C 
HETATM    5  O13         0      48.258  10.865 -21.724  1.00  0.00    -0.307 OA
HETATM    6  C14         0      47.115  11.470 -21.963  1.00  0.00     0.107 C 
HETATM    7  C15         0      46.448  12.187 -20.980  1.00  0.00     0.049 C 
HETATM    8  C16         0      45.135  12.604 -21.157  1.00  0.00     0.093 C 
HETATM    9  C18         0      44.737  12.745 -22.481  1.00  0.00     0.048 C 
HETATM   10  C19         0      45.411  12.078 -23.495  1.00  0.00     0.096 C 
HETATM   11  C21         0      46.487  11.289 -23.191  1.00  0.00     0.084 C 
ENDROOT
BRANCH  10  12
HETATM   12  O20         0      44.773  11.869 -24.714  1.00  0.00    -0.359 OA
HETATM   13  H20         0      44.855  12.539 -25.381  1.00  0.00     0.218 HD
ENDBRANCH  10  12
BRANCH   4  14
HETATM   14  C5          0      49.561   8.859 -21.895  1.00  0.00     0.025 C 
HETATM   15  C6          0      49.949   8.883 -20.563  1.00  0.00     0.004 C 
HETATM   16  C7          0      50.005   7.669 -19.886  1.00  0.00     0.026 C 
HETATM   17  C8          0      49.814   6.458 -20.542  1.00  0.00     0.112 C 
HETATM   18  C10         0      50.066   6.492 -21.907  1.00  0.00     0.112 C 
HETATM   19  C12         0      49.919   7.702 -22.575  1.00  0.00     0.028 C 
BRANCH  17  20
HETATM   20  O9          0      49.217   5.389 -19.898  1.00  0.00    -0.357 OA
HETATM   21  H9          0      48.708   5.471 -19.100  1.00  0.00     0.218 HD
ENDBRANCH  17  20
BRANCH  18  22
HETATM   22  O11         0      50.074   5.276 -22.576  1.00  0.00    -0.357 OA
HETATM   23  H11         0      49.360   5.114 -23.182  1.00  0.00     0.218 HD
ENDBRANCH  18  22
ENDBRANCH   4  14
BRANCH   8  24
HETATM   24  O17         0      44.206  12.554 -20.112  1.00  0.00    -0.359 OA
HETATM   25  H17         0      43.903  11.728 -19.753  1.00  0.00     0.218 HD
ENDBRANCH   8  24
TORSDOF 5
ENDMDL
MODEL 6
REMARK VINA RESULT:      -0.7      2.607      3.837
REMARK  5 active torsions:
REMARK  status: ('A' for Active; 'I' for Inactive)
REMARK    1  A    between atoms: C4_4  and  C5_5 
REMARK    2  A    between atoms: C8_8  and  O9_9 
REMARK    3  A    between atoms: C10_11  and  O11_12 
REMARK    4  A    between atoms: C16_18  and  O17_19 
REMARK    5  A    between atoms: C19_22  and  O20_23 
ROOT
HETATM    1  O1          0      46.256   8.508 -25.292  1.00  0.00    -0.286 OA
HETATM    2  C2          0      47.294   8.855 -24.664  1.00  0.00     0.201 C 
HETATM    3  C3          0      48.173   7.943 -24.106  1.00  0.00     0.067 C 
HETATM    4  C4          0      49.253   8.353 -23.332  1.00  0.00     0.103 C 
HETATM    5  O13         0      49.448   9.647 -23.148  1.00  0.00    -0.307 OA
HETATM    6  C14         0      48.622  10.553 -23.624  1.00  0.00     0.107 C 
HETATM    7  C15         0      48.582  11.844 -23.118  1.00  0.00     0.049 C 
HETATM    8  C16         0      47.548  12.714 -23.441  1.00  0.00     0.093 C 
HETATM    9  C18         0      46.905  12.441 -24.642  1.00  0.00     0.048 C 
HETATM   10  C19         0      46.963  11.172 -25.201  1.00  0.00     0.096 C 
HETATM   11  C21         0      47.674  10.185 -24.573  1.00  0.00     0.084 C 
ENDROOT
BRANCH  10  12
HETATM   12  O20         0      45.997  10.791 -26.127  1.00  0.00    -0.359 OA
HETATM   13  H20         0      45.534   9.975 -25.977  1.00  0.00     0.218 HD
ENDBRANCH  10  12
BRANCH   4  14
HETATM   14  C5          0      49.748   7.415 -22.322  1.00  0.00     0.025 C 
HETATM   15  C6          0      49.754   7.705 -20.966  1.00  0.00     0.004 C 
HETATM   16  C7          0      49.444   6.674 -20.085  1.00  0.00     0.026 C 
HETATM   17  C8          0      49.266   5.367 -20.525  1.00  0.00     0.112 C 
HETATM   18  C10         0      49.886   5.073 -21.732  1.00  0.00     0.112 C 
HETATM   19  C12         0      50.106   6.109 -22.631  1.00  0.00     0.028 C 
BRANCH  17  20
HETATM   20  O9          0      48.366   4.524 -19.898  1.00  0.00    -0.357 OA
HETATM   21  H9          0      48.346   3.583 -20.027  1.00  0.00     0.218 HD
ENDBRANCH  17  20
BRANCH  18  22
HETATM   22  O11         0      49.900   3.741 -22.123  1.00  0.00    -0.357 OA
HETATM   23  H11         0      49.134   3.222 -21.909  1.00  0.00     0.218 HD
ENDBRANCH  18  22
ENDBRANCH   4  14
BRANCH   8  24
HETATM   24  O17         0      46.988  13.569 -22.485  1.00  0.00    -0.359 OA
HETATM   25  H17         0      46.288  14.172 -22.703  1.00  0.00     0.218 HD
ENDBRANCH   8  24
TORSDOF 5
ENDMDL
MODEL 7
REMARK VINA RESULT:      -0.7      2.229      2.981
REMARK  5 active torsions:
REMARK  status: ('A' for Active; 'I' for Inactive)
REMARK    1  A    between atoms: C4_4  and  C5_5 
REMARK    2  A    between atoms: C8_8  and  O9_9 
REMARK    3  A    between atoms: C10_11  and  O11_12 
REMARK    4  A    between atoms: C16_18  and  O17_19 
REMARK    5  A    between atoms: C19_22  and  O20_23 
ROOT
HETATM    1  O1          0      49.572   9.819 -25.257  1.00  0.00    -0.286 OA
HETATM    2  C2          0      49.790   9.618 -24.031  1.00  0.00     0.201 C 
HETATM    3  C3          0      49.921   8.350 -23.490  1.00  0.00     0.067 C 
HETATM    4  C4          0      50.059   8.153 -22.121  1.00  0.00     0.103 C 
HETATM    5  O13         0      50.085   9.208 -21.327  1.00  0.00    -0.307 OA
HETATM    6  C14         0      49.927  10.431 -21.784  1.00  0.00     0.107 C 
HETATM    7  C15         0      49.557  11.480 -20.955  1.00  0.00     0.049 C 
HETATM    8  C16         0      49.146  12.701 -21.475  1.00  0.00     0.093 C 
HETATM    9  C18         0      49.621  12.986 -22.750  1.00  0.00     0.048 C 
HETATM   10  C19         0      50.044  11.964 -23.589  1.00  0.00     0.096 C 
HETATM   11  C21         0      50.009  10.668 -23.152  1.00  0.00     0.084 C 
ENDROOT
BRANCH  10  12
HETATM   12  O20         0      50.097  12.189 -24.961  1.00  0.00    -0.359 OA
HETATM   13  H20         0      50.872  12.607 -25.315  1.00  0.00     0.218 HD
ENDBRANCH  10  12
BRANCH   4  14
HETATM   14  C5          0      49.595   6.874 -21.579  1.00  0.00     0.025 C 
HETATM   15  C6          0      49.221   6.711 -20.253  1.00  0.00     0.004 C 
HETATM   16  C7          0      48.133   5.885 -19.987  1.00  0.00     0.026 C 
HETATM   17  C8          0      47.521   5.141 -20.989  1.00  0.00     0.112 C 
HETATM   18  C10         0      48.324   4.880 -22.091  1.00  0.00     0.112 C 
HETATM   19  C12         0      49.352   5.768 -22.383  1.00  0.00     0.028 C 
BRANCH  17  20
HETATM   20  O9          0      46.162   4.883 -20.950  1.00  0.00    -0.357 OA
HETATM   21  H9          0      45.502   5.552 -20.807  1.00  0.00     0.218 HD
ENDBRANCH  17  20
BRANCH  18  22
HETATM   22  O11         0      47.831   3.987 -23.031  1.00  0.00    -0.357 OA
HETATM   23  H11         0      46.970   4.171 -23.390  1.00  0.00     0.218 HD
ENDBRANCH  18  22
ENDBRANCH   4  14
BRANCH   8  24
HETATM   24  O17         0      48.083  13.414 -20.910  1.00  0.00    -0.359 OA
HETATM   25  H17         0      47.181  13.138 -21.022  1.00  0.00     0.218 HD
ENDBRANCH   8  24
TORSDOF 5
ENDMDL
MODEL 8
REMARK VINA RESULT:      -0.6      2.515      7.128
REMARK  5 active torsions:
REMARK  status: ('A' for Active; 'I' for Inactive)
REMARK    1  A    between atoms: C4_4  and  C5_5 
REMARK    2  A    between atoms: C8_8  and  O9_9 
REMARK    3  A    between atoms: C10_11  and  O11_12 
REMARK    4  A    between atoms: C16_18  and  O17_19 
REMARK    5  A    between atoms: C19_22  and  O20_23 
ROOT
HETATM    1  O1          0      45.401   6.748 -22.992  1.00  0.00    -0.286 OA
HETATM    2  C2          0      46.152   7.264 -22.118  1.00  0.00     0.201 C 
HETATM    3  C3          0      46.331   8.631 -21.995  1.00  0.00     0.067 C 
HETATM    4  C4          0      47.241   9.168 -21.092  1.00  0.00     0.103 C 
HETATM    5  O13         0      47.933   8.346 -20.323  1.00  0.00    -0.307 OA
HETATM    6  C14         0      47.828   7.039 -20.425  1.00  0.00     0.107 C 
HETATM    7  C15         0      48.805   6.187 -19.931  1.00  0.00     0.049 C 
HETATM    8  C16         0      48.819   4.837 -20.261  1.00  0.00     0.093 C 
HETATM    9  C18         0      47.587   4.309 -20.627  1.00  0.00     0.048 C 
HETATM   10  C19         0      46.571   5.139 -21.081  1.00  0.00     0.096 C 
HETATM   11  C21         0      46.779   6.490 -21.154  1.00  0.00     0.084 C 
ENDROOT
BRANCH  10  12
HETATM   12  O20         0      45.537   4.597 -21.838  1.00  0.00    -0.359 OA
HETATM   13  H20         0      44.690   5.025 -21.806  1.00  0.00     0.218 HD
ENDBRANCH  10  12
BRANCH   4  14
HETATM   14  C5          0      47.811  10.478 -21.414  1.00  0.00     0.025 C 
HETATM   15  C6          0      49.168  10.750 -21.327  1.00  0.00     0.004 C 
HETATM   16  C7          0      49.726  11.568 -22.305  1.00  0.00     0.026 C 
HETATM   17  C8          0      48.939  12.204 -23.259  1.00  0.00     0.112 C 
HETATM   18  C10         0      47.613  12.385 -22.890  1.00  0.00     0.112 C 
HETATM   19  C12         0      47.056  11.501 -21.974  1.00  0.00     0.028 C 
BRANCH  17  20
HETATM   20  O9          0      49.419  12.429 -24.537  1.00  0.00    -0.357 OA
HETATM   21  H9          0      50.265  12.126 -24.845  1.00  0.00     0.218 HD
ENDBRANCH  17  20
BRANCH  18  22
HETATM   22  O11         0      46.833  13.178 -23.720  1.00  0.00    -0.357 OA
HETATM   23  H11         0      46.754  14.096 -23.488  1.00  0.00     0.218 HD
ENDBRANCH  18  22
ENDBRANCH   4  14
BRANCH   8  24
HETATM   24  O17         0      50.017   4.165 -20.530  1.00  0.00    -0.359 OA
HETATM   25  H17         0      50.062   3.460 -21.166  1.00  0.00     0.218 HD
ENDBRANCH   8  24
TORSDOF 5
ENDMDL
MODEL 9
REMARK VINA RESULT:      -0.6      4.386      5.745
REMARK  5 active torsions:
REMARK  status: ('A' for Active; 'I' for Inactive)
REMARK    1  A    between atoms: C4_4  and  C5_5 
REMARK    2  A    between atoms: C8_8  and  O9_9 
REMARK    3  A    between atoms: C10_11  and  O11_12 
REMARK    4  A    between atoms: C16_18  and  O17_19 
REMARK    5  A    between atoms: C19_22  and  O20_23 
ROOT
HETATM    1  O1          0      47.000   6.992 -25.894  1.00  0.00    -0.286 OA
HETATM    2  C2          0      46.305   6.919 -24.844  1.00  0.00     0.201 C 
HETATM    3  C3          0      46.820   7.170 -23.583  1.00  0.00     0.067 C 
HETATM    4  C4          0      46.059   6.982 -22.435  1.00  0.00     0.103 C 
HETATM    5  O13         0      44.809   6.574 -22.561  1.00  0.00    -0.307 OA
HETATM    6  C14         0      44.282   6.286 -23.732  1.00  0.00     0.107 C 
HETATM    7  C15         0      43.147   5.497 -23.848  1.00  0.00     0.049 C 
HETATM    8  C16         0      42.745   4.988 -25.077  1.00  0.00     0.093 C 
HETATM    9  C18         0      43.181   5.709 -26.182  1.00  0.00     0.048 C 
HETATM   10  C19         0      44.286   6.545 -26.088  1.00  0.00     0.096 C 
HETATM   11  C21         0      44.941   6.672 -24.894  1.00  0.00     0.084 C 
ENDROOT
BRANCH  10  12
HETATM   12  O20         0      44.966   6.906 -27.247  1.00  0.00    -0.359 OA
HETATM   13  H20         0      45.152   6.227 -27.884  1.00  0.00     0.218 HD
ENDBRANCH  10  12
BRANCH   4  14
HETATM   14  C5          0      46.779   6.675 -21.198  1.00  0.00     0.025 C 
HETATM   15  C6          0      46.594   5.494 -20.493  1.00  0.00     0.004 C 
HETATM   16  C7          0      47.714   4.907 -19.913  1.00  0.00     0.026 C 
HETATM   17  C8          0      48.953   5.539 -19.918  1.00  0.00     0.112 C 
HETATM   18  C10         0      48.900   6.919 -20.059  1.00  0.00     0.112 C 
HETATM   19  C12         0      47.809   7.474 -20.718  1.00  0.00     0.028 C 
BRANCH  17  20
HETATM   20  O9          0      50.123   4.804 -19.989  1.00  0.00    -0.357 OA
HETATM   21  H9          0      50.254   4.077 -20.587  1.00  0.00     0.218 HD
ENDBRANCH  17  20
BRANCH  18  22
HETATM   22  O11         0      50.087   7.615 -19.881  1.00  0.00    -0.357 OA
HETATM   23  H11         0      50.879   7.208 -20.213  1.00  0.00     0.218 HD
ENDBRANCH  18  22
ENDBRANCH   4  14
BRANCH   8  24
HETATM   24  O17         0      42.243   3.688 -25.199  1.00  0.00    -0.359 OA
HETATM   25  H17         0      41.772   3.405 -25.973  1.00  0.00     0.218 HD
ENDBRANCH   8  24
TORSDOF 5
ENDMDL
