MODEL 1
REMARK VINA RESULT:      -4.6      0.000      0.000
REMARK  5 active torsions:
REMARK  status: ('A' for Active; 'I' for Inactive)
REMARK    1  A    between atoms: C4_4  and  C5_5 
REMARK    2  A    between atoms: C8_8  and  O9_9 
REMARK    3  A    between atoms: C10_11  and  O11_12 
REMARK    4  A    between atoms: C16_18  and  O17_19 
REMARK    5  A    between atoms: C19_22  and  O20_23 
ROOT
HETATM    1  O1          0      45.314  -6.822 -15.260  1.00  0.00    -0.286 OA
HETATM    2  C2          0      46.488  -6.368 -15.350  1.00  0.00     0.201 C 
HETATM    3  C3          0      46.886  -5.516 -16.367  1.00  0.00     0.067 C 
HETATM    4  C4          0      48.210  -5.113 -16.502  1.00  0.00     0.103 C 
HETATM    5  O13         0      49.097  -5.542 -15.622  1.00  0.00    -0.307 OA
HETATM    6  C14         0      48.779  -6.380 -14.660  1.00  0.00     0.107 C 
HETATM    7  C15         0      49.739  -7.133 -13.999  1.00  0.00     0.049 C 
HETATM    8  C16         0      49.383  -8.192 -13.173  1.00  0.00     0.093 C 
HETATM    9  C18         0      48.102  -8.115 -12.639  1.00  0.00     0.048 C 
HETATM   10  C19         0      47.130  -7.333 -13.248  1.00  0.00     0.096 C 
HETATM   11  C21         0      47.439  -6.620 -14.374  1.00  0.00     0.084 C 
ENDROOT
BRANCH  10  12
HETATM   12  O20         0      45.788  -7.592 -12.989  1.00  0.00    -0.359 OA
HETATM   13  H20         0      45.567  -8.022 -12.171  1.00  0.00     0.218 HD
ENDBRANCH  10  12
BRANCH   4  14
HETATM   14  C5          0      48.667  -4.754 -17.846  1.00  0.00     0.025 C 
HETATM   15  C6          0      49.960  -4.991 -18.288  1.00  0.00     0.004 C 
HETATM   16  C7          0      50.125  -5.397 -19.609  1.00  0.00     0.026 C 
HETATM   17  C8          0      49.057  -5.437 -20.498  1.00  0.00     0.112 C 
HETATM   18  C10         0      47.993  -4.609 -20.165  1.00  0.00     0.112 C 
HETATM   19  C12         0      47.801  -4.288 -18.827  1.00  0.00     0.028 C 
BRANCH  17  20
HETATM   20  O9          0      49.004  -6.391 -21.500  1.00  0.00    -0.357 OA
HETATM   21  H9          0      49.380  -7.260 -21.422  1.00  0.00     0.218 HD
ENDBRANCH  17  20
BRANCH  18  22
HETATM   22  O11         0      46.987  -4.467 -21.110  1.00  0.00    -0.357 OA
HETATM   23  H11         0      46.104  -4.683 -20.834  1.00  0.00     0.218 HD
ENDBRANCH  18  22
ENDBRANCH   4  14
BRANCH   8  24
HETATM   24  O17         0      50.115  -9.384 -13.158  1.00  0.00    -0.359 OA
HETATM   25  H17         0      50.483  -9.734 -12.355  1.00  0.00     0.218 HD
ENDBRANCH   8  24
TORSDOF 5
ENDMDL
MODEL 2
REMARK VINA RESULT:      -4.5      2.361      6.739
REMARK  5 active torsions:
REMARK  status: ('A' for Active; 'I' for Inactive)
REMARK    1  A    between atoms: C4_4  and  C5_5 
REMARK    2  A    between atoms: C8_8  and  O9_9 
REMARK    3  A    between atoms: C10_11  and  O11_12 
REMARK    4  A    between atoms: C16_18  and  O17_19 
REMARK    5  A    between atoms: C19_22  and  O20_23 
ROOT
HETATM    1  O1          0      47.117  -4.472 -19.622  1.00  0.00    -0.286 OA
HETATM    2  C2          0      47.976  -4.364 -18.704  1.00  0.00     0.201 C 
HETATM    3  C3          0      48.088  -5.277 -17.669  1.00  0.00     0.067 C 
HETATM    4  C4          0      48.973  -5.080 -16.616  1.00  0.00     0.103 C 
HETATM    5  O13         0      49.736  -4.001 -16.621  1.00  0.00    -0.307 OA
HETATM    6  C14         0      49.642  -3.083 -17.559  1.00  0.00     0.107 C 
HETATM    7  C15         0      50.125  -1.796 -17.373  1.00  0.00     0.049 C 
HETATM    8  C16         0      49.802  -0.770 -18.252  1.00  0.00     0.093 C 
HETATM    9  C18         0      49.459  -1.182 -19.534  1.00  0.00     0.048 C 
HETATM   10  C19         0      49.017  -2.478 -19.764  1.00  0.00     0.096 C 
HETATM   11  C21         0      48.934  -3.362 -18.723  1.00  0.00     0.084 C 
ENDROOT
BRANCH  10  12
HETATM   12  O20         0      48.280  -2.752 -20.912  1.00  0.00    -0.359 OA
HETATM   13  H20         0      47.996  -2.019 -21.445  1.00  0.00     0.218 HD
ENDBRANCH  10  12
BRANCH   4  14
HETATM   14  C5          0      48.635  -5.697 -15.332  1.00  0.00     0.025 C 
HETATM   15  C6          0      47.349  -5.692 -14.811  1.00  0.00     0.004 C 
HETATM   16  C7          0      46.918  -6.837 -14.148  1.00  0.00     0.026 C 
HETATM   17  C8          0      47.777  -7.899 -13.893  1.00  0.00     0.112 C 
HETATM   18  C10         0      49.124  -7.563 -13.872  1.00  0.00     0.112 C 
HETATM   19  C12         0      49.542  -6.464 -14.613  1.00  0.00     0.028 C 
BRANCH  17  20
HETATM   20  O9          0      47.310  -9.202 -13.879  1.00  0.00    -0.357 OA
HETATM   21  H9          0      47.855  -9.960 -14.058  1.00  0.00     0.218 HD
ENDBRANCH  17  20
BRANCH  18  22
HETATM   22  O11         0      50.009  -8.540 -13.438  1.00  0.00    -0.357 OA
HETATM   23  H11         0      50.419  -8.404 -12.591  1.00  0.00     0.218 HD
ENDBRANCH  18  22
ENDBRANCH   4  14
BRANCH   8  24
HETATM   24  O17         0      49.517   0.521 -17.794  1.00  0.00    -0.359 OA
HETATM   25  H17         0      50.188   1.074 -17.410  1.00  0.00     0.218 HD
ENDBRANCH   8  24
TORSDOF 5
ENDMDL
MODEL 3
REMARK VINA RESULT:      -4.3     11.334     13.780
REMARK  5 active torsions:
REMARK  status: ('A' for Active; 'I' for Inactive)
REMARK    1  A    between atoms: C4_4  and  C5_5 
REMARK    2  A    between atoms: C8_8  and  O9_9 
REMARK    3  A    between atoms: C10_11  and  O11_12 
REMARK    4  A    between atoms: C16_18  and  O17_19 
REMARK    5  A    between atoms: C19_22  and  O20_23 
ROOT
HETATM    1  O1          0      48.001   4.499 -18.801  1.00  0.00    -0.286 OA
HETATM    2  C2          0      47.850   5.093 -17.699  1.00  0.00     0.201 C 
HETATM    3  C3          0      46.920   4.696 -16.753  1.00  0.00     0.067 C 
HETATM    4  C4          0      46.703   5.429 -15.592  1.00  0.00     0.103 C 
HETATM    5  O13         0      47.423   6.519 -15.385  1.00  0.00    -0.307 OA
HETATM    6  C14         0      48.292   6.960 -16.268  1.00  0.00     0.107 C 
HETATM    7  C15         0      48.744   8.271 -16.256  1.00  0.00     0.049 C 
HETATM    8  C16         0      49.456   8.799 -17.326  1.00  0.00     0.093 C 
HETATM    9  C18         0      50.125   7.863 -18.105  1.00  0.00     0.048 C 
HETATM   10  C19         0      49.728   6.532 -18.105  1.00  0.00     0.096 C 
HETATM   11  C21         0      48.681   6.136 -17.319  1.00  0.00     0.084 C 
ENDROOT
BRANCH  10  12
HETATM   12  O20         0      50.089   5.715 -19.172  1.00  0.00    -0.359 OA
HETATM   13  H20         0      50.988   5.413 -19.217  1.00  0.00     0.218 HD
ENDBRANCH  10  12
BRANCH   4  14
HETATM   14  C5          0      45.379   5.332 -14.976  1.00  0.00     0.025 C 
HETATM   15  C6          0      44.355   4.564 -15.510  1.00  0.00     0.004 C 
HETATM   16  C7          0      43.533   3.878 -14.623  1.00  0.00     0.026 C 
HETATM   17  C8          0      43.637   4.054 -13.247  1.00  0.00     0.112 C 
HETATM   18  C10         0      44.210   5.258 -12.859  1.00  0.00     0.112 C 
HETATM   19  C12         0      45.095   5.880 -13.731  1.00  0.00     0.028 C 
BRANCH  17  20
HETATM   20  O9          0      43.379   3.010 -12.377  1.00  0.00    -0.357 OA
HETATM   21  H9          0      44.057   2.485 -11.967  1.00  0.00     0.218 HD
ENDBRANCH  17  20
BRANCH  18  22
HETATM   22  O11         0      44.166   5.568 -11.507  1.00  0.00    -0.357 OA
HETATM   23  H11         0      44.670   5.013 -10.922  1.00  0.00     0.218 HD
ENDBRANCH  18  22
ENDBRANCH   4  14
BRANCH   8  24
HETATM   24  O17         0      49.237  10.107 -17.774  1.00  0.00    -0.359 OA
HETATM   25  H17         0      49.579  10.859 -17.305  1.00  0.00     0.218 HD
ENDBRANCH   8  24
TORSDOF 5
ENDMDL
MODEL 4
REMARK VINA RESULT:      -4.3      2.101      3.125
REMARK  5 active torsions:
REMARK  status: ('A' for Active; 'I' for Inactive)
REMARK    1  A    between atoms: C4_4  and  C5_5 
REMARK    2  A    between atoms: C8_8  and  O9_9 
REMARK    3  A    between atoms: C10_11  and  O11_12 
REMARK    4  A    between atoms: C16_18  and  O17_19 
REMARK    5  A    between atoms: C19_22  and  O20_23 
ROOT
HETATM    1  O1          0      49.951  -6.357 -13.618  1.00  0.00    -0.286 OA
HETATM    2  C2          0      49.064  -5.919 -14.400  1.00  0.00     0.201 C 
HETATM    3  C3          0      49.190  -5.963 -15.778  1.00  0.00     0.067 C 
HETATM    4  C4          0      48.245  -5.381 -16.615  1.00  0.00     0.103 C 
HETATM    5  O13         0      47.194  -4.792 -16.073  1.00  0.00    -0.307 OA
HETATM    6  C14         0      47.044  -4.689 -14.770  1.00  0.00     0.107 C 
HETATM    7  C15         0      46.190  -3.755 -14.204  1.00  0.00     0.049 C 
HETATM    8  C16         0      46.224  -3.477 -12.843  1.00  0.00     0.093 C 
HETATM    9  C18         0      46.726  -4.500 -12.047  1.00  0.00     0.048 C 
HETATM   10  C19         0      47.547  -5.479 -12.592  1.00  0.00     0.096 C 
HETATM   11  C21         0      47.850  -5.445 -13.926  1.00  0.00     0.084 C 
ENDROOT
BRANCH  10  12
HETATM   12  O20         0      48.377  -6.214 -11.752  1.00  0.00    -0.359 OA
HETATM   13  H20         0      49.022  -6.785 -12.153  1.00  0.00     0.218 HD
ENDBRANCH  10  12
BRANCH   4  14
HETATM   14  C5          0      48.702  -4.934 -17.932  1.00  0.00     0.025 C 
HETATM   15  C6          0      49.983  -5.175 -18.406  1.00  0.00     0.004 C 
HETATM   16  C7          0      50.125  -5.485 -19.755  1.00  0.00     0.026 C 
HETATM   17  C8          0      49.048  -5.425 -20.633  1.00  0.00     0.112 C 
HETATM   18  C10         0      48.013  -4.593 -20.227  1.00  0.00     0.112 C 
HETATM   19  C12         0      47.843  -4.369 -18.866  1.00  0.00     0.028 C 
BRANCH  17  20
HETATM   20  O9          0      48.958  -6.297 -21.704  1.00  0.00    -0.357 OA
HETATM   21  H9          0      49.616  -6.365 -22.386  1.00  0.00     0.218 HD
ENDBRANCH  17  20
BRANCH  18  22
HETATM   22  O11         0      47.004  -4.349 -21.148  1.00  0.00    -0.357 OA
HETATM   23  H11         0      46.899  -4.983 -21.848  1.00  0.00     0.218 HD
ENDBRANCH  18  22
ENDBRANCH   4  14
BRANCH   8  24
HETATM   24  O17         0      46.087  -2.170 -12.361  1.00  0.00    -0.359 OA
HETATM   25  H17         0      46.715  -1.491 -12.578  1.00  0.00     0.218 HD
ENDBRANCH   8  24
TORSDOF 5
ENDMDL
MODEL 5
REMARK VINA RESULT:      -4.0     11.683     14.053
REMARK  5 active torsions:
REMARK  status: ('A' for Active; 'I' for Inactive)
REMARK    1  A    between atoms: C4_4  and  C5_5 
REMARK    2  A    between atoms: C8_8  and  O9_9 
REMARK    3  A    between atoms: C10_11  and  O11_12 
REMARK    4  A    between atoms: C16_18  and  O17_19 
REMARK    5  A    between atoms: C19_22  and  O20_23 
ROOT
HETATM    1  O1          0      46.838   4.436 -18.580  1.00  0.00    -0.286 OA
HETATM    2  C2          0      47.180   5.129 -17.582  1.00  0.00     0.201 C 
HETATM    3  C3          0      46.464   5.143 -16.397  1.00  0.00     0.067 C 
HETATM    4  C4          0      46.804   5.993 -15.351  1.00  0.00     0.103 C 
HETATM    5  O13         0      47.851   6.787 -15.493  1.00  0.00    -0.307 OA
HETATM    6  C14         0      48.542   6.840 -16.610  1.00  0.00     0.107 C 
HETATM    7  C15         0      49.360   7.918 -16.913  1.00  0.00     0.049 C 
HETATM    8  C16         0      49.883   8.092 -18.189  1.00  0.00     0.093 C 
HETATM    9  C18         0      49.997   6.928 -18.939  1.00  0.00     0.048 C 
HETATM   10  C19         0      49.227   5.814 -18.635  1.00  0.00     0.096 C 
HETATM   11  C21         0      48.361   5.856 -17.576  1.00  0.00     0.084 C 
ENDROOT
BRANCH  10  12
HETATM   12  O20         0      49.018   4.843 -19.610  1.00  0.00    -0.359 OA
HETATM   13  H20         0      49.247   5.057 -20.506  1.00  0.00     0.218 HD
ENDBRANCH  10  12
BRANCH   4  14
HETATM   14  C5          0      45.732   6.396 -14.440  1.00  0.00     0.025 C 
HETATM   15  C6          0      45.015   7.573 -14.596  1.00  0.00     0.004 C 
HETATM   16  C7          0      43.653   7.540 -14.316  1.00  0.00     0.026 C 
HETATM   17  C8          0      43.047   6.414 -13.770  1.00  0.00     0.112 C 
HETATM   18  C10         0      43.907   5.569 -13.082  1.00  0.00     0.112 C 
HETATM   19  C12         0      45.250   5.560 -13.440  1.00  0.00     0.028 C 
BRANCH  17  20
HETATM   20  O9          0      41.741   6.087 -14.088  1.00  0.00    -0.357 OA
HETATM   21  H9          0      41.379   6.149 -14.965  1.00  0.00     0.218 HD
ENDBRANCH  17  20
BRANCH  18  22
HETATM   22  O11         0      43.329   4.534 -12.360  1.00  0.00    -0.357 OA
HETATM   23  H11         0      42.778   3.929 -12.843  1.00  0.00     0.218 HD
ENDBRANCH  18  22
ENDBRANCH   4  14
BRANCH   8  24
HETATM   24  O17         0      49.964   9.358 -18.778  1.00  0.00    -0.359 OA
HETATM   25  H17         0      49.511   9.562 -19.588  1.00  0.00     0.218 HD
ENDBRANCH   8  24
TORSDOF 5
ENDMDL
MODEL 6
REMARK VINA RESULT:      -3.9      9.119     11.055
REMARK  5 active torsions:
REMARK  status: ('A' for Active; 'I' for Inactive)
REMARK    1  A    between atoms: C4_4  and  C5_5 
REMARK    2  A    between atoms: C8_8  and  O9_9 
REMARK    3  A    between atoms: C10_11  and  O11_12 
REMARK    4  A    between atoms: C16_18  and  O17_19 
REMARK    5  A    between atoms: C19_22  and  O20_23 
ROOT
HETATM    1  O1          0      44.554   4.639 -15.020  1.00  0.00    -0.286 OA
HETATM    2  C2          0      45.408   4.528 -15.941  1.00  0.00     0.201 C 
HETATM    3  C3          0      45.624   3.344 -16.625  1.00  0.00     0.067 C 
HETATM    4  C4          0      46.641   3.221 -17.565  1.00  0.00     0.103 C 
HETATM    5  O13         0      47.402   4.271 -17.818  1.00  0.00    -0.307 OA
HETATM    6  C14         0      47.263   5.407 -17.171  1.00  0.00     0.107 C 
HETATM    7  C15         0      48.276   6.355 -17.133  1.00  0.00     0.049 C 
HETATM    8  C16         0      48.228   7.427 -16.250  1.00  0.00     0.093 C 
HETATM    9  C18         0      46.953   7.786 -15.830  1.00  0.00     0.048 C 
HETATM   10  C19         0      45.906   6.876 -15.898  1.00  0.00     0.096 C 
HETATM   11  C21         0      46.128   5.622 -16.397  1.00  0.00     0.084 C 
ENDROOT
BRANCH  10  12
HETATM   12  O20         0      44.783   7.072 -15.101  1.00  0.00    -0.359 OA
HETATM   13  H20         0      44.827   6.796 -14.193  1.00  0.00     0.218 HD
ENDBRANCH  10  12
BRANCH   4  14
HETATM   14  C5          0      47.193   1.882 -17.783  1.00  0.00     0.025 C 
HETATM   15  C6          0      48.524   1.570 -17.550  1.00  0.00     0.004 C 
HETATM   16  C7          0      48.808   0.324 -17.000  1.00  0.00     0.026 C 
HETATM   17  C8          0      47.816  -0.632 -16.811  1.00  0.00     0.112 C 
HETATM   18  C10         0      46.703  -0.482 -17.627  1.00  0.00     0.112 C 
HETATM   19  C12         0      46.394   0.790 -18.095  1.00  0.00     0.028 C 
BRANCH  17  20
HETATM   20  O9          0      47.875  -1.514 -15.746  1.00  0.00    -0.357 OA
HETATM   21  H9          0      47.324  -1.447 -14.975  1.00  0.00     0.218 HD
ENDBRANCH  17  20
BRANCH  18  22
HETATM   22  O11         0      45.772  -1.511 -17.615  1.00  0.00    -0.357 OA
HETATM   23  H11         0      46.107  -2.393 -17.508  1.00  0.00     0.218 HD
ENDBRANCH  18  22
ENDBRANCH   4  14
BRANCH   8  24
HETATM   24  O17         0      49.375   7.875 -15.585  1.00  0.00    -0.359 OA
HETATM   25  H17         0      50.123   8.221 -16.057  1.00  0.00     0.218 HD
ENDBRANCH   8  24
TORSDOF 5
ENDMDL
MODEL 7
REMARK VINA RESULT:      -3.7      8.799     10.251
REMARK  5 active torsions:
REMARK  status: ('A' for Active; 'I' for Inactive)
REMARK    1  A    between atoms: C4_4  and  C5_5 
REMARK    2  A    between atoms: C8_8  and  O9_9 
REMARK    3  A    between atoms: C10_11  and  O11_12 
REMARK    4  A    between atoms: C16_18  and  O17_19 
REMARK    5  A    between atoms: C19_22  and  O20_23 
ROOT
HETATM    1  O1          0      43.174   2.060 -16.216  1.00  0.00    -0.286 OA
HETATM    2  C2          0      44.160   2.827 -16.390  1.00  0.00     0.201 C 
HETATM    3  C3          0      45.153   2.573 -17.322  1.00  0.00     0.067 C 
HETATM    4  C4          0      46.281   3.379 -17.423  1.00  0.00     0.103 C 
HETATM    5  O13         0      46.389   4.423 -16.619  1.00  0.00    -0.307 OA
HETATM    6  C14         0      45.494   4.687 -15.692  1.00  0.00     0.107 C 
HETATM    7  C15         0      45.782   5.508 -14.611  1.00  0.00     0.049 C 
HETATM    8  C16         0      44.933   5.580 -13.513  1.00  0.00     0.093 C 
HETATM    9  C18         0      43.609   5.247 -13.773  1.00  0.00     0.048 C 
HETATM   10  C19         0      43.281   4.466 -14.873  1.00  0.00     0.096 C 
HETATM   11  C21         0      44.266   4.035 -15.718  1.00  0.00     0.084 C 
ENDROOT
BRANCH  10  12
HETATM   12  O20         0      42.066   3.787 -14.886  1.00  0.00    -0.359 OA
HETATM   13  H20         0      41.788   3.389 -15.702  1.00  0.00     0.218 HD
ENDBRANCH  10  12
BRANCH   4  14
HETATM   14  C5          0      47.501   2.762 -17.944  1.00  0.00     0.025 C 
HETATM   15  C6          0      48.771   3.150 -17.544  1.00  0.00     0.004 C 
HETATM   16  C7          0      49.730   2.155 -17.386  1.00  0.00     0.026 C 
HETATM   17  C8          0      49.477   0.835 -17.744  1.00  0.00     0.112 C 
HETATM   18  C10         0      48.470   0.673 -18.686  1.00  0.00     0.112 C 
HETATM   19  C12         0      47.476   1.641 -18.764  1.00  0.00     0.028 C 
BRANCH  17  20
HETATM   20  O9          0      50.050  -0.211 -17.043  1.00  0.00    -0.357 OA
HETATM   21  H9          0      50.011  -0.297 -16.097  1.00  0.00     0.218 HD
ENDBRANCH  17  20
BRANCH  18  22
HETATM   22  O11         0      48.306  -0.599 -19.217  1.00  0.00    -0.357 OA
HETATM   23  H11         0      48.831  -0.819 -19.977  1.00  0.00     0.218 HD
ENDBRANCH  18  22
ENDBRANCH   4  14
BRANCH   8  24
HETATM   24  O17         0      45.433   5.648 -12.208  1.00  0.00    -0.359 OA
HETATM   25  H17         0      45.368   6.441 -11.690  1.00  0.00     0.218 HD
ENDBRANCH   8  24
TORSDOF 5
ENDMDL
MODEL 8
REMARK VINA RESULT:      -3.6     10.671     11.903
REMARK  5 active torsions:
REMARK  status: ('A' for Active; 'I' for Inactive)
REMARK    1  A    between atoms: C4_4  and  C5_5 
REMARK    2  A    between atoms: C8_8  and  O9_9 
REMARK    3  A    between atoms: C10_11  and  O11_12 
REMARK    4  A    between atoms: C16_18  and  O17_19 
REMARK    5  A    between atoms: C19_22  and  O20_23 
ROOT
HETATM    1  O1          0      44.011   2.189 -15.945  1.00  0.00    -0.286 OA
HETATM    2  C2          0      44.555   3.325 -15.870  1.00  0.00     0.201 C 
HETATM    3  C3          0      45.654   3.681 -16.631  1.00  0.00     0.067 C 
HETATM    4  C4          0      46.297   4.902 -16.456  1.00  0.00     0.103 C 
HETATM    5  O13         0      45.826   5.743 -15.552  1.00  0.00    -0.307 OA
HETATM    6  C14         0      44.808   5.439 -14.777  1.00  0.00     0.107 C 
HETATM    7  C15         0      44.565   6.115 -13.591  1.00  0.00     0.049 C 
HETATM    8  C16         0      43.654   5.633 -12.659  1.00  0.00     0.093 C 
HETATM    9  C18         0      42.666   4.805 -13.178  1.00  0.00     0.048 C 
HETATM   10  C19         0      42.857   4.149 -14.386  1.00  0.00     0.096 C 
HETATM   11  C21         0      44.022   4.332 -15.080  1.00  0.00     0.084 C 
ENDROOT
BRANCH  10  12
HETATM   12  O20         0      42.094   3.023 -14.677  1.00  0.00    -0.359 OA
HETATM   13  H20         0      42.329   2.512 -15.442  1.00  0.00     0.218 HD
ENDBRANCH  10  12
BRANCH   4  14
HETATM   14  C5          0      47.716   4.968 -16.809  1.00  0.00     0.025 C 
HETATM   15  C6          0      48.327   4.047 -17.647  1.00  0.00     0.004 C 
HETATM   16  C7          0      49.283   4.522 -18.539  1.00  0.00     0.026 C 
HETATM   17  C8          0      49.717   5.843 -18.509  1.00  0.00     0.112 C 
HETATM   18  C10         0      49.541   6.483 -17.290  1.00  0.00     0.112 C 
HETATM   19  C12         0      48.522   6.042 -16.453  1.00  0.00     0.028 C 
BRANCH  17  20
HETATM   20  O9          0      50.087   6.494 -19.672  1.00  0.00    -0.357 OA
HETATM   21  H9          0      49.468   6.809 -20.321  1.00  0.00     0.218 HD
ENDBRANCH  17  20
BRANCH  18  22
HETATM   22  O11         0      50.125   7.733 -17.146  1.00  0.00    -0.357 OA
HETATM   23  H11         0      50.090   8.313 -17.899  1.00  0.00     0.218 HD
ENDBRANCH  18  22
ENDBRANCH   4  14
BRANCH   8  24
HETATM   24  O17         0      43.913   5.698 -11.285  1.00  0.00    -0.359 OA
HETATM   25  H17         0      44.724   6.058 -10.947  1.00  0.00     0.218 HD
ENDBRANCH   8  24
TORSDOF 5
ENDMDL
MODEL 9
REMARK VINA RESULT:      -3.5     12.688     13.917
REMARK  5 active torsions:
REMARK  status: ('A' for Active; 'I' for Inactive)
REMARK    1  A    between atoms: C4_4  and  C5_5 
REMARK    2  A    between atoms: C8_8  and  O9_9 
REMARK    3  A    between atoms: C10_11  and  O11_12 
REMARK    4  A    between atoms: C16_18  and  O17_19 
REMARK    5  A    between atoms: C19_22  and  O20_23 
ROOT
HETATM    1  O1          0      44.172   4.048 -12.094  1.00  0.00    -0.286 OA
HETATM    2  C2          0      44.010   4.863 -13.043  1.00  0.00     0.201 C 
HETATM    3  C3          0      44.691   4.763 -14.244  1.00  0.00     0.067 C 
HETATM    4  C4          0      44.570   5.732 -15.234  1.00  0.00     0.103 C 
HETATM    5  O13         0      43.767   6.760 -15.021  1.00  0.00    -0.307 OA
HETATM    6  C14         0      43.127   6.923 -13.884  1.00  0.00     0.107 C 
HETATM    7  C15         0      42.620   8.156 -13.501  1.00  0.00     0.049 C 
HETATM    8  C16         0      42.175   8.383 -12.204  1.00  0.00     0.093 C 
HETATM    9  C18         0      41.773   7.245 -11.515  1.00  0.00     0.048 C 
HETATM   10  C19         0      42.224   5.990 -11.900  1.00  0.00     0.096 C 
HETATM   11  C21         0      43.058   5.870 -12.978  1.00  0.00     0.084 C 
ENDROOT
BRANCH  10  12
HETATM   12  O20         0      42.186   4.943 -10.985  1.00  0.00    -0.359 OA
HETATM   13  H20         0      42.243   4.056 -11.320  1.00  0.00     0.218 HD
ENDBRANCH  10  12
BRANCH   4  14
HETATM   14  C5          0      45.699   5.897 -16.151  1.00  0.00     0.025 C 
HETATM   15  C6          0      45.539   6.065 -17.519  1.00  0.00     0.004 C 
HETATM   16  C7          0      46.394   6.953 -18.164  1.00  0.00     0.026 C 
HETATM   17  C8          0      47.458   7.554 -17.500  1.00  0.00     0.112 C 
HETATM   18  C10         0      47.904   6.866 -16.379  1.00  0.00     0.112 C 
HETATM   19  C12         0      47.005   6.050 -15.703  1.00  0.00     0.028 C 
BRANCH  17  20
HETATM   20  O9          0      47.869   8.833 -17.831  1.00  0.00    -0.357 OA
HETATM   21  H9          0      47.934   9.152 -18.724  1.00  0.00     0.218 HD
ENDBRANCH  17  20
BRANCH  18  22
HETATM   22  O11         0      49.078   7.317 -15.792  1.00  0.00    -0.357 OA
HETATM   23  H11         0      49.848   7.358 -16.346  1.00  0.00     0.218 HD
ENDBRANCH  18  22
ENDBRANCH   4  14
BRANCH   8  24
HETATM   24  O17         0      42.433   9.590 -11.545  1.00  0.00    -0.359 OA
HETATM   25  H17         0      41.731  10.137 -11.213  1.00  0.00     0.218 HD
ENDBRANCH   8  24
TORSDOF 5
ENDMDL
