MODEL 1
REMARK VINA RESULT:      -5.7      0.000      0.000
REMARK  5 active torsions:
REMARK  status: ('A' for Active; 'I' for Inactive)
REMARK    1  A    between atoms: C4_4  and  C5_5 
REMARK    2  A    between atoms: C8_8  and  O9_9 
REMARK    3  A    between atoms: C10_11  and  O11_12 
REMARK    4  A    between atoms: C16_18  and  O17_19 
REMARK    5  A    between atoms: C19_22  and  O20_23 
ROOT
HETATM    1  O1          0      19.230  54.464  -8.875  1.00  0.00    -0.286 OA
HETATM    2  C2          0      18.516  55.503  -8.833  1.00  0.00     0.201 C 
HETATM    3  C3          0      17.270  55.583  -9.431  1.00  0.00     0.067 C 
HETATM    4  C4          0      16.550  56.772  -9.459  1.00  0.00     0.103 C 
HETATM    5  O13         0      17.067  57.841  -8.879  1.00  0.00    -0.307 OA
HETATM    6  C14         0      18.262  57.829  -8.331  1.00  0.00     0.107 C 
HETATM    7  C15         0      18.966  59.000  -8.088  1.00  0.00     0.049 C 
HETATM    8  C16         0      20.314  58.975  -7.750  1.00  0.00     0.093 C 
HETATM    9  C18         0      20.750  57.792  -7.165  1.00  0.00     0.048 C 
HETATM   10  C19         0      20.043  56.611  -7.349  1.00  0.00     0.096 C 
HETATM   11  C21         0      18.899  56.615  -8.098  1.00  0.00     0.084 C 
ENDROOT
BRANCH  10  12
HETATM   12  O20         0      20.687  55.395  -7.147  1.00  0.00    -0.359 OA
HETATM   13  H20         0      20.172  54.666  -6.822  1.00  0.00     0.218 HD
ENDBRANCH  10  12
BRANCH   4  14
HETATM   14  C5          0      15.602  56.955 -10.560  1.00  0.00     0.025 C 
HETATM   15  C6          0      15.867  56.540 -11.857  1.00  0.00     0.004 C 
HETATM   16  C7          0      14.813  56.000 -12.588  1.00  0.00     0.026 C 
HETATM   17  C8          0      13.512  55.995 -12.098  1.00  0.00     0.112 C 
HETATM   18  C10         0      13.252  56.961 -11.134  1.00  0.00     0.112 C 
HETATM   19  C12         0      14.309  57.422 -10.359  1.00  0.00     0.028 C 
BRANCH  17  20
HETATM   20  O9          0      12.641  54.967 -12.409  1.00  0.00    -0.357 OA
HETATM   21  H9          0      11.836  55.087 -12.900  1.00  0.00     0.218 HD
ENDBRANCH  17  20
BRANCH  18  22
HETATM   22  O11         0      11.929  57.125 -10.750  1.00  0.00    -0.357 OA
HETATM   23  H11         0      11.436  57.811 -11.186  1.00  0.00     0.218 HD
ENDBRANCH  18  22
ENDBRANCH   4  14
BRANCH   8  24
HETATM   24  O17         0      21.212  59.917  -8.264  1.00  0.00    -0.359 OA
HETATM   25  H17         0      21.862  60.339  -7.714  1.00  0.00     0.218 HD
ENDBRANCH   8  24
TORSDOF 5
ENDMDL
MODEL 2
REMARK VINA RESULT:      -5.3      4.032      6.346
REMARK  5 active torsions:
REMARK  status: ('A' for Active; 'I' for Inactive)
REMARK    1  A    between atoms: C4_4  and  C5_5 
REMARK    2  A    between atoms: C8_8  and  O9_9 
REMARK    3  A    between atoms: C10_11  and  O11_12 
REMARK    4  A    between atoms: C16_18  and  O17_19 
REMARK    5  A    between atoms: C19_22  and  O20_23 
ROOT
HETATM    1  O1          0      21.341  53.600  -5.189  1.00  0.00    -0.286 OA
HETATM    2  C2          0      21.125  54.771  -4.773  1.00  0.00     0.201 C 
HETATM    3  C3          0      20.292  55.660  -5.431  1.00  0.00     0.067 C 
HETATM    4  C4          0      20.151  56.977  -5.007  1.00  0.00     0.103 C 
HETATM    5  O13         0      20.818  57.374  -3.938  1.00  0.00    -0.307 OA
HETATM    6  C14         0      21.651  56.582  -3.299  1.00  0.00     0.107 C 
HETATM    7  C15         0      22.631  57.082  -2.454  1.00  0.00     0.049 C 
HETATM    8  C16         0      23.660  56.274  -1.986  1.00  0.00     0.093 C 
HETATM    9  C18         0      23.372  54.915  -1.955  1.00  0.00     0.048 C 
HETATM   10  C19         0      22.366  54.389  -2.753  1.00  0.00     0.096 C 
HETATM   11  C21         0      21.640  55.217  -3.565  1.00  0.00     0.084 C 
ENDROOT
BRANCH  10  12
HETATM   12  O20         0      22.371  53.029  -3.047  1.00  0.00    -0.359 OA
HETATM   13  H20         0      22.922  52.729  -3.760  1.00  0.00     0.218 HD
ENDBRANCH  10  12
BRANCH   4  14
HETATM   14  C5          0      19.784  57.970  -6.018  1.00  0.00     0.025 C 
HETATM   15  C6          0      20.720  58.747  -6.685  1.00  0.00     0.004 C 
HETATM   16  C7          0      20.500  59.007  -8.033  1.00  0.00     0.026 C 
HETATM   17  C8          0      19.322  58.624  -8.667  1.00  0.00     0.112 C 
HETATM   18  C10         0      18.238  58.446  -7.818  1.00  0.00     0.112 C 
HETATM   19  C12         0      18.486  58.103  -6.494  1.00  0.00     0.028 C 
BRANCH  17  20
HETATM   20  O9          0      19.323  58.254 -10.000  1.00  0.00    -0.357 OA
HETATM   21  H9          0      19.542  58.844 -10.712  1.00  0.00     0.218 HD
ENDBRANCH  17  20
BRANCH  18  22
HETATM   22  O11         0      17.000  58.250  -8.413  1.00  0.00    -0.357 OA
HETATM   23  H11         0      16.491  59.027  -8.613  1.00  0.00     0.218 HD
ENDBRANCH  18  22
ENDBRANCH   4  14
BRANCH   8  24
HETATM   24  O17         0      24.972  56.750  -1.883  1.00  0.00    -0.359 OA
HETATM   25  H17         0      25.184  57.520  -1.369  1.00  0.00     0.218 HD
ENDBRANCH   8  24
TORSDOF 5
ENDMDL
MODEL 3
REMARK VINA RESULT:      -5.2      9.535     11.376
REMARK  5 active torsions:
REMARK  status: ('A' for Active; 'I' for Inactive)
REMARK    1  A    between atoms: C4_4  and  C5_5 
REMARK    2  A    between atoms: C8_8  and  O9_9 
REMARK    3  A    between atoms: C10_11  and  O11_12 
REMARK    4  A    between atoms: C16_18  and  O17_19 
REMARK    5  A    between atoms: C19_22  and  O20_23 
ROOT
HETATM    1  O1          0      28.079  52.250 -11.611  1.00  0.00    -0.286 OA
HETATM    2  C2          0      27.259  51.351 -11.945  1.00  0.00     0.201 C 
HETATM    3  C3          0      26.480  51.434 -13.087  1.00  0.00     0.067 C 
HETATM    4  C4          0      25.511  50.480 -13.378  1.00  0.00     0.103 C 
HETATM    5  O13         0      25.351  49.464 -12.549  1.00  0.00    -0.307 OA
HETATM    6  C14         0      26.038  49.358 -11.432  1.00  0.00     0.107 C 
HETATM    7  C15         0      25.614  48.549 -10.388  1.00  0.00     0.049 C 
HETATM    8  C16         0      26.195  48.634  -9.128  1.00  0.00     0.093 C 
HETATM    9  C18         0      27.493  49.131  -9.112  1.00  0.00     0.048 C 
HETATM   10  C19         0      27.964  49.905 -10.163  1.00  0.00     0.096 C 
HETATM   11  C21         0      27.151  50.167 -11.232  1.00  0.00     0.084 C 
ENDROOT
BRANCH  10  12
HETATM   12  O20         0      29.058  50.739  -9.956  1.00  0.00    -0.359 OA
HETATM   13  H20         0      28.958  51.663 -10.154  1.00  0.00     0.218 HD
ENDBRANCH  10  12
BRANCH   4  14
HETATM   14  C5          0      24.375  50.908 -14.196  1.00  0.00     0.025 C 
HETATM   15  C6          0      23.216  51.442 -13.652  1.00  0.00     0.004 C 
HETATM   16  C7          0      22.603  52.486 -14.337  1.00  0.00     0.026 C 
HETATM   17  C8          0      23.049  52.898 -15.589  1.00  0.00     0.112 C 
HETATM   18  C10         0      23.757  51.936 -16.297  1.00  0.00     0.112 C 
HETATM   19  C12         0      24.430  50.952 -15.583  1.00  0.00     0.028 C 
BRANCH  17  20
HETATM   20  O9          0      22.962  54.225 -15.971  1.00  0.00    -0.357 OA
HETATM   21  H9          0      22.781  54.937 -15.368  1.00  0.00     0.218 HD
ENDBRANCH  17  20
BRANCH  18  22
HETATM   22  O11         0      24.060  52.226 -17.620  1.00  0.00    -0.357 OA
HETATM   23  H11         0      24.387  53.099 -17.804  1.00  0.00     0.218 HD
ENDBRANCH  18  22
ENDBRANCH   4  14
BRANCH   8  24
HETATM   24  O17         0      25.425  48.550  -7.963  1.00  0.00    -0.359 OA
HETATM   25  H17         0      24.608  49.027  -7.869  1.00  0.00     0.218 HD
ENDBRANCH   8  24
TORSDOF 5
ENDMDL
MODEL 4
REMARK VINA RESULT:      -5.1      4.351      7.045
REMARK  5 active torsions:
REMARK  status: ('A' for Active; 'I' for Inactive)
REMARK    1  A    between atoms: C4_4  and  C5_5 
REMARK    2  A    between atoms: C8_8  and  O9_9 
REMARK    3  A    between atoms: C10_11  and  O11_12 
REMARK    4  A    between atoms: C16_18  and  O17_19 
REMARK    5  A    between atoms: C19_22  and  O20_23 
ROOT
HETATM    1  O1          0      18.793  59.228  -1.496  1.00  0.00    -0.286 OA
HETATM    2  C2          0      19.622  59.018  -2.424  1.00  0.00     0.201 C 
HETATM    3  C3          0      19.588  59.700  -3.628  1.00  0.00     0.067 C 
HETATM    4  C4          0      20.448  59.378  -4.672  1.00  0.00     0.103 C 
HETATM    5  O13         0      21.329  58.410  -4.493  1.00  0.00    -0.307 OA
HETATM    6  C14         0      21.378  57.706  -3.383  1.00  0.00     0.107 C 
HETATM    7  C15         0      21.998  56.466  -3.331  1.00  0.00     0.049 C 
HETATM    8  C16         0      21.829  55.620  -2.241  1.00  0.00     0.093 C 
HETATM    9  C18         0      21.491  56.255  -1.052  1.00  0.00     0.048 C 
HETATM   10  C19         0      20.913  57.517  -1.066  1.00  0.00     0.096 C 
HETATM   11  C21         0      20.689  58.148  -2.259  1.00  0.00     0.084 C 
ENDROOT
BRANCH  10  12
HETATM   12  O20         0      20.195  57.948   0.045  1.00  0.00    -0.359 OA
HETATM   13  H20         0      19.866  58.839   0.044  1.00  0.00     0.218 HD
ENDBRANCH  10  12
BRANCH   4  14
HETATM   14  C5          0      19.991  59.673  -6.031  1.00  0.00     0.025 C 
HETATM   15  C6          0      20.852  60.070  -7.044  1.00  0.00     0.004 C 
HETATM   16  C7          0      20.612  59.578  -8.323  1.00  0.00     0.026 C 
HETATM   17  C8          0      19.478  58.827  -8.615  1.00  0.00     0.112 C 
HETATM   18  C10         0      18.413  59.023  -7.746  1.00  0.00     0.112 C 
HETATM   19  C12         0      18.688  59.433  -6.447  1.00  0.00     0.028 C 
BRANCH  17  20
HETATM   20  O9          0      19.518  57.823  -9.567  1.00  0.00    -0.357 OA
HETATM   21  H9          0      18.950  57.062  -9.556  1.00  0.00     0.218 HD
ENDBRANCH  17  20
BRANCH  18  22
HETATM   22  O11         0      17.201  58.446  -8.097  1.00  0.00    -0.357 OA
HETATM   23  H11         0      17.234  57.699  -8.683  1.00  0.00     0.218 HD
ENDBRANCH  18  22
ENDBRANCH   4  14
BRANCH   8  24
HETATM   24  O17         0      21.677  54.239  -2.407  1.00  0.00    -0.359 OA
HETATM   25  H17         0      22.208  53.748  -3.023  1.00  0.00     0.218 HD
ENDBRANCH   8  24
TORSDOF 5
ENDMDL
MODEL 5
REMARK VINA RESULT:      -5.1      1.844      6.897
REMARK  5 active torsions:
REMARK  status: ('A' for Active; 'I' for Inactive)
REMARK    1  A    between atoms: C4_4  and  C5_5 
REMARK    2  A    between atoms: C8_8  and  O9_9 
REMARK    3  A    between atoms: C10_11  and  O11_12 
REMARK    4  A    between atoms: C16_18  and  O17_19 
REMARK    5  A    between atoms: C19_22  and  O20_23 
ROOT
HETATM    1  O1          0      16.291  56.672 -13.364  1.00  0.00    -0.286 OA
HETATM    2  C2          0      15.906  56.672 -12.163  1.00  0.00     0.201 C 
HETATM    3  C3          0      16.541  57.401 -11.172  1.00  0.00     0.067 C 
HETATM    4  C4          0      16.160  57.303  -9.838  1.00  0.00     0.103 C 
HETATM    5  O13         0      15.153  56.508  -9.522  1.00  0.00    -0.307 OA
HETATM    6  C14         0      14.541  55.766 -10.419  1.00  0.00     0.107 C 
HETATM    7  C15         0      13.781  54.663 -10.059  1.00  0.00     0.049 C 
HETATM    8  C16         0      13.351  53.742 -11.007  1.00  0.00     0.093 C 
HETATM    9  C18         0      13.250  54.236 -12.301  1.00  0.00     0.048 C 
HETATM   10  C19         0      13.960  55.367 -12.682  1.00  0.00     0.096 C 
HETATM   11  C21         0      14.753  56.009 -11.771  1.00  0.00     0.084 C 
ENDROOT
BRANCH  10  12
HETATM   12  O20         0      14.201  55.595 -14.034  1.00  0.00    -0.359 OA
HETATM   13  H20         0      15.099  55.733 -14.308  1.00  0.00     0.218 HD
ENDBRANCH  10  12
BRANCH   4  14
HETATM   14  C5          0      17.182  57.582  -8.827  1.00  0.00     0.025 C 
HETATM   15  C6          0      17.204  56.958  -7.588  1.00  0.00     0.004 C 
HETATM   16  C7          0      18.444  56.613  -7.062  1.00  0.00     0.026 C 
HETATM   17  C8          0      19.630  56.992  -7.680  1.00  0.00     0.112 C 
HETATM   18  C10         0      19.523  58.102  -8.508  1.00  0.00     0.112 C 
HETATM   19  C12         0      18.291  58.376  -9.089  1.00  0.00     0.028 C 
BRANCH  17  20
HETATM   20  O9          0      20.751  56.183  -7.622  1.00  0.00    -0.357 OA
HETATM   21  H9          0      21.506  56.285  -8.190  1.00  0.00     0.218 HD
ENDBRANCH  17  20
BRANCH  18  22
HETATM   22  O11         0      20.706  58.636  -8.999  1.00  0.00    -0.357 OA
HETATM   23  H11         0      20.734  58.839  -9.927  1.00  0.00     0.218 HD
ENDBRANCH  18  22
ENDBRANCH   4  14
BRANCH   8  24
HETATM   24  O17         0      13.353  52.368 -10.742  1.00  0.00    -0.359 OA
HETATM   25  H17         0      14.053  51.955 -10.250  1.00  0.00     0.218 HD
ENDBRANCH   8  24
TORSDOF 5
ENDMDL
MODEL 6
REMARK VINA RESULT:      -5.0      6.028      9.053
REMARK  5 active torsions:
REMARK  status: ('A' for Active; 'I' for Inactive)
REMARK    1  A    between atoms: C4_4  and  C5_5 
REMARK    2  A    between atoms: C8_8  and  O9_9 
REMARK    3  A    between atoms: C10_11  and  O11_12 
REMARK    4  A    between atoms: C16_18  and  O17_19 
REMARK    5  A    between atoms: C19_22  and  O20_23 
ROOT
HETATM    1  O1          0      23.133  52.179  -2.499  1.00  0.00    -0.286 OA
HETATM    2  C2          0      23.086  53.427  -2.316  1.00  0.00     0.201 C 
HETATM    3  C3          0      22.017  54.205  -2.725  1.00  0.00     0.067 C 
HETATM    4  C4          0      22.035  55.590  -2.604  1.00  0.00     0.103 C 
HETATM    5  O13         0      23.096  56.166  -2.066  1.00  0.00    -0.307 OA
HETATM    6  C14         0      24.154  55.477  -1.697  1.00  0.00     0.107 C 
HETATM    7  C15         0      25.391  56.078  -1.516  1.00  0.00     0.049 C 
HETATM    8  C16         0      26.548  55.321  -1.377  1.00  0.00     0.093 C 
HETATM    9  C18         0      26.351  54.029  -0.905  1.00  0.00     0.048 C 
HETATM   10  C19         0      25.112  53.414  -1.028  1.00  0.00     0.096 C 
HETATM   11  C21         0      24.072  54.092  -1.603  1.00  0.00     0.084 C 
ENDROOT
BRANCH  10  12
HETATM   12  O20         0      25.032  52.027  -0.966  1.00  0.00    -0.359 OA
HETATM   13  H20         0      25.827  51.528  -1.115  1.00  0.00     0.218 HD
ENDBRANCH  10  12
BRANCH   4  14
HETATM   14  C5          0      21.220  56.356  -3.549  1.00  0.00     0.025 C 
HETATM   15  C6          0      21.547  57.642  -3.953  1.00  0.00     0.004 C 
HETATM   16  C7          0      21.314  57.979  -5.282  1.00  0.00     0.026 C 
HETATM   17  C8          0      20.656  57.113  -6.150  1.00  0.00     0.112 C 
HETATM   18  C10         0      19.838  56.179  -5.527  1.00  0.00     0.112 C 
HETATM   19  C12         0      20.144  55.797  -4.226  1.00  0.00     0.028 C 
BRANCH  17  20
HETATM   20  O9          0      20.979  57.076  -7.494  1.00  0.00    -0.357 OA
HETATM   21  H9          0      20.658  56.415  -8.096  1.00  0.00     0.218 HD
ENDBRANCH  17  20
BRANCH  18  22
HETATM   22  O11         0      19.017  55.419  -6.346  1.00  0.00    -0.357 OA
HETATM   23  H11         0      18.500  55.887  -6.992  1.00  0.00     0.218 HD
ENDBRANCH  18  22
ENDBRANCH   4  14
BRANCH   8  24
HETATM   24  O17         0      27.750  55.709  -1.980  1.00  0.00    -0.359 OA
HETATM   25  H17         0      28.565  55.253  -1.806  1.00  0.00     0.218 HD
ENDBRANCH   8  24
TORSDOF 5
ENDMDL
MODEL 7
REMARK VINA RESULT:      -4.9     10.389     12.077
REMARK  5 active torsions:
REMARK  status: ('A' for Active; 'I' for Inactive)
REMARK    1  A    between atoms: C4_4  and  C5_5 
REMARK    2  A    between atoms: C8_8  and  O9_9 
REMARK    3  A    between atoms: C10_11  and  O11_12 
REMARK    4  A    between atoms: C16_18  and  O17_19 
REMARK    5  A    between atoms: C19_22  and  O20_23 
ROOT
HETATM    1  O1          0      26.630  46.310 -11.789  1.00  0.00    -0.286 OA
HETATM    2  C2          0      26.430  47.553 -11.710  1.00  0.00     0.201 C 
HETATM    3  C3          0      25.702  48.257 -12.653  1.00  0.00     0.067 C 
HETATM    4  C4          0      25.583  49.641 -12.597  1.00  0.00     0.103 C 
HETATM    5  O13         0      26.167  50.289 -11.604  1.00  0.00    -0.307 OA
HETATM    6  C14         0      26.901  49.672 -10.703  1.00  0.00     0.107 C 
HETATM    7  C15         0      27.821  50.354  -9.920  1.00  0.00     0.049 C 
HETATM    8  C16         0      28.765  49.674  -9.160  1.00  0.00     0.093 C 
HETATM    9  C18         0      28.414  48.375  -8.811  1.00  0.00     0.048 C 
HETATM   10  C19         0      27.462  47.681  -9.546  1.00  0.00     0.096 C 
HETATM   11  C21         0      26.853  48.286 -10.611  1.00  0.00     0.084 C 
ENDROOT
BRANCH  10  12
HETATM   12  O20         0      27.432  46.291  -9.480  1.00  0.00    -0.359 OA
HETATM   13  H20         0      26.871  45.828 -10.090  1.00  0.00     0.218 HD
ENDBRANCH  10  12
BRANCH   4  14
HETATM   14  C5          0      25.356  50.346 -13.860  1.00  0.00     0.025 C 
HETATM   15  C6          0      25.305  49.696 -15.085  1.00  0.00     0.004 C 
HETATM   16  C7          0      24.373  50.146 -16.015  1.00  0.00     0.026 C 
HETATM   17  C8          0      23.610  51.287 -15.790  1.00  0.00     0.112 C 
HETATM   18  C10         0      24.161  52.184 -14.885  1.00  0.00     0.112 C 
HETATM   19  C12         0      25.024  51.694 -13.911  1.00  0.00     0.028 C 
BRANCH  17  20
HETATM   20  O9          0      22.319  51.384 -16.278  1.00  0.00    -0.357 OA
HETATM   21  H9          0      21.617  50.790 -16.037  1.00  0.00     0.218 HD
ENDBRANCH  17  20
BRANCH  18  22
HETATM   22  O11         0      23.540  53.418 -14.766  1.00  0.00    -0.357 OA
HETATM   23  H11         0      23.616  53.860 -13.927  1.00  0.00     0.218 HD
ENDBRANCH  18  22
ENDBRANCH   4  14
BRANCH   8  24
HETATM   24  O17         0      30.083  50.134  -9.052  1.00  0.00    -0.359 OA
HETATM   25  H17         0      30.299  51.054  -9.145  1.00  0.00     0.218 HD
ENDBRANCH   8  24
TORSDOF 5
ENDMDL
MODEL 8
REMARK VINA RESULT:      -4.9      1.764      2.485
REMARK  5 active torsions:
REMARK  status: ('A' for Active; 'I' for Inactive)
REMARK    1  A    between atoms: C4_4  and  C5_5 
REMARK    2  A    between atoms: C8_8  and  O9_9 
REMARK    3  A    between atoms: C10_11  and  O11_12 
REMARK    4  A    between atoms: C16_18  and  O17_19 
REMARK    5  A    between atoms: C19_22  and  O20_23 
ROOT
HETATM    1  O1          0      15.144  55.702  -6.927  1.00  0.00    -0.286 OA
HETATM    2  C2          0      15.596  56.405  -7.871  1.00  0.00     0.201 C 
HETATM    3  C3          0      14.959  56.517  -9.095  1.00  0.00     0.067 C 
HETATM    4  C4          0      15.530  57.214 -10.154  1.00  0.00     0.103 C 
HETATM    5  O13         0      16.701  57.799  -9.970  1.00  0.00    -0.307 OA
HETATM    6  C14         0      17.366  57.693  -8.840  1.00  0.00     0.107 C 
HETATM    7  C15         0      18.728  57.946  -8.767  1.00  0.00     0.049 C 
HETATM    8  C16         0      19.469  57.590  -7.646  1.00  0.00     0.093 C 
HETATM    9  C18         0      18.738  57.486  -6.469  1.00  0.00     0.048 C 
HETATM   10  C19         0      17.366  57.280  -6.505  1.00  0.00     0.096 C 
HETATM   11  C21         0      16.724  57.195  -7.711  1.00  0.00     0.084 C 
ENDROOT
BRANCH  10  12
HETATM   12  O20         0      16.727  56.752  -5.388  1.00  0.00    -0.359 OA
HETATM   13  H20         0      15.815  56.975  -5.250  1.00  0.00     0.218 HD
ENDBRANCH  10  12
BRANCH   4  14
HETATM   14  C5          0      15.151  56.807 -11.507  1.00  0.00     0.025 C 
HETATM   15  C6          0      16.075  56.632 -12.527  1.00  0.00     0.004 C 
HETATM   16  C7          0      15.870  55.577 -13.410  1.00  0.00     0.026 C 
HETATM   17  C8          0      14.715  54.803 -13.365  1.00  0.00     0.112 C 
HETATM   18  C10         0      13.623  55.424 -12.776  1.00  0.00     0.112 C 
HETATM   19  C12         0      13.858  56.418 -11.833  1.00  0.00     0.028 C 
BRANCH  17  20
HETATM   20  O9          0      14.750  53.459 -13.693  1.00  0.00    -0.357 OA
HETATM   21  H9          0      14.391  53.103 -14.498  1.00  0.00     0.218 HD
ENDBRANCH  17  20
BRANCH  18  22
HETATM   22  O11         0      12.401  54.774 -12.873  1.00  0.00    -0.357 OA
HETATM   23  H11         0      12.217  54.105 -12.223  1.00  0.00     0.218 HD
ENDBRANCH  18  22
ENDBRANCH   4  14
BRANCH   8  24
HETATM   24  O17         0      20.757  57.056  -7.763  1.00  0.00    -0.359 OA
HETATM   25  H17         0      21.514  57.608  -7.915  1.00  0.00     0.218 HD
ENDBRANCH   8  24
TORSDOF 5
ENDMDL
MODEL 9
REMARK VINA RESULT:      -4.8      4.768      7.575
REMARK  5 active torsions:
REMARK  status: ('A' for Active; 'I' for Inactive)
REMARK    1  A    between atoms: C4_4  and  C5_5 
REMARK    2  A    between atoms: C8_8  and  O9_9 
REMARK    3  A    between atoms: C10_11  and  O11_12 
REMARK    4  A    between atoms: C16_18  and  O17_19 
REMARK    5  A    between atoms: C19_22  and  O20_23 
ROOT
HETATM    1  O1          0      11.878  52.615 -12.640  1.00  0.00    -0.286 OA
HETATM    2  C2          0      12.338  53.631 -13.228  1.00  0.00     0.201 C 
HETATM    3  C3          0      11.806  54.120 -14.409  1.00  0.00     0.067 C 
HETATM    4  C4          0      12.394  55.179 -15.090  1.00  0.00     0.103 C 
HETATM    5  O13         0      13.477  55.739 -14.580  1.00  0.00    -0.307 OA
HETATM    6  C14         0      14.045  55.290 -13.482  1.00  0.00     0.107 C 
HETATM    7  C15         0      15.361  55.591 -13.164  1.00  0.00     0.049 C 
HETATM    8  C16         0      16.031  54.917 -12.150  1.00  0.00     0.093 C 
HETATM    9  C18         0      15.213  54.361 -11.175  1.00  0.00     0.048 C 
HETATM   10  C19         0      13.878  54.090 -11.444  1.00  0.00     0.096 C 
HETATM   11  C21         0      13.360  54.388 -12.675  1.00  0.00     0.084 C 
ENDROOT
BRANCH  10  12
HETATM   12  O20         0      13.200  53.164 -10.658  1.00  0.00    -0.359 OA
HETATM   13  H20         0      12.911  53.439  -9.796  1.00  0.00     0.218 HD
ENDBRANCH  10  12
BRANCH   4  14
HETATM   14  C5          0      12.182  55.245 -16.537  1.00  0.00     0.025 C 
HETATM   15  C6          0      10.924  55.180 -17.117  1.00  0.00     0.004 C 
HETATM   16  C7          0      10.680  55.990 -18.221  1.00  0.00     0.026 C 
HETATM   17  C8          0      11.690  56.739 -18.814  1.00  0.00     0.112 C 
HETATM   18  C10         0      12.975  56.264 -18.584  1.00  0.00     0.112 C 
HETATM   19  C12         0      13.210  55.529 -17.428  1.00  0.00     0.028 C 
BRANCH  17  20
HETATM   20  O9          0      11.417  57.964 -19.395  1.00  0.00    -0.357 OA
HETATM   21  H9          0      12.028  58.432 -19.953  1.00  0.00     0.218 HD
ENDBRANCH  17  20
BRANCH  18  22
HETATM   22  O11         0      14.003  56.858 -19.302  1.00  0.00    -0.357 OA
HETATM   23  H11         0      14.886  56.565 -19.111  1.00  0.00     0.218 HD
ENDBRANCH  18  22
ENDBRANCH   4  14
BRANCH   8  24
HETATM   24  O17         0      17.373  54.543 -12.286  1.00  0.00    -0.359 OA
HETATM   25  H17         0      18.075  55.056 -11.903  1.00  0.00     0.218 HD
ENDBRANCH   8  24
TORSDOF 5
ENDMDL
