MODEL 1
REMARK VINA RESULT:      -6.8      0.000      0.000
REMARK  5 active torsions:
REMARK  status: ('A' for Active; 'I' for Inactive)
REMARK    1  A    between atoms: C4_4  and  C5_5 
REMARK    2  A    between atoms: C8_8  and  O9_9 
REMARK    3  A    between atoms: C10_11  and  O11_12 
REMARK    4  A    between atoms: C16_18  and  O17_19 
REMARK    5  A    between atoms: C19_22  and  O20_23 
ROOT
HETATM    1  O1          0      42.690  10.339  17.302  1.00  0.00    -0.286 OA
HETATM    2  C2          0      41.970  11.028  18.075  1.00  0.00     0.201 C 
HETATM    3  C3          0      40.654  11.349  17.787  1.00  0.00     0.067 C 
HETATM    4  C4          0      39.915  12.194  18.606  1.00  0.00     0.103 C 
HETATM    5  O13         0      40.484  12.682  19.694  1.00  0.00    -0.307 OA
HETATM    6  C14         0      41.741  12.439  19.994  1.00  0.00     0.107 C 
HETATM    7  C15         0      42.449  13.240  20.878  1.00  0.00     0.049 C 
HETATM    8  C16         0      43.830  13.138  20.997  1.00  0.00     0.093 C 
HETATM    9  C18         0      44.362  11.909  20.627  1.00  0.00     0.048 C 
HETATM   10  C19         0      43.659  11.062  19.780  1.00  0.00     0.096 C 
HETATM   11  C21         0      42.425  11.433  19.320  1.00  0.00     0.084 C 
ENDROOT
BRANCH  10  12
HETATM   12  O20         0      44.347  10.075  19.081  1.00  0.00    -0.359 OA
HETATM   13  H20         0      43.840   9.381  18.677  1.00  0.00     0.218 HD
ENDBRANCH  10  12
BRANCH   4  14
HETATM   14  C5          0      38.826  12.949  17.981  1.00  0.00     0.025 C 
HETATM   15  C6          0      38.967  13.607  16.768  1.00  0.00     0.004 C 
HETATM   16  C7          0      37.887  13.581  15.892  1.00  0.00     0.026 C 
HETATM   17  C8          0      36.661  13.037  16.260  1.00  0.00     0.112 C 
HETATM   18  C10         0      36.433  12.997  17.629  1.00  0.00     0.112 C 
HETATM   19  C12         0      37.530  12.937  18.480  1.00  0.00     0.028 C 
BRANCH  17  20
HETATM   20  O9          0      35.858  12.404  15.329  1.00  0.00    -0.357 OA
HETATM   21  H9          0      36.192  11.853  14.630  1.00  0.00     0.218 HD
ENDBRANCH  17  20
BRANCH  18  22
HETATM   22  O11         0      35.157  12.641  18.043  1.00  0.00    -0.357 OA
HETATM   23  H11         0      35.079  11.848  18.562  1.00  0.00     0.218 HD
ENDBRANCH  18  22
ENDBRANCH   4  14
BRANCH   8  24
HETATM   24  O17         0      44.635  14.273  21.146  1.00  0.00    -0.359 OA
HETATM   25  H17         0      44.570  15.012  20.552  1.00  0.00     0.218 HD
ENDBRANCH   8  24
TORSDOF 5
ENDMDL
MODEL 2
REMARK VINA RESULT:      -6.6      1.643      6.753
REMARK  5 active torsions:
REMARK  status: ('A' for Active; 'I' for Inactive)
REMARK    1  A    between atoms: C4_4  and  C5_5 
REMARK    2  A    between atoms: C8_8  and  O9_9 
REMARK    3  A    between atoms: C10_11  and  O11_12 
REMARK    4  A    between atoms: C16_18  and  O17_19 
REMARK    5  A    between atoms: C19_22  and  O20_23 
ROOT
HETATM    1  O1          0      37.056  12.863  20.572  1.00  0.00    -0.286 OA
HETATM    2  C2          0      37.940  12.331  19.846  1.00  0.00     0.201 C 
HETATM    3  C3          0      39.068  11.717  20.364  1.00  0.00     0.067 C 
HETATM    4  C4          0      40.076  11.230  19.540  1.00  0.00     0.103 C 
HETATM    5  O13         0      39.936  11.343  18.231  1.00  0.00    -0.307 OA
HETATM    6  C14         0      38.903  11.951  17.688  1.00  0.00     0.107 C 
HETATM    7  C15         0      38.935  12.422  16.384  1.00  0.00     0.049 C 
HETATM    8  C16         0      37.953  13.279  15.902  1.00  0.00     0.093 C 
HETATM    9  C18         0      36.731  13.200  16.560  1.00  0.00     0.048 C 
HETATM   10  C19         0      36.656  12.689  17.849  1.00  0.00     0.096 C 
HETATM   11  C21         0      37.791  12.244  18.470  1.00  0.00     0.084 C 
ENDROOT
BRANCH  10  12
HETATM   12  O20         0      35.560  13.008  18.644  1.00  0.00    -0.359 OA
HETATM   13  H20         0      35.681  13.649  19.334  1.00  0.00     0.218 HD
ENDBRANCH  10  12
BRANCH   4  14
HETATM   14  C5          0      41.427  11.166  20.101  1.00  0.00     0.025 C 
HETATM   15  C6          0      42.555  10.953  19.322  1.00  0.00     0.004 C 
HETATM   16  C7          0      43.711  11.651  19.657  1.00  0.00     0.026 C 
HETATM   17  C8          0      43.784  12.431  20.806  1.00  0.00     0.112 C 
HETATM   18  C10         0      42.882  12.083  21.802  1.00  0.00     0.112 C 
HETATM   19  C12         0      41.695  11.462  21.431  1.00  0.00     0.028 C 
BRANCH  17  20
HETATM   20  O9          0      44.553  13.581  20.834  1.00  0.00    -0.357 OA
HETATM   21  H9          0      44.194  14.453  20.951  1.00  0.00     0.218 HD
ENDBRANCH  17  20
BRANCH  18  22
HETATM   22  O11         0      43.037  12.701  23.035  1.00  0.00    -0.357 OA
HETATM   23  H11         0      42.449  12.428  23.730  1.00  0.00     0.218 HD
ENDBRANCH  18  22
ENDBRANCH   4  14
BRANCH   8  24
HETATM   24  O17         0      38.269  14.354  15.063  1.00  0.00    -0.359 OA
HETATM   25  H17         0      38.564  14.220  14.171  1.00  0.00     0.218 HD
ENDBRANCH   8  24
TORSDOF 5
ENDMDL
MODEL 3
REMARK VINA RESULT:      -6.4      1.613      6.513
REMARK  5 active torsions:
REMARK  status: ('A' for Active; 'I' for Inactive)
REMARK    1  A    between atoms: C4_4  and  C5_5 
REMARK    2  A    between atoms: C8_8  and  O9_9 
REMARK    3  A    between atoms: C10_11  and  O11_12 
REMARK    4  A    between atoms: C16_18  and  O17_19 
REMARK    5  A    between atoms: C19_22  and  O20_23 
ROOT
HETATM    1  O1          0      39.456   9.079  16.601  1.00  0.00    -0.286 OA
HETATM    2  C2          0      39.824  10.241  16.927  1.00  0.00     0.201 C 
HETATM    3  C3          0      40.912  10.480  17.750  1.00  0.00     0.067 C 
HETATM    4  C4          0      41.234  11.764  18.176  1.00  0.00     0.103 C 
HETATM    5  O13         0      40.491  12.775  17.763  1.00  0.00    -0.307 OA
HETATM    6  C14         0      39.426  12.599  17.011  1.00  0.00     0.107 C 
HETATM    7  C15         0      38.436  13.566  16.908  1.00  0.00     0.049 C 
HETATM    8  C16         0      37.206  13.280  16.327  1.00  0.00     0.093 C 
HETATM    9  C18         0      37.216  12.226  15.422  1.00  0.00     0.048 C 
HETATM   10  C19         0      38.218  11.266  15.467  1.00  0.00     0.096 C 
HETATM   11  C21         0      39.214  11.368  16.399  1.00  0.00     0.084 C 
ENDROOT
BRANCH  10  12
HETATM   12  O20         0      37.996  10.023  14.883  1.00  0.00    -0.359 OA
HETATM   13  H20         0      38.753   9.508  14.630  1.00  0.00     0.218 HD
ENDBRANCH  10  12
BRANCH   4  14
HETATM   14  C5          0      41.949  11.888  19.447  1.00  0.00     0.025 C 
HETATM   15  C6          0      42.952  11.011  19.835  1.00  0.00     0.004 C 
HETATM   16  C7          0      44.049  11.542  20.506  1.00  0.00     0.026 C 
HETATM   17  C8          0      44.088  12.875  20.899  1.00  0.00     0.112 C 
HETATM   18  C10         0      42.843  13.475  21.039  1.00  0.00     0.112 C 
HETATM   19  C12         0      41.783  12.978  20.292  1.00  0.00     0.028 C 
BRANCH  17  20
HETATM   20  O9          0      45.284  13.570  20.929  1.00  0.00    -0.357 OA
HETATM   21  H9          0      45.956  13.493  20.262  1.00  0.00     0.218 HD
ENDBRANCH  17  20
BRANCH  18  22
HETATM   22  O11         0      42.816  14.740  21.609  1.00  0.00    -0.357 OA
HETATM   23  H11         0      42.010  15.235  21.519  1.00  0.00     0.218 HD
ENDBRANCH  18  22
ENDBRANCH   4  14
BRANCH   8  24
HETATM   24  O17         0      36.014  13.782  16.860  1.00  0.00    -0.359 OA
HETATM   25  H17         0      35.790  13.668  17.776  1.00  0.00     0.218 HD
ENDBRANCH   8  24
TORSDOF 5
ENDMDL
MODEL 4
REMARK VINA RESULT:      -5.6      3.685      8.252
REMARK  5 active torsions:
REMARK  status: ('A' for Active; 'I' for Inactive)
REMARK    1  A    between atoms: C4_4  and  C5_5 
REMARK    2  A    between atoms: C8_8  and  O9_9 
REMARK    3  A    between atoms: C10_11  and  O11_12 
REMARK    4  A    between atoms: C16_18  and  O17_19 
REMARK    5  A    between atoms: C19_22  and  O20_23 
ROOT
HETATM    1  O1          0      42.461   9.175  18.308  1.00  0.00    -0.286 OA
HETATM    2  C2          0      43.442   9.673  18.926  1.00  0.00     0.201 C 
HETATM    3  C3          0      44.569   8.941  19.260  1.00  0.00     0.067 C 
HETATM    4  C4          0      45.590   9.485  20.031  1.00  0.00     0.103 C 
HETATM    5  O13         0      45.482  10.740  20.432  1.00  0.00    -0.307 OA
HETATM    6  C14         0      44.417  11.467  20.175  1.00  0.00     0.107 C 
HETATM    7  C15         0      44.116  12.607  20.906  1.00  0.00     0.049 C 
HETATM    8  C16         0      42.875  13.223  20.804  1.00  0.00     0.093 C 
HETATM    9  C18         0      42.199  12.989  19.613  1.00  0.00     0.048 C 
HETATM   10  C19         0      42.507  11.882  18.833  1.00  0.00     0.096 C 
HETATM   11  C21         0      43.495  11.024  19.232  1.00  0.00     0.084 C 
ENDROOT
BRANCH  10  12
HETATM   12  O20         0      41.573  11.418  17.912  1.00  0.00    -0.359 OA
HETATM   13  H20         0      40.836  11.980  17.704  1.00  0.00     0.218 HD
ENDBRANCH  10  12
BRANCH   4  14
HETATM   14  C5          0      46.396   8.558  20.826  1.00  0.00     0.025 C 
HETATM   15  C6          0      47.778   8.482  20.721  1.00  0.00     0.004 C 
HETATM   16  C7          0      48.503   8.279  21.890  1.00  0.00     0.026 C 
HETATM   17  C8          0      47.873   8.025  23.104  1.00  0.00     0.112 C 
HETATM   18  C10         0      46.592   7.502  22.994  1.00  0.00     0.112 C 
HETATM   19  C12         0      45.856   7.792  21.851  1.00  0.00     0.028 C 
BRANCH  17  20
HETATM   20  O9          0      48.423   8.467  24.294  1.00  0.00    -0.357 OA
HETATM   21  H9          0      49.358   8.516  24.458  1.00  0.00     0.218 HD
ENDBRANCH  17  20
BRANCH  18  22
HETATM   22  O11         0      45.993   7.055  24.163  1.00  0.00    -0.357 OA
HETATM   23  H11         0      46.518   6.503  24.731  1.00  0.00     0.218 HD
ENDBRANCH  18  22
ENDBRANCH   4  14
BRANCH   8  24
HETATM   24  O17         0      42.225  13.743  21.929  1.00  0.00    -0.359 OA
HETATM   25  H17         0      41.530  14.387  21.851  1.00  0.00     0.218 HD
ENDBRANCH   8  24
TORSDOF 5
ENDMDL
MODEL 5
REMARK VINA RESULT:      -5.5      1.920      6.535
REMARK  5 active torsions:
REMARK  status: ('A' for Active; 'I' for Inactive)
REMARK    1  A    between atoms: C4_4  and  C5_5 
REMARK    2  A    between atoms: C8_8  and  O9_9 
REMARK    3  A    between atoms: C10_11  and  O11_12 
REMARK    4  A    between atoms: C16_18  and  O17_19 
REMARK    5  A    between atoms: C19_22  and  O20_23 
ROOT
HETATM    1  O1          0      39.382   9.122  16.609  1.00  0.00    -0.286 OA
HETATM    2  C2          0      39.751  10.292  16.904  1.00  0.00     0.201 C 
HETATM    3  C3          0      40.895  10.556  17.637  1.00  0.00     0.067 C 
HETATM    4  C4          0      41.224  11.847  18.037  1.00  0.00     0.103 C 
HETATM    5  O13         0      40.428  12.841  17.686  1.00  0.00    -0.307 OA
HETATM    6  C14         0      39.310  12.642  17.022  1.00  0.00     0.107 C 
HETATM    7  C15         0      38.295  13.587  17.000  1.00  0.00     0.049 C 
HETATM    8  C16         0      37.028  13.275  16.519  1.00  0.00     0.093 C 
HETATM    9  C18         0      36.987  12.220  15.616  1.00  0.00     0.048 C 
HETATM   10  C19         0      38.010  11.282  15.579  1.00  0.00     0.096 C 
HETATM   11  C21         0      39.076  11.406  16.428  1.00  0.00     0.084 C 
ENDROOT
BRANCH  10  12
HETATM   12  O20         0      37.769  10.034  15.014  1.00  0.00    -0.359 OA
HETATM   13  H20         0      38.467   9.629  14.513  1.00  0.00     0.218 HD
ENDBRANCH  10  12
BRANCH   4  14
HETATM   14  C5          0      42.036  11.987  19.246  1.00  0.00     0.025 C 
HETATM   15  C6          0      41.714  12.866  20.270  1.00  0.00     0.004 C 
HETATM   16  C7          0      41.939  12.444  21.577  1.00  0.00     0.026 C 
HETATM   17  C8          0      42.585  11.245  21.855  1.00  0.00     0.112 C 
HETATM   18  C10         0      43.401  10.776  20.835  1.00  0.00     0.112 C 
HETATM   19  C12         0      43.104  11.145  19.528  1.00  0.00     0.028 C 
BRANCH  17  20
HETATM   20  O9          0      42.251  10.503  22.974  1.00  0.00    -0.357 OA
HETATM   21  H9          0      41.528  10.716  23.552  1.00  0.00     0.218 HD
ENDBRANCH  17  20
BRANCH  18  22
HETATM   22  O11         0      44.212   9.689  21.128  1.00  0.00    -0.357 OA
HETATM   23  H11         0      43.777   8.865  21.316  1.00  0.00     0.218 HD
ENDBRANCH  18  22
ENDBRANCH   4  14
BRANCH   8  24
HETATM   24  O17         0      35.872  13.751  17.147  1.00  0.00    -0.359 OA
HETATM   25  H17         0      35.816  14.638  17.482  1.00  0.00     0.218 HD
ENDBRANCH   8  24
TORSDOF 5
ENDMDL
MODEL 6
REMARK VINA RESULT:      -5.2      2.337      6.983
REMARK  5 active torsions:
REMARK  status: ('A' for Active; 'I' for Inactive)
REMARK    1  A    between atoms: C4_4  and  C5_5 
REMARK    2  A    between atoms: C8_8  and  O9_9 
REMARK    3  A    between atoms: C10_11  and  O11_12 
REMARK    4  A    between atoms: C16_18  and  O17_19 
REMARK    5  A    between atoms: C19_22  and  O20_23 
ROOT
HETATM    1  O1          0      38.512   8.947  15.668  1.00  0.00    -0.286 OA
HETATM    2  C2          0      38.516  10.189  15.889  1.00  0.00     0.201 C 
HETATM    3  C3          0      39.408  10.794  16.757  1.00  0.00     0.067 C 
HETATM    4  C4          0      39.325  12.148  17.061  1.00  0.00     0.103 C 
HETATM    5  O13         0      38.380  12.871  16.486  1.00  0.00    -0.307 OA
HETATM    6  C14         0      37.484  12.339  15.683  1.00  0.00     0.107 C 
HETATM    7  C15         0      36.284  12.977  15.403  1.00  0.00     0.049 C 
HETATM    8  C16         0      35.243  12.309  14.769  1.00  0.00     0.093 C 
HETATM    9  C18         0      35.630  11.226  13.989  1.00  0.00     0.048 C 
HETATM   10  C19         0      36.845  10.594  14.212  1.00  0.00     0.096 C 
HETATM   11  C21         0      37.678  11.051  15.197  1.00  0.00     0.084 C 
ENDROOT
BRANCH  10  12
HETATM   12  O20         0      37.030   9.293  13.754  1.00  0.00    -0.359 OA
HETATM   13  H20         0      36.323   8.888  13.267  1.00  0.00     0.218 HD
ENDBRANCH  10  12
BRANCH   4  14
HETATM   14  C5          0      39.848  12.577  18.360  1.00  0.00     0.025 C 
HETATM   15  C6          0      39.122  12.464  19.537  1.00  0.00     0.004 C 
HETATM   16  C7          0      39.814  12.104  20.689  1.00  0.00     0.026 C 
HETATM   17  C8          0      41.200  11.990  20.701  1.00  0.00     0.112 C 
HETATM   18  C10         0      41.850  12.714  19.711  1.00  0.00     0.112 C 
HETATM   19  C12         0      41.163  12.987  18.534  1.00  0.00     0.028 C 
BRANCH  17  20
HETATM   20  O9          0      41.828  11.059  21.510  1.00  0.00    -0.357 OA
HETATM   21  H9          0      41.913  11.151  22.452  1.00  0.00     0.218 HD
ENDBRANCH  17  20
BRANCH  18  22
HETATM   22  O11         0      43.234  12.788  19.792  1.00  0.00    -0.357 OA
HETATM   23  H11         0      43.730  12.221  19.213  1.00  0.00     0.218 HD
ENDBRANCH  18  22
ENDBRANCH   4  14
BRANCH   8  24
HETATM   24  O17         0      33.912  12.499  15.155  1.00  0.00    -0.359 OA
HETATM   25  H17         0      33.576  13.359  15.380  1.00  0.00     0.218 HD
ENDBRANCH   8  24
TORSDOF 5
ENDMDL
MODEL 7
REMARK VINA RESULT:      -5.1      1.774      2.376
REMARK  5 active torsions:
REMARK  status: ('A' for Active; 'I' for Inactive)
REMARK    1  A    between atoms: C4_4  and  C5_5 
REMARK    2  A    between atoms: C8_8  and  O9_9 
REMARK    3  A    between atoms: C10_11  and  O11_12 
REMARK    4  A    between atoms: C16_18  and  O17_19 
REMARK    5  A    between atoms: C19_22  and  O20_23 
ROOT
HETATM    1  O1          0      39.091   9.078  19.290  1.00  0.00    -0.286 OA
HETATM    2  C2          0      39.215  10.315  19.081  1.00  0.00     0.201 C 
HETATM    3  C3          0      38.206  11.088  18.531  1.00  0.00     0.067 C 
HETATM    4  C4          0      38.404  12.427  18.215  1.00  0.00     0.103 C 
HETATM    5  O13         0      39.580  12.972  18.470  1.00  0.00    -0.307 OA
HETATM    6  C14         0      40.583  12.275  18.957  1.00  0.00     0.107 C 
HETATM    7  C15         0      41.896  12.712  18.853  1.00  0.00     0.049 C 
HETATM    8  C16         0      42.963  11.867  19.134  1.00  0.00     0.093 C 
HETATM    9  C18         0      42.668  10.817  19.996  1.00  0.00     0.048 C 
HETATM   10  C19         0      41.359  10.385  20.160  1.00  0.00     0.096 C 
HETATM   11  C21         0      40.348  11.008  19.480  1.00  0.00     0.084 C 
ENDROOT
BRANCH  10  12
HETATM   12  O20         0      41.121   9.106  20.653  1.00  0.00    -0.359 OA
HETATM   13  H20         0      40.351   8.972  21.192  1.00  0.00     0.218 HD
ENDBRANCH  10  12
BRANCH   4  14
HETATM   14  C5          0      37.584  12.991  17.142  1.00  0.00     0.025 C 
HETATM   15  C6          0      38.127  13.558  15.998  1.00  0.00     0.004 C 
HETATM   16  C7          0      37.473  13.330  14.792  1.00  0.00     0.026 C 
HETATM   17  C8          0      36.248  12.675  14.739  1.00  0.00     0.112 C 
HETATM   18  C10         0      35.514  12.721  15.917  1.00  0.00     0.112 C 
HETATM   19  C12         0      36.201  12.865  17.117  1.00  0.00     0.028 C 
BRANCH  17  20
HETATM   20  O9          0      35.918  11.875  13.659  1.00  0.00    -0.357 OA
HETATM   21  H9          0      35.878  10.926  13.698  1.00  0.00     0.218 HD
ENDBRANCH  17  20
BRANCH  18  22
HETATM   22  O11         0      34.210  12.250  15.864  1.00  0.00    -0.357 OA
HETATM   23  H11         0      33.532  12.821  16.208  1.00  0.00     0.218 HD
ENDBRANCH  18  22
ENDBRANCH   4  14
BRANCH   8  24
HETATM   24  O17         0      44.125  11.875  18.356  1.00  0.00    -0.359 OA
HETATM   25  H17         0      44.171  12.346  17.532  1.00  0.00     0.218 HD
ENDBRANCH   8  24
TORSDOF 5
ENDMDL
MODEL 8
REMARK VINA RESULT:      -5.0      2.075      2.765
REMARK  5 active torsions:
REMARK  status: ('A' for Active; 'I' for Inactive)
REMARK    1  A    between atoms: C4_4  and  C5_5 
REMARK    2  A    between atoms: C8_8  and  O9_9 
REMARK    3  A    between atoms: C10_11  and  O11_12 
REMARK    4  A    between atoms: C16_18  and  O17_19 
REMARK    5  A    between atoms: C19_22  and  O20_23 
ROOT
HETATM    1  O1          0      39.862   7.964  18.691  1.00  0.00    -0.286 OA
HETATM    2  C2          0      40.290   9.150  18.719  1.00  0.00     0.201 C 
HETATM    3  C3          0      39.451  10.249  18.792  1.00  0.00     0.067 C 
HETATM    4  C4          0      39.942  11.547  18.718  1.00  0.00     0.103 C 
HETATM    5  O13         0      41.246  11.726  18.595  1.00  0.00    -0.307 OA
HETATM    6  C14         0      42.083  10.718  18.483  1.00  0.00     0.107 C 
HETATM    7  C15         0      43.358  10.881  17.963  1.00  0.00     0.049 C 
HETATM    8  C16         0      44.140   9.787  17.612  1.00  0.00     0.093 C 
HETATM    9  C18         0      43.828   8.606  18.274  1.00  0.00     0.048 C 
HETATM   10  C19         0      42.576   8.428  18.847  1.00  0.00     0.096 C 
HETATM   11  C21         0      41.647   9.430  18.773  1.00  0.00     0.084 C 
ENDROOT
BRANCH  10  12
HETATM   12  O20         0      42.125   7.138  19.109  1.00  0.00    -0.359 OA
HETATM   13  H20         0      42.024   6.877  20.016  1.00  0.00     0.218 HD
ENDBRANCH  10  12
BRANCH   4  14
HETATM   14  C5          0      39.038  12.578  18.205  1.00  0.00     0.025 C 
HETATM   15  C6          0      39.306  13.310  17.057  1.00  0.00     0.004 C 
HETATM   16  C7          0      38.237  13.606  16.217  1.00  0.00     0.026 C 
HETATM   17  C8          0      36.926  13.304  16.571  1.00  0.00     0.112 C 
HETATM   18  C10         0      36.709  13.176  17.936  1.00  0.00     0.112 C 
HETATM   19  C12         0      37.775  12.795  18.742  1.00  0.00     0.028 C 
BRANCH  17  20
HETATM   20  O9          0      35.994  12.957  15.609  1.00  0.00    -0.357 OA
HETATM   21  H9          0      35.656  12.077  15.494  1.00  0.00     0.218 HD
ENDBRANCH  17  20
BRANCH  18  22
HETATM   22  O11         0      35.391  13.063  18.355  1.00  0.00    -0.357 OA
HETATM   23  H11         0      34.798  13.761  18.103  1.00  0.00     0.218 HD
ENDBRANCH  18  22
ENDBRANCH   4  14
BRANCH   8  24
HETATM   24  O17         0      44.930   9.796  16.457  1.00  0.00    -0.359 OA
HETATM   25  H17         0      44.640  10.218  15.657  1.00  0.00     0.218 HD
ENDBRANCH   8  24
TORSDOF 5
ENDMDL
MODEL 9
REMARK VINA RESULT:      -5.0      2.134      6.810
REMARK  5 active torsions:
REMARK  status: ('A' for Active; 'I' for Inactive)
REMARK    1  A    between atoms: C4_4  and  C5_5 
REMARK    2  A    between atoms: C8_8  and  O9_9 
REMARK    3  A    between atoms: C10_11  and  O11_12 
REMARK    4  A    between atoms: C16_18  and  O17_19 
REMARK    5  A    between atoms: C19_22  and  O20_23 
ROOT
HETATM    1  O1          0      38.822   8.740  15.514  1.00  0.00    -0.286 OA
HETATM    2  C2          0      39.106   9.911  15.888  1.00  0.00     0.201 C 
HETATM    3  C3          0      40.132  10.187  16.776  1.00  0.00     0.067 C 
HETATM    4  C4          0      40.358  11.474  17.251  1.00  0.00     0.103 C 
HETATM    5  O13         0      39.582  12.454  16.822  1.00  0.00    -0.307 OA
HETATM    6  C14         0      38.571  12.241  16.008  1.00  0.00     0.107 C 
HETATM    7  C15         0      37.536  13.154  15.874  1.00  0.00     0.049 C 
HETATM    8  C16         0      36.358  12.818  15.218  1.00  0.00     0.093 C 
HETATM    9  C18         0      36.475  11.792  14.289  1.00  0.00     0.048 C 
HETATM   10  C19         0      37.526  10.887  14.367  1.00  0.00     0.096 C 
HETATM   11  C21         0      38.463  11.018  15.355  1.00  0.00     0.084 C 
ENDROOT
BRANCH  10  12
HETATM   12  O20         0      37.406   9.651  13.740  1.00  0.00    -0.359 OA
HETATM   13  H20         0      36.537   9.358  13.495  1.00  0.00     0.218 HD
ENDBRANCH  10  12
BRANCH   4  14
HETATM   14  C5          0      40.995  11.602  18.563  1.00  0.00     0.025 C 
HETATM   15  C6          0      41.486  10.513  19.269  1.00  0.00     0.004 C 
HETATM   16  C7          0      42.672  10.685  19.975  1.00  0.00     0.026 C 
HETATM   17  C8          0      43.281  11.931  20.087  1.00  0.00     0.112 C 
HETATM   18  C10         0      42.426  13.011  19.911  1.00  0.00     0.112 C 
HETATM   19  C12         0      41.290  12.835  19.130  1.00  0.00     0.028 C 
BRANCH  17  20
HETATM   20  O9          0      44.658  12.044  20.154  1.00  0.00    -0.357 OA
HETATM   21  H9          0      45.113  12.858  20.335  1.00  0.00     0.218 HD
ENDBRANCH  17  20
BRANCH  18  22
HETATM   22  O11         0      42.937  14.269  20.197  1.00  0.00    -0.357 OA
HETATM   23  H11         0      42.996  14.511  21.114  1.00  0.00     0.218 HD
ENDBRANCH  18  22
ENDBRANCH   4  14
BRANCH   8  24
HETATM   24  O17         0      35.111  13.239  15.696  1.00  0.00    -0.359 OA
HETATM   25  H17         0      34.500  13.713  15.145  1.00  0.00     0.218 HD
ENDBRANCH   8  24
TORSDOF 5
ENDMDL
