MODEL 1
REMARK VINA RESULT:      -0.0      0.000      0.000
REMARK  5 active torsions:
REMARK  status: ('A' for Active; 'I' for Inactive)
REMARK    1  A    between atoms: C4_4  and  C5_5 
REMARK    2  A    between atoms: C8_8  and  O9_9 
REMARK    3  A    between atoms: C10_11  and  O11_12 
REMARK    4  A    between atoms: C16_18  and  O17_19 
REMARK    5  A    between atoms: C19_22  and  O20_23 
ROOT
HETATM    1  O1          0       3.973 107.622  41.558  1.00  0.00    -0.286 OA
HETATM    2  C2          0       5.102 108.067  41.901  1.00  0.00     0.201 C 
HETATM    3  C3          0       5.699 109.153  41.285  1.00  0.00     0.067 C 
HETATM    4  C4          0       6.988 109.560  41.613  1.00  0.00     0.103 C 
HETATM    5  O13         0       7.642 108.899  42.552  1.00  0.00    -0.307 OA
HETATM    6  C14         0       7.136 107.839  43.142  1.00  0.00     0.107 C 
HETATM    7  C15         0       7.935 106.924  43.812  1.00  0.00     0.049 C 
HETATM    8  C16         0       7.440 105.688  44.209  1.00  0.00     0.093 C 
HETATM    9  C18         0       6.063 105.637  44.388  1.00  0.00     0.048 C 
HETATM   10  C19         0       5.237 106.567  43.771  1.00  0.00     0.096 C 
HETATM   11  C21         0       5.784 107.550  42.993  1.00  0.00     0.084 C 
ENDROOT
BRANCH  10  12
HETATM   12  O20         0       3.890 106.266  43.591  1.00  0.00    -0.359 OA
HETATM   13  H20         0       3.443 105.794  44.283  1.00  0.00     0.218 HD
ENDBRANCH  10  12
BRANCH   4  14
HETATM   14  C5          0       7.754 110.258  40.579  1.00  0.00     0.025 C 
HETATM   15  C6          0       9.140 110.244  40.531  1.00  0.00     0.004 C 
HETATM   16  C7          0       9.741 110.169  39.279  1.00  0.00     0.026 C 
HETATM   17  C8          0       8.996 110.243  38.107  1.00  0.00     0.112 C 
HETATM   18  C10         0       7.767 110.875  38.239  1.00  0.00     0.112 C 
HETATM   19  C12         0       7.148 110.861  39.484  1.00  0.00     0.028 C 
BRANCH  17  20
HETATM   20  O9          0       9.384 109.546  36.976  1.00  0.00    -0.357 OA
HETATM   21  H9          0       9.627 109.962  36.157  1.00  0.00     0.218 HD
ENDBRANCH  17  20
BRANCH  18  22
HETATM   22  O11         0       7.069 111.143  37.070  1.00  0.00    -0.357 OA
HETATM   23  H11         0       6.410 110.511  36.809  1.00  0.00     0.218 HD
ENDBRANCH  18  22
ENDBRANCH   4  14
BRANCH   8  24
HETATM   24  O17         0       8.211 104.525  44.104  1.00  0.00    -0.359 OA
HETATM   25  H17         0       8.100 103.796  44.704  1.00  0.00     0.218 HD
ENDBRANCH   8  24
TORSDOF 5
ENDMDL
MODEL 2
REMARK VINA RESULT:      -0.0      5.050      6.908
REMARK  5 active torsions:
REMARK  status: ('A' for Active; 'I' for Inactive)
REMARK    1  A    between atoms: C4_4  and  C5_5 
REMARK    2  A    between atoms: C8_8  and  O9_9 
REMARK    3  A    between atoms: C10_11  and  O11_12 
REMARK    4  A    between atoms: C16_18  and  O17_19 
REMARK    5  A    between atoms: C19_22  and  O20_23 
ROOT
HETATM    1  O1          0       8.683 105.579  42.141  1.00  0.00    -0.286 OA
HETATM    2  C2          0       9.759 105.834  42.748  1.00  0.00     0.201 C 
HETATM    3  C3          0       9.793 106.407  44.008  1.00  0.00     0.067 C 
HETATM    4  C4          0      10.992 106.771  44.610  1.00  0.00     0.103 C 
HETATM    5  O13         0      12.122 106.542  43.965  1.00  0.00    -0.307 OA
HETATM    6  C14         0      12.144 106.035  42.752  1.00  0.00     0.107 C 
HETATM    7  C15         0      13.253 106.161  41.927  1.00  0.00     0.049 C 
HETATM    8  C16         0      13.184 105.854  40.574  1.00  0.00     0.093 C 
HETATM    9  C18         0      12.184 104.954  40.226  1.00  0.00     0.048 C 
HETATM   10  C19         0      11.083 104.769  41.052  1.00  0.00     0.096 C 
HETATM   11  C21         0      10.990 105.466  42.225  1.00  0.00     0.084 C 
ENDROOT
BRANCH  10  12
HETATM   12  O20         0       9.917 104.228  40.519  1.00  0.00    -0.359 OA
HETATM   13  H20         0       9.377 104.786  39.972  1.00  0.00     0.218 HD
ENDBRANCH  10  12
BRANCH   4  14
HETATM   14  C5          0      10.946 107.861  45.587  1.00  0.00     0.025 C 
HETATM   15  C6          0      12.036 108.677  45.855  1.00  0.00     0.004 C 
HETATM   16  C7          0      11.789 110.027  46.082  1.00  0.00     0.026 C 
HETATM   17  C8          0      10.495 110.527  46.173  1.00  0.00     0.112 C 
HETATM   18  C10         0       9.534 109.588  46.523  1.00  0.00     0.112 C 
HETATM   19  C12         0       9.768 108.255  46.208  1.00  0.00     0.028 C 
BRANCH  17  20
HETATM   20  O9          0      10.197 111.805  45.736  1.00  0.00    -0.357 OA
HETATM   21  H9          0      10.844 112.494  45.638  1.00  0.00     0.218 HD
ENDBRANCH  17  20
BRANCH  18  22
HETATM   22  O11         0       8.264 110.066  46.812  1.00  0.00    -0.357 OA
HETATM   23  H11         0       7.651 109.452  47.199  1.00  0.00     0.218 HD
ENDBRANCH  18  22
ENDBRANCH   4  14
BRANCH   8  24
HETATM   24  O17         0      13.833 106.639  39.614  1.00  0.00    -0.359 OA
HETATM   25  H17         0      14.546 107.223  39.846  1.00  0.00     0.218 HD
ENDBRANCH   8  24
TORSDOF 5
ENDMDL
MODEL 3
REMARK VINA RESULT:      -0.0      4.751      6.294
REMARK  5 active torsions:
REMARK  status: ('A' for Active; 'I' for Inactive)
REMARK    1  A    between atoms: C4_4  and  C5_5 
REMARK    2  A    between atoms: C8_8  and  O9_9 
REMARK    3  A    between atoms: C10_11  and  O11_12 
REMARK    4  A    between atoms: C16_18  and  O17_19 
REMARK    5  A    between atoms: C19_22  and  O20_23 
ROOT
HETATM    1  O1          0       8.683 105.579  42.141  1.00  0.00    -0.286 OA
HETATM    2  C2          0       9.334 106.102  43.087  1.00  0.00     0.201 C 
HETATM    3  C3          0       8.730 106.800  44.118  1.00  0.00     0.067 C 
HETATM    4  C4          0       9.477 107.453  45.092  1.00  0.00     0.103 C 
HETATM    5  O13         0      10.795 107.382  45.034  1.00  0.00    -0.307 OA
HETATM    6  C14         0      11.420 106.764  44.056  1.00  0.00     0.107 C 
HETATM    7  C15         0      12.753 107.016  43.765  1.00  0.00     0.049 C 
HETATM    8  C16         0      13.333 106.561  42.587  1.00  0.00     0.093 C 
HETATM    9  C18         0      12.718 105.451  42.021  1.00  0.00     0.048 C 
HETATM   10  C19         0      11.399 105.143  42.326  1.00  0.00     0.096 C 
HETATM   11  C21         0      10.705 105.928  43.205  1.00  0.00     0.084 C 
ENDROOT
BRANCH  10  12
HETATM   12  O20         0      10.672 104.332  41.460  1.00  0.00    -0.359 OA
HETATM   13  H20         0       9.821 104.025  41.748  1.00  0.00     0.218 HD
ENDBRANCH  10  12
BRANCH   4  14
HETATM   14  C5          0       8.861 108.610  45.745  1.00  0.00     0.025 C 
HETATM   15  C6          0       9.602 109.646  46.294  1.00  0.00     0.004 C 
HETATM   16  C7          0       9.108 110.939  46.148  1.00  0.00     0.026 C 
HETATM   17  C8          0       7.856 111.183  45.595  1.00  0.00     0.112 C 
HETATM   18  C10         0       6.970 110.117  45.673  1.00  0.00     0.112 C 
HETATM   19  C12         0       7.490 108.829  45.732  1.00  0.00     0.028 C 
BRANCH  17  20
HETATM   20  O9          0       7.620 112.325  44.851  1.00  0.00    -0.357 OA
HETATM   21  H9          0       8.109 113.133  44.955  1.00  0.00     0.218 HD
ENDBRANCH  17  20
BRANCH  18  22
HETATM   22  O11         0       5.654 110.366  45.310  1.00  0.00    -0.357 OA
HETATM   23  H11         0       5.499 110.638  44.413  1.00  0.00     0.218 HD
ENDBRANCH  18  22
ENDBRANCH   4  14
BRANCH   8  24
HETATM   24  O17         0      14.234 107.351  41.865  1.00  0.00    -0.359 OA
HETATM   25  H17         0      14.672 107.025  41.087  1.00  0.00     0.218 HD
ENDBRANCH   8  24
TORSDOF 5
ENDMDL
MODEL 4
REMARK VINA RESULT:      -0.0      4.979      5.544
REMARK  5 active torsions:
REMARK  status: ('A' for Active; 'I' for Inactive)
REMARK    1  A    between atoms: C4_4  and  C5_5 
REMARK    2  A    between atoms: C8_8  and  O9_9 
REMARK    3  A    between atoms: C10_11  and  O11_12 
REMARK    4  A    between atoms: C16_18  and  O17_19 
REMARK    5  A    between atoms: C19_22  and  O20_23 
ROOT
HETATM    1  O1          0       3.953 110.651  37.688  1.00  0.00    -0.286 OA
HETATM    2  C2          0       5.013 111.304  37.893  1.00  0.00     0.201 C 
HETATM    3  C3          0       6.114 111.230  37.056  1.00  0.00     0.067 C 
HETATM    4  C4          0       7.305 111.880  37.360  1.00  0.00     0.103 C 
HETATM    5  O13         0       7.371 112.599  38.466  1.00  0.00    -0.307 OA
HETATM    6  C14         0       6.369 112.672  39.314  1.00  0.00     0.107 C 
HETATM    7  C15         0       6.552 113.073  40.629  1.00  0.00     0.049 C 
HETATM    8  C16         0       5.552 112.907  41.580  1.00  0.00     0.093 C 
HETATM    9  C18         0       4.261 112.840  41.069  1.00  0.00     0.048 C 
HETATM   10  C19         0       4.045 112.487  39.744  1.00  0.00     0.096 C 
HETATM   11  C21         0       5.111 112.220  38.929  1.00  0.00     0.084 C 
ENDROOT
BRANCH  10  12
HETATM   12  O20         0       2.796 112.004  39.364  1.00  0.00    -0.359 OA
HETATM   13  H20         0       2.760 111.167  38.916  1.00  0.00     0.218 HD
ENDBRANCH  10  12
BRANCH   4  14
HETATM   14  C5          0       8.538 111.307  36.816  1.00  0.00     0.025 C 
HETATM   15  C6          0       9.775 111.472  37.422  1.00  0.00     0.004 C 
HETATM   16  C7          0      10.648 110.389  37.411  1.00  0.00     0.026 C 
HETATM   17  C8          0      10.359 109.226  36.706  1.00  0.00     0.112 C 
HETATM   18  C10         0       9.458 109.390  35.661  1.00  0.00     0.112 C 
HETATM   19  C12         0       8.539 110.430  35.739  1.00  0.00     0.028 C 
BRANCH  17  20
HETATM   20  O9          0      10.783 107.993  37.167  1.00  0.00    -0.357 OA
HETATM   21  H9          0      10.203 107.255  37.311  1.00  0.00     0.218 HD
ENDBRANCH  17  20
BRANCH  18  22
HETATM   22  O11         0       9.279 108.309  34.811  1.00  0.00    -0.357 OA
HETATM   23  H11         0      10.001 107.695  34.737  1.00  0.00     0.218 HD
ENDBRANCH  18  22
ENDBRANCH   4  14
BRANCH   8  24
HETATM   24  O17         0       5.848 112.502  42.886  1.00  0.00    -0.359 OA
HETATM   25  H17         0       6.463 112.981  43.430  1.00  0.00     0.218 HD
ENDBRANCH   8  24
TORSDOF 5
ENDMDL
MODEL 5
REMARK VINA RESULT:       0.0      6.757      9.438
REMARK  5 active torsions:
REMARK  status: ('A' for Active; 'I' for Inactive)
REMARK    1  A    between atoms: C4_4  and  C5_5 
REMARK    2  A    between atoms: C8_8  and  O9_9 
REMARK    3  A    between atoms: C10_11  and  O11_12 
REMARK    4  A    between atoms: C16_18  and  O17_19 
REMARK    5  A    between atoms: C19_22  and  O20_23 
ROOT
HETATM    1  O1          0      13.835 115.534  41.671  1.00  0.00    -0.286 OA
HETATM    2  C2          0      12.669 115.104  41.889  1.00  0.00     0.201 C 
HETATM    3  C3          0      11.708 115.847  42.553  1.00  0.00     0.067 C 
HETATM    4  C4          0      10.465 115.311  42.871  1.00  0.00     0.103 C 
HETATM    5  O13         0      10.197 114.070  42.507  1.00  0.00    -0.307 OA
HETATM    6  C14         0      11.086 113.309  41.908  1.00  0.00     0.107 C 
HETATM    7  C15         0      10.970 111.927  41.886  1.00  0.00     0.049 C 
HETATM    8  C16         0      12.027 111.120  41.482  1.00  0.00     0.093 C 
HETATM    9  C18         0      12.943 111.733  40.636  1.00  0.00     0.048 C 
HETATM   10  C19         0      13.053 113.116  40.599  1.00  0.00     0.096 C 
HETATM   11  C21         0      12.242 113.883  41.389  1.00  0.00     0.084 C 
ENDROOT
BRANCH  10  12
HETATM   12  O20         0      14.221 113.693  40.109  1.00  0.00    -0.359 OA
HETATM   13  H20         0      14.154 114.262  39.353  1.00  0.00     0.218 HD
ENDBRANCH  10  12
BRANCH   4  14
HETATM   14  C5          0       9.771 115.871  44.032  1.00  0.00     0.025 C 
HETATM   15  C6          0       8.855 115.148  44.781  1.00  0.00     0.004 C 
HETATM   16  C7          0       8.858 115.335  46.160  1.00  0.00     0.026 C 
HETATM   17  C8          0       9.652 116.305  46.762  1.00  0.00     0.112 C 
HETATM   18  C10         0      10.019 117.353  45.929  1.00  0.00     0.112 C 
HETATM   19  C12         0      10.090 117.115  44.561  1.00  0.00     0.028 C 
BRANCH  17  20
HETATM   20  O9          0      10.186 116.102  48.022  1.00  0.00    -0.357 OA
HETATM   21  H9          0       9.957 116.623  48.783  1.00  0.00     0.218 HD
ENDBRANCH  17  20
BRANCH  18  22
HETATM   22  O11         0      10.649 118.438  46.523  1.00  0.00    -0.357 OA
HETATM   23  H11         0      11.336 118.863  46.023  1.00  0.00     0.218 HD
ENDBRANCH  18  22
ENDBRANCH   4  14
BRANCH   8  24
HETATM   24  O17         0      12.320 109.919  42.138  1.00  0.00    -0.359 OA
HETATM   25  H17         0      12.187 109.816  43.073  1.00  0.00     0.218 HD
ENDBRANCH   8  24
TORSDOF 5
ENDMDL
MODEL 6
REMARK VINA RESULT:       0.0      3.607      5.985
REMARK  5 active torsions:
REMARK  status: ('A' for Active; 'I' for Inactive)
REMARK    1  A    between atoms: C4_4  and  C5_5 
REMARK    2  A    between atoms: C8_8  and  O9_9 
REMARK    3  A    between atoms: C10_11  and  O11_12 
REMARK    4  A    between atoms: C16_18  and  O17_19 
REMARK    5  A    between atoms: C19_22  and  O20_23 
ROOT
HETATM    1  O1          0      11.104 111.475  39.286  1.00  0.00    -0.286 OA
HETATM    2  C2          0      10.374 110.786  40.050  1.00  0.00     0.201 C 
HETATM    3  C3          0       9.091 111.165  40.406  1.00  0.00     0.067 C 
HETATM    4  C4          0       8.347 110.440  41.330  1.00  0.00     0.103 C 
HETATM    5  O13         0       8.878 109.353  41.860  1.00  0.00    -0.307 OA
HETATM    6  C14         0      10.106 108.969  41.585  1.00  0.00     0.107 C 
HETATM    7  C15         0      10.800 108.095  42.409  1.00  0.00     0.049 C 
HETATM    8  C16         0      12.167 107.894  42.258  1.00  0.00     0.093 C 
HETATM    9  C18         0      12.663 108.160  40.987  1.00  0.00     0.048 C 
HETATM   10  C19         0      11.970 108.993  40.120  1.00  0.00     0.096 C 
HETATM   11  C21         0      10.780 109.543  40.512  1.00  0.00     0.084 C 
ENDROOT
BRANCH  10  12
HETATM   12  O20         0      12.649 109.594  39.065  1.00  0.00    -0.359 OA
HETATM   13  H20         0      12.232 109.599  38.212  1.00  0.00     0.218 HD
ENDBRANCH  10  12
BRANCH   4  14
HETATM   14  C5          0       7.328 111.168  42.088  1.00  0.00     0.025 C 
HETATM   15  C6          0       6.906 110.775  43.350  1.00  0.00     0.004 C 
HETATM   16  C7          0       6.640 111.774  44.281  1.00  0.00     0.026 C 
HETATM   17  C8          0       6.663 113.120  43.933  1.00  0.00     0.112 C 
HETATM   18  C10         0       6.464 113.373  42.583  1.00  0.00     0.112 C 
HETATM   19  C12         0       6.817 112.389  41.667  1.00  0.00     0.028 C 
BRANCH  17  20
HETATM   20  O9          0       7.066 114.081  44.844  1.00  0.00    -0.357 OA
HETATM   21  H9          0       7.805 113.975  45.431  1.00  0.00     0.218 HD
ENDBRANCH  17  20
BRANCH  18  22
HETATM   22  O11         0       6.289 114.699  42.211  1.00  0.00    -0.357 OA
HETATM   23  H11         0       5.864 114.859  41.376  1.00  0.00     0.218 HD
ENDBRANCH  18  22
ENDBRANCH   4  14
BRANCH   8  24
HETATM   24  O17         0      13.012 107.767  43.366  1.00  0.00    -0.359 OA
HETATM   25  H17         0      12.701 107.917  44.251  1.00  0.00     0.218 HD
ENDBRANCH   8  24
TORSDOF 5
ENDMDL
MODEL 7
REMARK VINA RESULT:       0.0      8.929     12.348
REMARK  5 active torsions:
REMARK  status: ('A' for Active; 'I' for Inactive)
REMARK    1  A    between atoms: C4_4  and  C5_5 
REMARK    2  A    between atoms: C8_8  and  O9_9 
REMARK    3  A    between atoms: C10_11  and  O11_12 
REMARK    4  A    between atoms: C16_18  and  O17_19 
REMARK    5  A    between atoms: C19_22  and  O20_23 
ROOT
HETATM    1  O1          0      14.873 111.078  34.823  1.00  0.00    -0.286 OA
HETATM    2  C2          0      15.255 112.174  35.316  1.00  0.00     0.201 C 
HETATM    3  C3          0      15.536 112.334  36.663  1.00  0.00     0.067 C 
HETATM    4  C4          0      15.856 113.576  37.198  1.00  0.00     0.103 C 
HETATM    5  O13         0      15.910 114.620  36.390  1.00  0.00    -0.307 OA
HETATM    6  C14         0      15.616 114.531  35.111  1.00  0.00     0.107 C 
HETATM    7  C15         0      15.283 115.647  34.358  1.00  0.00     0.049 C 
HETATM    8  C16         0      14.730 115.523  33.089  1.00  0.00     0.093 C 
HETATM    9  C18         0      15.023 114.332  32.435  1.00  0.00     0.048 C 
HETATM   10  C19         0      15.405 113.208  33.155  1.00  0.00     0.096 C 
HETATM   11  C21         0      15.511 113.278  34.517  1.00  0.00     0.084 C 
ENDROOT
BRANCH  10  12
HETATM   12  O20         0      15.271 111.951  32.574  1.00  0.00    -0.359 OA
HETATM   13  H20         0      16.062 111.494  32.314  1.00  0.00     0.218 HD
ENDBRANCH  10  12
BRANCH   4  14
HETATM   14  C5          0      15.550 113.795  38.613  1.00  0.00     0.025 C 
HETATM   15  C6          0      15.297 115.053  39.141  1.00  0.00     0.004 C 
HETATM   16  C7          0      14.310 115.155  40.116  1.00  0.00     0.026 C 
HETATM   17  C8          0      13.688 114.030  40.645  1.00  0.00     0.112 C 
HETATM   18  C10         0      14.421 112.856  40.535  1.00  0.00     0.112 C 
HETATM   19  C12         0      15.342 112.747  39.500  1.00  0.00     0.028 C 
BRANCH  17  20
HETATM   20  O9          0      12.364 114.074  41.044  1.00  0.00    -0.357 OA
HETATM   21  H9          0      12.044 114.618  41.755  1.00  0.00     0.218 HD
ENDBRANCH  17  20
BRANCH  18  22
HETATM   22  O11         0      13.935 111.746  41.211  1.00  0.00    -0.357 OA
HETATM   23  H11         0      13.686 110.996  40.682  1.00  0.00     0.218 HD
ENDBRANCH  18  22
ENDBRANCH   4  14
BRANCH   8  24
HETATM   24  O17         0      13.701 116.366  32.656  1.00  0.00    -0.359 OA
HETATM   25  H17         0      13.757 116.843  31.837  1.00  0.00     0.218 HD
ENDBRANCH   8  24
TORSDOF 5
ENDMDL
MODEL 8
REMARK VINA RESULT:       0.0      8.794     11.696
REMARK  5 active torsions:
REMARK  status: ('A' for Active; 'I' for Inactive)
REMARK    1  A    between atoms: C4_4  and  C5_5 
REMARK    2  A    between atoms: C8_8  and  O9_9 
REMARK    3  A    between atoms: C10_11  and  O11_12 
REMARK    4  A    between atoms: C16_18  and  O17_19 
REMARK    5  A    between atoms: C19_22  and  O20_23 
ROOT
HETATM    1  O1          0      10.285 119.310  39.804  1.00  0.00    -0.286 OA
HETATM    2  C2          0       9.051 119.205  40.048  1.00  0.00     0.201 C 
HETATM    3  C3          0       8.525 119.317  41.323  1.00  0.00     0.067 C 
HETATM    4  C4          0       7.177 119.095  41.578  1.00  0.00     0.103 C 
HETATM    5  O13         0       6.382 118.789  40.567  1.00  0.00    -0.307 OA
HETATM    6  C14         0       6.836 118.634  39.343  1.00  0.00     0.107 C 
HETATM    7  C15         0       6.118 117.940  38.380  1.00  0.00     0.049 C 
HETATM    8  C16         0       6.703 117.560  37.178  1.00  0.00     0.093 C 
HETATM    9  C18         0       7.789 118.333  36.783  1.00  0.00     0.048 C 
HETATM   10  C19         0       8.501 119.076  37.714  1.00  0.00     0.096 C 
HETATM   11  C21         0       8.122 119.061  39.029  1.00  0.00     0.084 C 
ENDROOT
BRANCH  10  12
HETATM   12  O20         0       9.799 119.478  37.414  1.00  0.00    -0.359 OA
HETATM   13  H20         0      10.299 119.914  38.094  1.00  0.00     0.218 HD
ENDBRANCH  10  12
BRANCH   4  14
HETATM   14  C5          0       6.815 118.640  42.922  1.00  0.00     0.025 C 
HETATM   15  C6          0       5.679 117.885  43.180  1.00  0.00     0.004 C 
HETATM   16  C7          0       5.778 116.877  44.133  1.00  0.00     0.026 C 
HETATM   17  C8          0       6.926 116.709  44.901  1.00  0.00     0.112 C 
HETATM   18  C10         0       7.712 117.846  45.024  1.00  0.00     0.112 C 
HETATM   19  C12         0       7.658 118.800  44.014  1.00  0.00     0.028 C 
BRANCH  17  20
HETATM   20  O9          0       7.326 115.450  45.311  1.00  0.00    -0.357 OA
HETATM   21  H9          0       6.723 114.761  45.567  1.00  0.00     0.218 HD
ENDBRANCH  17  20
BRANCH  18  22
HETATM   22  O11         0       8.763 117.788  45.928  1.00  0.00    -0.357 OA
HETATM   23  H11         0       8.837 118.505  46.548  1.00  0.00     0.218 HD
ENDBRANCH  18  22
ENDBRANCH   4  14
BRANCH   8  24
HETATM   24  O17         0       6.439 116.313  36.600  1.00  0.00    -0.359 OA
HETATM   25  H17         0       5.694 116.176  36.027  1.00  0.00     0.218 HD
ENDBRANCH   8  24
TORSDOF 5
ENDMDL
MODEL 9
REMARK VINA RESULT:       0.0      8.545     11.430
REMARK  5 active torsions:
REMARK  status: ('A' for Active; 'I' for Inactive)
REMARK    1  A    between atoms: C4_4  and  C5_5 
REMARK    2  A    between atoms: C8_8  and  O9_9 
REMARK    3  A    between atoms: C10_11  and  O11_12 
REMARK    4  A    between atoms: C16_18  and  O17_19 
REMARK    5  A    between atoms: C19_22  and  O20_23 
ROOT
HETATM    1  O1          0      12.536 110.541  36.921  1.00  0.00    -0.286 OA
HETATM    2  C2          0      13.249 110.150  35.957  1.00  0.00     0.201 C 
HETATM    3  C3          0      14.609 109.917  36.075  1.00  0.00     0.067 C 
HETATM    4  C4          0      15.390 109.585  34.974  1.00  0.00     0.103 C 
HETATM    5  O13         0      14.807 109.472  33.794  1.00  0.00    -0.307 OA
HETATM    6  C14         0      13.527 109.718  33.619  1.00  0.00     0.107 C 
HETATM    7  C15         0      13.000 109.993  32.366  1.00  0.00     0.049 C 
HETATM    8  C16         0      11.714 110.498  32.219  1.00  0.00     0.093 C 
HETATM    9  C18         0      10.847 110.212  33.267  1.00  0.00     0.048 C 
HETATM   10  C19         0      11.342 109.888  34.523  1.00  0.00     0.096 C 
HETATM   11  C21         0      12.694 109.833  34.727  1.00  0.00     0.084 C 
ENDROOT
BRANCH  10  12
HETATM   12  O20         0      10.519 110.032  35.636  1.00  0.00    -0.359 OA
HETATM   13  H20         0      10.167 110.895  35.820  1.00  0.00     0.218 HD
ENDBRANCH  10  12
BRANCH   4  14
HETATM   14  C5          0      16.809 109.941  35.028  1.00  0.00     0.025 C 
HETATM   15  C6          0      17.568 110.180  33.892  1.00  0.00     0.004 C 
HETATM   16  C7          0      18.511 111.202  33.950  1.00  0.00     0.026 C 
HETATM   17  C8          0      18.786 111.874  35.136  1.00  0.00     0.112 C 
HETATM   18  C10         0      18.469 111.168  36.290  1.00  0.00     0.112 C 
HETATM   19  C12         0      17.464 110.211  36.223  1.00  0.00     0.028 C 
BRANCH  17  20
HETATM   20  O9          0      19.142 113.211  35.127  1.00  0.00    -0.357 OA
HETATM   21  H9          0      18.718 113.867  34.585  1.00  0.00     0.218 HD
ENDBRANCH  17  20
BRANCH  18  22
HETATM   22  O11         0      18.895 111.710  37.494  1.00  0.00    -0.357 OA
HETATM   23  H11         0      18.390 112.436  37.842  1.00  0.00     0.218 HD
ENDBRANCH  18  22
ENDBRANCH   4  14
BRANCH   8  24
HETATM   24  O17         0      11.423 111.488  31.273  1.00  0.00    -0.359 OA
HETATM   25  H17         0      11.302 111.279  30.354  1.00  0.00     0.218 HD
ENDBRANCH   8  24
TORSDOF 5
ENDMDL
