MODEL 1
REMARK VINA RESULT:      -6.1      0.000      0.000
REMARK  5 active torsions:
REMARK  status: ('A' for Active; 'I' for Inactive)
REMARK    1  A    between atoms: C4_4  and  C5_5 
REMARK    2  A    between atoms: C8_8  and  O9_9 
REMARK    3  A    between atoms: C10_11  and  O11_12 
REMARK    4  A    between atoms: C16_18  and  O17_19 
REMARK    5  A    between atoms: C19_22  and  O20_23 
ROOT
HETATM    1  O1          0      53.686  35.251 -10.634  1.00  0.00    -0.286 OA
HETATM    2  C2          0      54.733  35.541  -9.992  1.00  0.00     0.201 C 
HETATM    3  C3          0      55.350  36.777 -10.084  1.00  0.00     0.067 C 
HETATM    4  C4          0      56.558  37.037  -9.447  1.00  0.00     0.103 C 
HETATM    5  O13         0      57.113  36.081  -8.723  1.00  0.00    -0.307 OA
HETATM    6  C14         0      56.588  34.878  -8.634  1.00  0.00     0.107 C 
HETATM    7  C15         0      57.336  33.783  -8.228  1.00  0.00     0.049 C 
HETATM    8  C16         0      56.858  32.486  -8.378  1.00  0.00     0.093 C 
HETATM    9  C18         0      55.474  32.374  -8.432  1.00  0.00     0.048 C 
HETATM   10  C19         0      54.691  33.464  -8.789  1.00  0.00     0.096 C 
HETATM   11  C21         0      55.286  34.663  -9.073  1.00  0.00     0.084 C 
ENDROOT
BRANCH  10  12
HETATM   12  O20         0      53.399  33.250  -9.259  1.00  0.00    -0.359 OA
HETATM   13  H20         0      53.216  33.457 -10.167  1.00  0.00     0.218 HD
ENDBRANCH  10  12
BRANCH   4  14
HETATM   14  C5          0      57.419  38.063 -10.037  1.00  0.00     0.025 C 
HETATM   15  C6          0      56.963  38.982 -10.971  1.00  0.00     0.004 C 
HETATM   16  C7          0      57.449  40.283 -10.887  1.00  0.00     0.026 C 
HETATM   17  C8          0      58.455  40.629  -9.992  1.00  0.00     0.112 C 
HETATM   18  C10         0      59.256  39.571  -9.583  1.00  0.00     0.112 C 
HETATM   19  C12         0      58.717  38.290  -9.596  1.00  0.00     0.028 C 
BRANCH  17  20
HETATM   20  O9          0      58.489  41.886  -9.415  1.00  0.00    -0.357 OA
HETATM   21  H9          0      58.710  42.679  -9.891  1.00  0.00     0.218 HD
ENDBRANCH  17  20
BRANCH  18  22
HETATM   22  O11         0      60.386  39.888  -8.842  1.00  0.00    -0.357 OA
HETATM   23  H11         0      60.704  40.782  -8.904  1.00  0.00     0.218 HD
ENDBRANCH  18  22
ENDBRANCH   4  14
BRANCH   8  24
HETATM   24  O17         0      57.697  31.441  -8.780  1.00  0.00    -0.359 OA
HETATM   25  H17         0      58.353  31.560  -9.457  1.00  0.00     0.218 HD
ENDBRANCH   8  24
TORSDOF 5
ENDMDL
MODEL 2
REMARK VINA RESULT:      -5.9      1.753      2.264
REMARK  5 active torsions:
REMARK  status: ('A' for Active; 'I' for Inactive)
REMARK    1  A    between atoms: C4_4  and  C5_5 
REMARK    2  A    between atoms: C8_8  and  O9_9 
REMARK    3  A    between atoms: C10_11  and  O11_12 
REMARK    4  A    between atoms: C16_18  and  O17_19 
REMARK    5  A    between atoms: C19_22  and  O20_23 
ROOT
HETATM    1  O1          0      54.529  35.613  -9.351  1.00  0.00    -0.286 OA
HETATM    2  C2          0      55.737  35.288  -9.185  1.00  0.00     0.201 C 
HETATM    3  C3          0      56.778  36.196  -9.278  1.00  0.00     0.067 C 
HETATM    4  C4          0      58.106  35.794  -9.193  1.00  0.00     0.103 C 
HETATM    5  O13         0      58.370  34.514  -8.999  1.00  0.00    -0.307 OA
HETATM    6  C14         0      57.421  33.605  -8.942  1.00  0.00     0.107 C 
HETATM    7  C15         0      57.686  32.258  -9.141  1.00  0.00     0.049 C 
HETATM    8  C16         0      56.659  31.341  -9.332  1.00  0.00     0.093 C 
HETATM    9  C18         0      55.431  31.715  -8.800  1.00  0.00     0.048 C 
HETATM   10  C19         0      55.150  33.050  -8.544  1.00  0.00     0.096 C 
HETATM   11  C21         0      56.096  34.005  -8.804  1.00  0.00     0.084 C 
ENDROOT
BRANCH  10  12
HETATM   12  O20         0      53.824  33.458  -8.437  1.00  0.00    -0.359 OA
HETATM   13  H20         0      53.183  32.817  -8.156  1.00  0.00     0.218 HD
ENDBRANCH  10  12
BRANCH   4  14
HETATM   14  C5          0      59.102  36.624  -9.873  1.00  0.00     0.025 C 
HETATM   15  C6          0      58.810  37.877 -10.390  1.00  0.00     0.004 C 
HETATM   16  C7          0      59.779  38.868 -10.266  1.00  0.00     0.026 C 
HETATM   17  C8          0      61.047  38.589  -9.767  1.00  0.00     0.112 C 
HETATM   18  C10         0      61.436  37.261  -9.882  1.00  0.00     0.112 C 
HETATM   19  C12         0      60.448  36.284  -9.918  1.00  0.00     0.028 C 
BRANCH  17  20
HETATM   20  O9          0      61.744  39.533  -9.034  1.00  0.00    -0.357 OA
HETATM   21  H9          0      62.087  39.376  -8.162  1.00  0.00     0.218 HD
ENDBRANCH  17  20
BRANCH  18  22
HETATM   22  O11         0      62.757  36.964  -9.575  1.00  0.00    -0.357 OA
HETATM   23  H11         0      62.922  36.561  -8.731  1.00  0.00     0.218 HD
ENDBRANCH  18  22
ENDBRANCH   4  14
BRANCH   8  24
HETATM   24  O17         0      56.771  30.306 -10.267  1.00  0.00    -0.359 OA
HETATM   25  H17         0      56.887  30.480 -11.194  1.00  0.00     0.218 HD
ENDBRANCH   8  24
TORSDOF 5
ENDMDL
MODEL 3
REMARK VINA RESULT:      -5.9      3.674      7.784
REMARK  5 active torsions:
REMARK  status: ('A' for Active; 'I' for Inactive)
REMARK    1  A    between atoms: C4_4  and  C5_5 
REMARK    2  A    between atoms: C8_8  and  O9_9 
REMARK    3  A    between atoms: C10_11  and  O11_12 
REMARK    4  A    between atoms: C16_18  and  O17_19 
REMARK    5  A    between atoms: C19_22  and  O20_23 
ROOT
HETATM    1  O1          0      56.730  42.934 -11.713  1.00  0.00    -0.286 OA
HETATM    2  C2          0      55.996  42.108 -11.104  1.00  0.00     0.201 C 
HETATM    3  C3          0      56.442  40.858 -10.708  1.00  0.00     0.067 C 
HETATM    4  C4          0      55.585  39.929 -10.130  1.00  0.00     0.103 C 
HETATM    5  O13         0      54.321  40.263  -9.941  1.00  0.00    -0.307 OA
HETATM    6  C14         0      53.837  41.422 -10.333  1.00  0.00     0.107 C 
HETATM    7  C15         0      52.476  41.625 -10.506  1.00  0.00     0.049 C 
HETATM    8  C16         0      51.992  42.753 -11.157  1.00  0.00     0.093 C 
HETATM    9  C18         0      52.840  43.854 -11.132  1.00  0.00     0.048 C 
HETATM   10  C19         0      54.201  43.691 -10.914  1.00  0.00     0.096 C 
HETATM   11  C21         0      54.710  42.438 -10.705  1.00  0.00     0.084 C 
ENDROOT
BRANCH  10  12
HETATM   12  O20         0      55.080  44.693 -11.315  1.00  0.00    -0.359 OA
HETATM   13  H20         0      54.749  45.370 -11.893  1.00  0.00     0.218 HD
ENDBRANCH  10  12
BRANCH   4  14
HETATM   14  C5          0      55.923  38.514 -10.295  1.00  0.00     0.025 C 
HETATM   15  C6          0      57.218  38.071 -10.522  1.00  0.00     0.004 C 
HETATM   16  C7          0      57.614  36.890  -9.903  1.00  0.00     0.026 C 
HETATM   17  C8          0      56.715  36.103  -9.191  1.00  0.00     0.112 C 
HETATM   18  C10         0      55.384  36.276  -9.547  1.00  0.00     0.112 C 
HETATM   19  C12         0      54.998  37.498 -10.086  1.00  0.00     0.028 C 
BRANCH  17  20
HETATM   20  O9          0      57.126  35.381  -8.085  1.00  0.00    -0.357 OA
HETATM   21  H9          0      56.606  34.698  -7.677  1.00  0.00     0.218 HD
ENDBRANCH  17  20
BRANCH  18  22
HETATM   22  O11         0      54.467  35.386  -9.006  1.00  0.00    -0.357 OA
HETATM   23  H11         0      54.522  34.483  -9.296  1.00  0.00     0.218 HD
ENDBRANCH  18  22
ENDBRANCH   4  14
BRANCH   8  24
HETATM   24  O17         0      50.911  42.677 -12.042  1.00  0.00    -0.359 OA
HETATM   25  H17         0      50.139  42.161 -11.843  1.00  0.00     0.218 HD
ENDBRANCH   8  24
TORSDOF 5
ENDMDL
MODEL 4
REMARK VINA RESULT:      -5.8      3.709      7.983
REMARK  5 active torsions:
REMARK  status: ('A' for Active; 'I' for Inactive)
REMARK    1  A    between atoms: C4_4  and  C5_5 
REMARK    2  A    between atoms: C8_8  and  O9_9 
REMARK    3  A    between atoms: C10_11  and  O11_12 
REMARK    4  A    between atoms: C16_18  and  O17_19 
REMARK    5  A    between atoms: C19_22  and  O20_23 
ROOT
HETATM    1  O1          0      56.736  42.806 -11.466  1.00  0.00    -0.286 OA
HETATM    2  C2          0      55.927  41.990 -10.945  1.00  0.00     0.201 C 
HETATM    3  C3          0      56.294  40.713 -10.557  1.00  0.00     0.067 C 
HETATM    4  C4          0      55.361  39.799 -10.081  1.00  0.00     0.103 C 
HETATM    5  O13         0      54.099  40.175  -9.981  1.00  0.00    -0.307 OA
HETATM    6  C14         0      53.690  41.363 -10.370  1.00  0.00     0.107 C 
HETATM    7  C15         0      52.355  41.623 -10.644  1.00  0.00     0.049 C 
HETATM    8  C16         0      51.965  42.788 -11.293  1.00  0.00     0.093 C 
HETATM    9  C18         0      52.847  43.855 -11.164  1.00  0.00     0.048 C 
HETATM   10  C19         0      54.179  43.634 -10.844  1.00  0.00     0.096 C 
HETATM   11  C21         0      54.625  42.357 -10.638  1.00  0.00     0.084 C 
ENDROOT
BRANCH  10  12
HETATM   12  O20         0      55.122  44.614 -11.141  1.00  0.00    -0.359 OA
HETATM   13  H20         0      55.994  44.516 -10.779  1.00  0.00     0.218 HD
ENDBRANCH  10  12
BRANCH   4  14
HETATM   14  C5          0      55.661  38.378 -10.265  1.00  0.00     0.025 C 
HETATM   15  C6          0      56.517  37.676  -9.429  1.00  0.00     0.004 C 
HETATM   16  C7          0      56.178  36.364  -9.113  1.00  0.00     0.026 C 
HETATM   17  C8          0      55.097  35.726  -9.712  1.00  0.00     0.112 C 
HETATM   18  C10         0      54.720  36.254 -10.940  1.00  0.00     0.112 C 
HETATM   19  C12         0      54.996  37.592 -11.197  1.00  0.00     0.028 C 
BRANCH  17  20
HETATM   20  O9          0      54.352  34.790  -9.017  1.00  0.00    -0.357 OA
HETATM   21  H9          0      53.419  34.872  -8.856  1.00  0.00     0.218 HD
ENDBRANCH  17  20
BRANCH  18  22
HETATM   22  O11         0      53.775  35.543 -11.666  1.00  0.00    -0.357 OA
HETATM   23  H11         0      52.989  36.011 -11.924  1.00  0.00     0.218 HD
ENDBRANCH  18  22
ENDBRANCH   4  14
BRANCH   8  24
HETATM   24  O17         0      50.956  42.781 -12.263  1.00  0.00    -0.359 OA
HETATM   25  H17         0      51.115  42.467 -13.145  1.00  0.00     0.218 HD
ENDBRANCH   8  24
TORSDOF 5
ENDMDL
MODEL 5
REMARK VINA RESULT:      -5.8      2.330      7.374
REMARK  5 active torsions:
REMARK  status: ('A' for Active; 'I' for Inactive)
REMARK    1  A    between atoms: C4_4  and  C5_5 
REMARK    2  A    between atoms: C8_8  and  O9_9 
REMARK    3  A    between atoms: C10_11  and  O11_12 
REMARK    4  A    between atoms: C16_18  and  O17_19 
REMARK    5  A    between atoms: C19_22  and  O20_23 
ROOT
HETATM    1  O1          0      58.414  40.039 -11.296  1.00  0.00    -0.286 OA
HETATM    2  C2          0      57.364  39.584 -10.764  1.00  0.00     0.201 C 
HETATM    3  C3          0      57.224  38.257 -10.395  1.00  0.00     0.067 C 
HETATM    4  C4          0      56.021  37.759  -9.906  1.00  0.00     0.103 C 
HETATM    5  O13         0      54.999  38.586  -9.775  1.00  0.00    -0.307 OA
HETATM    6  C14         0      55.067  39.846 -10.146  1.00  0.00     0.107 C 
HETATM    7  C15         0      53.927  40.599 -10.388  1.00  0.00     0.049 C 
HETATM    8  C16         0      54.000  41.835 -11.018  1.00  0.00     0.093 C 
HETATM    9  C18         0      55.223  42.483 -10.900  1.00  0.00     0.048 C 
HETATM   10  C19         0      56.376  41.766 -10.611  1.00  0.00     0.096 C 
HETATM   11  C21         0      56.305  40.413 -10.425  1.00  0.00     0.084 C 
ENDROOT
BRANCH  10  12
HETATM   12  O20         0      57.616  42.319 -10.920  1.00  0.00    -0.359 OA
HETATM   13  H20         0      58.034  42.866 -10.267  1.00  0.00     0.218 HD
ENDBRANCH  10  12
BRANCH   4  14
HETATM   14  C5          0      55.754  36.334 -10.109  1.00  0.00     0.025 C 
HETATM   15  C6          0      56.581  35.336  -9.613  1.00  0.00     0.004 C 
HETATM   16  C7          0      55.976  34.184  -9.121  1.00  0.00     0.026 C 
HETATM   17  C8          0      54.607  33.971  -9.239  1.00  0.00     0.112 C 
HETATM   18  C10         0      53.996  34.679 -10.266  1.00  0.00     0.112 C 
HETATM   19  C12         0      54.576  35.872 -10.681  1.00  0.00     0.028 C 
BRANCH  17  20
HETATM   20  O9          0      53.911  33.276  -8.266  1.00  0.00    -0.357 OA
HETATM   21  H9          0      53.004  33.447  -8.041  1.00  0.00     0.218 HD
ENDBRANCH  17  20
BRANCH  18  22
HETATM   22  O11         0      52.675  34.362 -10.548  1.00  0.00    -0.357 OA
HETATM   23  H11         0      52.247  34.870 -11.228  1.00  0.00     0.218 HD
ENDBRANCH  18  22
ENDBRANCH   4  14
BRANCH   8  24
HETATM   24  O17         0      53.048  42.228 -11.966  1.00  0.00    -0.359 OA
HETATM   25  H17         0      52.714  43.116 -12.000  1.00  0.00     0.218 HD
ENDBRANCH   8  24
TORSDOF 5
ENDMDL
MODEL 6
REMARK VINA RESULT:      -5.8      1.162      1.598
REMARK  5 active torsions:
REMARK  status: ('A' for Active; 'I' for Inactive)
REMARK    1  A    between atoms: C4_4  and  C5_5 
REMARK    2  A    between atoms: C8_8  and  O9_9 
REMARK    3  A    between atoms: C10_11  and  O11_12 
REMARK    4  A    between atoms: C16_18  and  O17_19 
REMARK    5  A    between atoms: C19_22  and  O20_23 
ROOT
HETATM    1  O1          0      54.133  35.206 -10.849  1.00  0.00    -0.286 OA
HETATM    2  C2          0      55.150  35.349 -10.115  1.00  0.00     0.201 C 
HETATM    3  C3          0      55.985  36.450 -10.196  1.00  0.00     0.067 C 
HETATM    4  C4          0      57.154  36.533  -9.448  1.00  0.00     0.103 C 
HETATM    5  O13         0      57.456  35.541  -8.629  1.00  0.00    -0.307 OA
HETATM    6  C14         0      56.718  34.457  -8.542  1.00  0.00     0.107 C 
HETATM    7  C15         0      57.215  33.274  -8.014  1.00  0.00     0.049 C 
HETATM    8  C16         0      56.527  32.075  -8.155  1.00  0.00     0.093 C 
HETATM    9  C18         0      55.157  32.204  -8.349  1.00  0.00     0.048 C 
HETATM   10  C19         0      54.621  33.389  -8.832  1.00  0.00     0.096 C 
HETATM   11  C21         0      55.446  34.446  -9.105  1.00  0.00     0.084 C 
ENDROOT
BRANCH  10  12
HETATM   12  O20         0      53.361  33.375  -9.424  1.00  0.00    -0.359 OA
HETATM   13  H20         0      52.608  33.232  -8.865  1.00  0.00     0.218 HD
ENDBRANCH  10  12
BRANCH   4  14
HETATM   14  C5          0      58.238  37.354  -9.990  1.00  0.00     0.025 C 
HETATM   15  C6          0      58.128  38.726 -10.164  1.00  0.00     0.004 C 
HETATM   16  C7          0      59.248  39.503  -9.889  1.00  0.00     0.026 C 
HETATM   17  C8          0      60.477  38.929  -9.581  1.00  0.00     0.112 C 
HETATM   18  C10         0      60.642  37.630 -10.044  1.00  0.00     0.112 C 
HETATM   19  C12         0      59.509  36.847 -10.229  1.00  0.00     0.028 C 
BRANCH  17  20
HETATM   20  O9          0      61.349  39.549  -8.704  1.00  0.00    -0.357 OA
HETATM   21  H9          0      61.284  39.481  -7.758  1.00  0.00     0.218 HD
ENDBRANCH  17  20
BRANCH  18  22
HETATM   22  O11         0      61.910  37.079  -9.930  1.00  0.00    -0.357 OA
HETATM   23  H11         0      62.020  36.381  -9.296  1.00  0.00     0.218 HD
ENDBRANCH  18  22
ENDBRANCH   4  14
BRANCH   8  24
HETATM   24  O17         0      57.198  30.876  -8.421  1.00  0.00    -0.359 OA
HETATM   25  H17         0      56.915  30.052  -8.044  1.00  0.00     0.218 HD
ENDBRANCH   8  24
TORSDOF 5
ENDMDL
MODEL 7
REMARK VINA RESULT:      -5.6      5.550      8.485
REMARK  5 active torsions:
REMARK  status: ('A' for Active; 'I' for Inactive)
REMARK    1  A    between atoms: C4_4  and  C5_5 
REMARK    2  A    between atoms: C8_8  and  O9_9 
REMARK    3  A    between atoms: C10_11  and  O11_12 
REMARK    4  A    between atoms: C16_18  and  O17_19 
REMARK    5  A    between atoms: C19_22  and  O20_23 
ROOT
HETATM    1  O1          0      57.988  41.480  -9.868  1.00  0.00    -0.286 OA
HETATM    2  C2          0      57.265  42.304 -10.493  1.00  0.00     0.201 C 
HETATM    3  C3          0      57.762  43.476 -11.038  1.00  0.00     0.067 C 
HETATM    4  C4          0      56.926  44.414 -11.632  1.00  0.00     0.103 C 
HETATM    5  O13         0      55.631  44.163 -11.692  1.00  0.00    -0.307 OA
HETATM    6  C14         0      55.102  43.084 -11.158  1.00  0.00     0.107 C 
HETATM    7  C15         0      53.750  43.002 -10.861  1.00  0.00     0.049 C 
HETATM    8  C16         0      53.244  41.975 -10.072  1.00  0.00     0.093 C 
HETATM    9  C18         0      54.009  40.815 -10.059  1.00  0.00     0.048 C 
HETATM   10  C19         0      55.355  40.853 -10.396  1.00  0.00     0.096 C 
HETATM   11  C21         0      55.930  42.040 -10.760  1.00  0.00     0.084 C 
ENDROOT
BRANCH  10  12
HETATM   12  O20         0      56.192  39.825  -9.971  1.00  0.00    -0.359 OA
HETATM   13  H20         0      55.816  38.959  -9.869  1.00  0.00     0.218 HD
ENDBRANCH  10  12
BRANCH   4  14
HETATM   14  C5          0      57.375  45.808 -11.628  1.00  0.00     0.025 C 
HETATM   15  C6          0      57.279  46.632 -12.740  1.00  0.00     0.004 C 
HETATM   16  C7          0      56.937  47.964 -12.528  1.00  0.00     0.026 C 
HETATM   17  C8          0      56.825  48.493 -11.247  1.00  0.00     0.112 C 
HETATM   18  C10         0      57.534  47.805 -10.271  1.00  0.00     0.112 C 
HETATM   19  C12         0      57.789  46.453 -10.470  1.00  0.00     0.028 C 
BRANCH  17  20
HETATM   20  O9          0      55.907  49.490 -10.970  1.00  0.00    -0.357 OA
HETATM   21  H9          0      55.677  49.766 -10.090  1.00  0.00     0.218 HD
ENDBRANCH  17  20
BRANCH  18  22
HETATM   22  O11         0      57.611  48.394  -9.018  1.00  0.00    -0.357 OA
HETATM   23  H11         0      57.688  49.341  -8.991  1.00  0.00     0.218 HD
ENDBRANCH  18  22
ENDBRANCH   4  14
BRANCH   8  24
HETATM   24  O17         0      52.249  42.212  -9.118  1.00  0.00    -0.359 OA
HETATM   25  H17         0      51.856  43.070  -9.008  1.00  0.00     0.218 HD
ENDBRANCH   8  24
TORSDOF 5
ENDMDL
MODEL 8
REMARK VINA RESULT:      -5.6      3.490      6.984
REMARK  5 active torsions:
REMARK  status: ('A' for Active; 'I' for Inactive)
REMARK    1  A    between atoms: C4_4  and  C5_5 
REMARK    2  A    between atoms: C8_8  and  O9_9 
REMARK    3  A    between atoms: C10_11  and  O11_12 
REMARK    4  A    between atoms: C16_18  and  O17_19 
REMARK    5  A    between atoms: C19_22  and  O20_23 
ROOT
HETATM    1  O1          0      55.401  39.431 -13.615  1.00  0.00    -0.286 OA
HETATM    2  C2          0      55.308  39.449 -12.357  1.00  0.00     0.201 C 
HETATM    3  C3          0      55.856  38.467 -11.550  1.00  0.00     0.067 C 
HETATM    4  C4          0      55.652  38.456 -10.175  1.00  0.00     0.103 C 
HETATM    5  O13         0      54.934  39.424  -9.632  1.00  0.00    -0.307 OA
HETATM    6  C14         0      54.360  40.359 -10.357  1.00  0.00     0.107 C 
HETATM    7  C15         0      53.306  41.118  -9.869  1.00  0.00     0.049 C 
HETATM    8  C16         0      52.543  41.919 -10.711  1.00  0.00     0.093 C 
HETATM    9  C18         0      53.184  42.325 -11.875  1.00  0.00     0.048 C 
HETATM   10  C19         0      54.272  41.615 -12.366  1.00  0.00     0.096 C 
HETATM   11  C21         0      54.727  40.516 -11.689  1.00  0.00     0.084 C 
ENDROOT
BRANCH  10  12
HETATM   12  O20         0      54.621  41.746 -13.707  1.00  0.00    -0.359 OA
HETATM   13  H20         0      55.499  42.044 -13.911  1.00  0.00     0.218 HD
ENDBRANCH  10  12
BRANCH   4  14
HETATM   14  C5          0      55.713  37.159  -9.499  1.00  0.00     0.025 C 
HETATM   15  C6          0      54.644  36.276  -9.469  1.00  0.00     0.004 C 
HETATM   16  C7          0      54.926  34.918  -9.579  1.00  0.00     0.026 C 
HETATM   17  C8          0      56.234  34.443  -9.583  1.00  0.00     0.112 C 
HETATM   18  C10         0      57.159  35.288  -8.987  1.00  0.00     0.112 C 
HETATM   19  C12         0      56.891  36.652  -8.966  1.00  0.00     0.028 C 
BRANCH  17  20
HETATM   20  O9          0      56.578  33.322 -10.317  1.00  0.00    -0.357 OA
HETATM   21  H9          0      56.079  32.513 -10.310  1.00  0.00     0.218 HD
ENDBRANCH  17  20
BRANCH  18  22
HETATM   22  O11         0      58.438  34.785  -8.795  1.00  0.00    -0.357 OA
HETATM   23  H11         0      59.126  35.136  -9.349  1.00  0.00     0.218 HD
ENDBRANCH  18  22
ENDBRANCH   4  14
BRANCH   8  24
HETATM   24  O17         0      51.155  42.018 -10.563  1.00  0.00    -0.359 OA
HETATM   25  H17         0      50.716  41.728  -9.772  1.00  0.00     0.218 HD
ENDBRANCH   8  24
TORSDOF 5
ENDMDL
MODEL 9
REMARK VINA RESULT:      -5.3      2.963      3.996
REMARK  5 active torsions:
REMARK  status: ('A' for Active; 'I' for Inactive)
REMARK    1  A    between atoms: C4_4  and  C5_5 
REMARK    2  A    between atoms: C8_8  and  O9_9 
REMARK    3  A    between atoms: C10_11  and  O11_12 
REMARK    4  A    between atoms: C16_18  and  O17_19 
REMARK    5  A    between atoms: C19_22  and  O20_23 
ROOT
HETATM    1  O1          0      55.182  36.656 -13.120  1.00  0.00    -0.286 OA
HETATM    2  C2          0      55.207  37.117 -11.946  1.00  0.00     0.201 C 
HETATM    3  C3          0      54.744  38.382 -11.627  1.00  0.00     0.067 C 
HETATM    4  C4          0      54.876  38.905 -10.345  1.00  0.00     0.103 C 
HETATM    5  O13         0      55.442  38.160  -9.412  1.00  0.00    -0.307 OA
HETATM    6  C14         0      55.932  36.968  -9.670  1.00  0.00     0.107 C 
HETATM    7  C15         0      56.858  36.361  -8.834  1.00  0.00     0.049 C 
HETATM    8  C16         0      57.558  35.229  -9.234  1.00  0.00     0.093 C 
HETATM    9  C18         0      56.933  34.467 -10.212  1.00  0.00     0.048 C 
HETATM   10  C19         0      55.968  35.030 -11.036  1.00  0.00     0.096 C 
HETATM   11  C21         0      55.617  36.343 -10.872  1.00  0.00     0.084 C 
ENDROOT
BRANCH  10  12
HETATM   12  O20         0      55.674  34.424 -12.254  1.00  0.00    -0.359 OA
HETATM   13  H20         0      55.061  33.699 -12.254  1.00  0.00     0.218 HD
ENDBRANCH  10  12
BRANCH   4  14
HETATM   14  C5          0      54.941  40.362 -10.220  1.00  0.00     0.025 C 
HETATM   15  C6          0      56.091  41.090 -10.492  1.00  0.00     0.004 C 
HETATM   16  C7          0      55.940  42.320 -11.123  1.00  0.00     0.026 C 
HETATM   17  C8          0      54.685  42.872 -11.357  1.00  0.00     0.112 C 
HETATM   18  C10         0      53.682  42.407 -10.516  1.00  0.00     0.112 C 
HETATM   19  C12         0      53.818  41.138  -9.965  1.00  0.00     0.028 C 
BRANCH  17  20
HETATM   20  O9          0      54.449  43.651 -12.475  1.00  0.00    -0.357 OA
HETATM   21  H9          0      53.867  44.402 -12.483  1.00  0.00     0.218 HD
ENDBRANCH  17  20
BRANCH  18  22
HETATM   22  O11         0      52.458  43.058 -10.578  1.00  0.00    -0.357 OA
HETATM   23  H11         0      51.790  42.665 -11.128  1.00  0.00     0.218 HD
ENDBRANCH  18  22
ENDBRANCH   4  14
BRANCH   8  24
HETATM   24  O17         0      58.914  35.065  -8.928  1.00  0.00    -0.359 OA
HETATM   25  H17         0      59.432  35.772  -8.562  1.00  0.00     0.218 HD
ENDBRANCH   8  24
TORSDOF 5
ENDMDL
