MODEL 1
REMARK VINA RESULT:      -5.1      0.000      0.000
REMARK  5 active torsions:
REMARK  status: ('A' for Active; 'I' for Inactive)
REMARK    1  A    between atoms: C4_4  and  C5_5 
REMARK    2  A    between atoms: C8_8  and  O9_9 
REMARK    3  A    between atoms: C10_11  and  O11_12 
REMARK    4  A    between atoms: C16_18  and  O17_19 
REMARK    5  A    between atoms: C19_22  and  O20_23 
ROOT
HETATM    1  O1          0      63.057  88.639 -29.990  1.00  0.00    -0.286 OA
HETATM    2  C2          0      64.191  89.179 -29.864  1.00  0.00     0.201 C 
HETATM    3  C3          0      64.485  90.435 -30.366  1.00  0.00     0.067 C 
HETATM    4  C4          0      65.769  90.963 -30.304  1.00  0.00     0.103 C 
HETATM    5  O13         0      66.722  90.248 -29.730  1.00  0.00    -0.307 OA
HETATM    6  C14         0      66.505  89.035 -29.270  1.00  0.00     0.107 C 
HETATM    7  C15         0      67.543  88.144 -29.043  1.00  0.00     0.049 C 
HETATM    8  C16         0      67.299  86.796 -28.805  1.00  0.00     0.093 C 
HETATM    9  C18         0      66.040  86.510 -28.291  1.00  0.00     0.048 C 
HETATM   10  C19         0      64.989  87.402 -28.460  1.00  0.00     0.096 C 
HETATM   11  C21         0      65.199  88.580 -29.123  1.00  0.00     0.084 C 
ENDROOT
BRANCH  10  12
HETATM   12  O20         0      63.681  86.942 -28.345  1.00  0.00    -0.359 OA
HETATM   13  H20         0      63.112  87.372 -27.717  1.00  0.00     0.218 HD
ENDBRANCH  10  12
BRANCH   4  14
HETATM   14  C5          0      66.142  91.942 -31.326  1.00  0.00     0.025 C 
HETATM   15  C6          0      67.425  92.037 -31.844  1.00  0.00     0.004 C 
HETATM   16  C7          0      67.553  92.310 -33.202  1.00  0.00     0.026 C 
HETATM   17  C8          0      66.450  92.612 -33.993  1.00  0.00     0.112 C 
HETATM   18  C10         0      65.355  93.105 -33.296  1.00  0.00     0.112 C 
HETATM   19  C12         0      65.205  92.747 -31.962  1.00  0.00     0.028 C 
BRANCH  17  20
HETATM   20  O9          0      66.408  92.238 -35.324  1.00  0.00    -0.357 OA
HETATM   21  H9          0      65.626  92.289 -35.863  1.00  0.00     0.218 HD
ENDBRANCH  17  20
BRANCH  18  22
HETATM   22  O11         0      64.300  93.598 -34.051  1.00  0.00    -0.357 OA
HETATM   23  H11         0      64.523  94.086 -34.835  1.00  0.00     0.218 HD
ENDBRANCH  18  22
ENDBRANCH   4  14
BRANCH   8  24
HETATM   24  O17         0      68.114  85.800 -29.353  1.00  0.00    -0.359 OA
HETATM   25  H17         0      68.085  84.903 -29.040  1.00  0.00     0.218 HD
ENDBRANCH   8  24
TORSDOF 5
ENDMDL
MODEL 2
REMARK VINA RESULT:      -4.8      3.046      5.320
REMARK  5 active torsions:
REMARK  status: ('A' for Active; 'I' for Inactive)
REMARK    1  A    between atoms: C4_4  and  C5_5 
REMARK    2  A    between atoms: C8_8  and  O9_9 
REMARK    3  A    between atoms: C10_11  and  O11_12 
REMARK    4  A    between atoms: C16_18  and  O17_19 
REMARK    5  A    between atoms: C19_22  and  O20_23 
ROOT
HETATM    1  O1          0      64.781  86.101 -26.131  1.00  0.00    -0.286 OA
HETATM    2  C2          0      64.004  86.733 -26.898  1.00  0.00     0.201 C 
HETATM    3  C3          0      64.400  87.218 -28.133  1.00  0.00     0.067 C 
HETATM    4  C4          0      63.555  87.999 -28.914  1.00  0.00     0.103 C 
HETATM    5  O13         0      62.340  88.261 -28.467  1.00  0.00    -0.307 OA
HETATM    6  C14         0      61.927  87.856 -27.286  1.00  0.00     0.107 C 
HETATM    7  C15         0      60.843  88.443 -26.650  1.00  0.00     0.049 C 
HETATM    8  C16         0      60.569  88.193 -25.311  1.00  0.00     0.093 C 
HETATM    9  C18         0      61.062  86.987 -24.827  1.00  0.00     0.048 C 
HETATM   10  C19         0      62.116  86.348 -25.466  1.00  0.00     0.096 C 
HETATM   11  C21         0      62.662  86.901 -26.592  1.00  0.00     0.084 C 
ENDROOT
BRANCH  10  12
HETATM   12  O20         0      62.873  85.416 -24.764  1.00  0.00    -0.359 OA
HETATM   13  H20         0      63.809  85.392 -24.923  1.00  0.00     0.218 HD
ENDBRANCH  10  12
BRANCH   4  14
HETATM   14  C5          0      64.182  88.939 -29.845  1.00  0.00     0.025 C 
HETATM   15  C6          0      63.517  90.042 -30.361  1.00  0.00     0.004 C 
HETATM   16  C7          0      64.243  91.219 -30.513  1.00  0.00     0.026 C 
HETATM   17  C8          0      65.614  91.265 -30.287  1.00  0.00     0.112 C 
HETATM   18  C10         0      66.262  90.042 -30.402  1.00  0.00     0.112 C 
HETATM   19  C12         0      65.533  88.884 -30.161  1.00  0.00     0.028 C 
BRANCH  17  20
HETATM   20  O9          0      66.212  92.407 -29.783  1.00  0.00    -0.357 OA
HETATM   21  H9          0      67.013  92.781 -30.132  1.00  0.00     0.218 HD
ENDBRANCH  17  20
BRANCH  18  22
HETATM   22  O11         0      67.649  90.061 -30.374  1.00  0.00    -0.357 OA
HETATM   23  H11         0      68.058  90.549 -29.668  1.00  0.00     0.218 HD
ENDBRANCH  18  22
ENDBRANCH   4  14
BRANCH   8  24
HETATM   24  O17         0      60.138  89.210 -24.451  1.00  0.00    -0.359 OA
HETATM   25  H17         0      60.228  89.138 -23.509  1.00  0.00     0.218 HD
ENDBRANCH   8  24
TORSDOF 5
ENDMDL
MODEL 3
REMARK VINA RESULT:      -4.7      1.739      6.809
REMARK  5 active torsions:
REMARK  status: ('A' for Active; 'I' for Inactive)
REMARK    1  A    between atoms: C4_4  and  C5_5 
REMARK    2  A    between atoms: C8_8  and  O9_9 
REMARK    3  A    between atoms: C10_11  and  O11_12 
REMARK    4  A    between atoms: C16_18  and  O17_19 
REMARK    5  A    between atoms: C19_22  and  O20_23 
ROOT
HETATM    1  O1          0      69.058  91.554 -31.891  1.00  0.00    -0.286 OA
HETATM    2  C2          0      67.847  91.547 -31.536  1.00  0.00     0.201 C 
HETATM    3  C3          0      67.319  90.588 -30.689  1.00  0.00     0.067 C 
HETATM    4  C4          0      65.961  90.543 -30.396  1.00  0.00     0.103 C 
HETATM    5  O13         0      65.166  91.455 -30.928  1.00  0.00    -0.307 OA
HETATM    6  C14         0      65.610  92.364 -31.767  1.00  0.00     0.107 C 
HETATM    7  C15         0      64.757  93.049 -32.621  1.00  0.00     0.049 C 
HETATM    8  C16         0      65.248  93.813 -33.672  1.00  0.00     0.093 C 
HETATM    9  C18         0      66.548  94.277 -33.504  1.00  0.00     0.048 C 
HETATM   10  C19         0      67.413  93.644 -32.622  1.00  0.00     0.096 C 
HETATM   11  C21         0      66.979  92.565 -31.901  1.00  0.00     0.084 C 
ENDROOT
BRANCH  10  12
HETATM   12  O20         0      68.786  93.817 -32.774  1.00  0.00    -0.359 OA
HETATM   13  H20         0      69.093  94.640 -33.135  1.00  0.00     0.218 HD
ENDBRANCH  10  12
BRANCH   4  14
HETATM   14  C5          0      65.396  89.242 -30.033  1.00  0.00     0.025 C 
HETATM   15  C6          0      66.151  88.228 -29.461  1.00  0.00     0.004 C 
HETATM   16  C7          0      65.549  87.455 -28.473  1.00  0.00     0.026 C 
HETATM   17  C8          0      64.202  87.595 -28.158  1.00  0.00     0.112 C 
HETATM   18  C10         0      63.423  88.140 -29.170  1.00  0.00     0.112 C 
HETATM   19  C12         0      64.034  88.978 -30.095  1.00  0.00     0.028 C 
BRANCH  17  20
HETATM   20  O9          0      63.753  87.398 -26.864  1.00  0.00    -0.357 OA
HETATM   21  H9          0      62.964  87.795 -26.512  1.00  0.00     0.218 HD
ENDBRANCH  17  20
BRANCH  18  22
HETATM   22  O11         0      62.048  88.127 -28.981  1.00  0.00    -0.357 OA
HETATM   23  H11         0      61.522  88.597 -29.617  1.00  0.00     0.218 HD
ENDBRANCH  18  22
ENDBRANCH   4  14
BRANCH   8  24
HETATM   24  O17         0      64.620  93.824 -34.922  1.00  0.00    -0.359 OA
HETATM   25  H17         0      64.921  94.385 -35.627  1.00  0.00     0.218 HD
ENDBRANCH   8  24
TORSDOF 5
ENDMDL
MODEL 4
REMARK VINA RESULT:      -4.5      3.312      7.548
REMARK  5 active torsions:
REMARK  status: ('A' for Active; 'I' for Inactive)
REMARK    1  A    between atoms: C4_4  and  C5_5 
REMARK    2  A    between atoms: C8_8  and  O9_9 
REMARK    3  A    between atoms: C10_11  and  O11_12 
REMARK    4  A    between atoms: C16_18  and  O17_19 
REMARK    5  A    between atoms: C19_22  and  O20_23 
ROOT
HETATM    1  O1          0      62.828  91.873 -27.446  1.00  0.00    -0.286 OA
HETATM    2  C2          0      62.927  90.707 -27.920  1.00  0.00     0.201 C 
HETATM    3  C3          0      62.280  89.615 -27.367  1.00  0.00     0.067 C 
HETATM    4  C4          0      62.488  88.327 -27.845  1.00  0.00     0.103 C 
HETATM    5  O13         0      63.309  88.153 -28.866  1.00  0.00    -0.307 OA
HETATM    6  C14         0      63.977  89.151 -29.403  1.00  0.00     0.107 C 
HETATM    7  C15         0      65.109  88.940 -30.177  1.00  0.00     0.049 C 
HETATM    8  C16         0      65.950  89.989 -30.527  1.00  0.00     0.093 C 
HETATM    9  C18         0      65.351  91.243 -30.536  1.00  0.00     0.048 C 
HETATM   10  C19         0      64.192  91.476 -29.810  1.00  0.00     0.096 C 
HETATM   11  C21         0      63.624  90.459 -29.093  1.00  0.00     0.084 C 
ENDROOT
BRANCH  10  12
HETATM   12  O20         0      63.853  92.783 -29.471  1.00  0.00    -0.359 OA
HETATM   13  H20         0      63.872  93.023 -28.552  1.00  0.00     0.218 HD
ENDBRANCH  10  12
BRANCH   4  14
HETATM   14  C5          0      62.291  87.223 -26.904  1.00  0.00     0.025 C 
HETATM   15  C6          0      63.241  86.234 -26.695  1.00  0.00     0.004 C 
HETATM   16  C7          0      63.411  85.768 -25.395  1.00  0.00     0.026 C 
HETATM   17  C8          0      62.575  86.172 -24.360  1.00  0.00     0.112 C 
HETATM   18  C10         0      61.328  86.626 -24.766  1.00  0.00     0.112 C 
HETATM   19  C12         0      61.204  87.166 -26.041  1.00  0.00     0.028 C 
BRANCH  17  20
HETATM   20  O9          0      63.057  86.300 -23.069  1.00  0.00    -0.357 OA
HETATM   21  H9          0      63.874  85.918 -22.770  1.00  0.00     0.218 HD
ENDBRANCH  17  20
BRANCH  18  22
HETATM   22  O11         0      60.390  86.863 -23.771  1.00  0.00    -0.357 OA
HETATM   23  H11         0      60.337  87.749 -23.432  1.00  0.00     0.218 HD
ENDBRANCH  18  22
ENDBRANCH   4  14
BRANCH   8  24
HETATM   24  O17         0      67.341  89.838 -30.532  1.00  0.00    -0.359 OA
HETATM   25  H17         0      67.842  89.794 -29.726  1.00  0.00     0.218 HD
ENDBRANCH   8  24
TORSDOF 5
ENDMDL
MODEL 5
REMARK VINA RESULT:      -4.5      1.887      2.808
REMARK  5 active torsions:
REMARK  status: ('A' for Active; 'I' for Inactive)
REMARK    1  A    between atoms: C4_4  and  C5_5 
REMARK    2  A    between atoms: C8_8  and  O9_9 
REMARK    3  A    between atoms: C10_11  and  O11_12 
REMARK    4  A    between atoms: C16_18  and  O17_19 
REMARK    5  A    between atoms: C19_22  and  O20_23 
ROOT
HETATM    1  O1          0      66.029  92.402 -27.504  1.00  0.00    -0.286 OA
HETATM    2  C2          0      66.205  91.695 -28.535  1.00  0.00     0.201 C 
HETATM    3  C3          0      66.923  92.136 -29.633  1.00  0.00     0.067 C 
HETATM    4  C4          0      67.015  91.379 -30.795  1.00  0.00     0.103 C 
HETATM    5  O13         0      66.416  90.202 -30.835  1.00  0.00    -0.307 OA
HETATM    6  C14         0      65.691  89.753 -29.834  1.00  0.00     0.107 C 
HETATM    7  C15         0      64.755  88.743 -30.005  1.00  0.00     0.049 C 
HETATM    8  C16         0      63.821  88.450 -29.018  1.00  0.00     0.093 C 
HETATM    9  C18         0      64.196  88.810 -27.730  1.00  0.00     0.048 C 
HETATM   10  C19         0      65.164  89.784 -27.523  1.00  0.00     0.096 C 
HETATM   11  C21         0      65.765  90.382 -28.596  1.00  0.00     0.084 C 
ENDROOT
BRANCH  10  12
HETATM   12  O20         0      65.220  90.437 -26.296  1.00  0.00    -0.359 OA
HETATM   13  H20         0      65.347  91.378 -26.298  1.00  0.00     0.218 HD
ENDBRANCH  10  12
BRANCH   4  14
HETATM   14  C5          0      67.234  92.101 -32.050  1.00  0.00     0.025 C 
HETATM   15  C6          0      68.383  91.952 -32.813  1.00  0.00     0.004 C 
HETATM   16  C7          0      68.242  91.949 -34.197  1.00  0.00     0.026 C 
HETATM   17  C8          0      67.021  92.219 -34.806  1.00  0.00     0.112 C 
HETATM   18  C10         0      66.136  92.954 -34.030  1.00  0.00     0.112 C 
HETATM   19  C12         0      66.245  92.872 -32.647  1.00  0.00     0.028 C 
BRANCH  17  20
HETATM   20  O9          0      66.674  91.609 -35.999  1.00  0.00    -0.357 OA
HETATM   21  H9          0      67.295  91.408 -36.690  1.00  0.00     0.218 HD
ENDBRANCH  17  20
BRANCH  18  22
HETATM   22  O11         0      64.984  93.412 -34.654  1.00  0.00    -0.357 OA
HETATM   23  H11         0      64.218  92.851 -34.608  1.00  0.00     0.218 HD
ENDBRANCH  18  22
ENDBRANCH   4  14
BRANCH   8  24
HETATM   24  O17         0      62.495  88.138 -29.339  1.00  0.00    -0.359 OA
HETATM   25  H17         0      62.247  87.844 -30.207  1.00  0.00     0.218 HD
ENDBRANCH   8  24
TORSDOF 5
ENDMDL
MODEL 6
REMARK VINA RESULT:      -4.2      5.163      9.707
REMARK  5 active torsions:
REMARK  status: ('A' for Active; 'I' for Inactive)
REMARK    1  A    between atoms: C4_4  and  C5_5 
REMARK    2  A    between atoms: C8_8  and  O9_9 
REMARK    3  A    between atoms: C10_11  and  O11_12 
REMARK    4  A    between atoms: C16_18  and  O17_19 
REMARK    5  A    between atoms: C19_22  and  O20_23 
ROOT
HETATM    1  O1          0      61.094  88.114 -27.271  1.00  0.00    -0.286 OA
HETATM    2  C2          0      61.925  87.333 -26.731  1.00  0.00     0.201 C 
HETATM    3  C3          0      61.630  86.587 -25.602  1.00  0.00     0.067 C 
HETATM    4  C4          0      62.595  85.813 -24.967  1.00  0.00     0.103 C 
HETATM    5  O13         0      63.815  85.780 -25.473  1.00  0.00    -0.307 OA
HETATM    6  C14         0      64.158  86.498 -26.520  1.00  0.00     0.107 C 
HETATM    7  C15         0      65.485  86.781 -26.810  1.00  0.00     0.049 C 
HETATM    8  C16         0      65.829  87.739 -27.756  1.00  0.00     0.093 C 
HETATM    9  C18         0      64.861  87.982 -28.723  1.00  0.00     0.048 C 
HETATM   10  C19         0      63.530  87.668 -28.485  1.00  0.00     0.096 C 
HETATM   11  C21         0      63.170  87.098 -27.294  1.00  0.00     0.084 C 
ENDROOT
BRANCH  10  12
HETATM   12  O20         0      62.538  88.291 -29.236  1.00  0.00    -0.359 OA
HETATM   13  H20         0      61.667  88.348 -28.863  1.00  0.00     0.218 HD
ENDBRANCH  10  12
BRANCH   4  14
HETATM   14  C5          0      62.419  85.565 -23.536  1.00  0.00     0.025 C 
HETATM   15  C6          0      61.231  85.825 -22.868  1.00  0.00     0.004 C 
HETATM   16  C7          0      60.834  84.926 -21.883  1.00  0.00     0.026 C 
HETATM   17  C8          0      61.654  83.877 -21.481  1.00  0.00     0.112 C 
HETATM   18  C10         0      63.007  84.072 -21.725  1.00  0.00     0.112 C 
HETATM   19  C12         0      63.375  84.910 -22.770  1.00  0.00     0.028 C 
BRANCH  17  20
HETATM   20  O9          0      61.112  82.671 -21.073  1.00  0.00    -0.357 OA
HETATM   21  H9          0      60.182  82.476 -21.093  1.00  0.00     0.218 HD
ENDBRANCH  17  20
BRANCH  18  22
HETATM   22  O11         0      63.884  83.147 -21.176  1.00  0.00    -0.357 OA
HETATM   23  H11         0      63.500  82.369 -20.786  1.00  0.00     0.218 HD
ENDBRANCH  18  22
ENDBRANCH   4  14
BRANCH   8  24
HETATM   24  O17         0      66.900  88.616 -27.550  1.00  0.00    -0.359 OA
HETATM   25  H17         0      67.128  89.283 -28.187  1.00  0.00     0.218 HD
ENDBRANCH   8  24
TORSDOF 5
ENDMDL
MODEL 7
REMARK VINA RESULT:      -4.2      2.241      3.390
REMARK  5 active torsions:
REMARK  status: ('A' for Active; 'I' for Inactive)
REMARK    1  A    between atoms: C4_4  and  C5_5 
REMARK    2  A    between atoms: C8_8  and  O9_9 
REMARK    3  A    between atoms: C10_11  and  O11_12 
REMARK    4  A    between atoms: C16_18  and  O17_19 
REMARK    5  A    between atoms: C19_22  and  O20_23 
ROOT
HETATM    1  O1          0      64.828  87.406 -28.929  1.00  0.00    -0.286 OA
HETATM    2  C2          0      64.329  88.545 -29.147  1.00  0.00     0.201 C 
HETATM    3  C3          0      64.721  89.346 -30.205  1.00  0.00     0.067 C 
HETATM    4  C4          0      64.230  90.637 -30.363  1.00  0.00     0.103 C 
HETATM    5  O13         0      63.354  91.094 -29.486  1.00  0.00    -0.307 OA
HETATM    6  C14         0      62.976  90.389 -28.442  1.00  0.00     0.107 C 
HETATM    7  C15         0      62.392  90.982 -27.332  1.00  0.00     0.049 C 
HETATM    8  C16         0      62.231  90.283 -26.142  1.00  0.00     0.093 C 
HETATM    9  C18         0      62.175  88.901 -26.276  1.00  0.00     0.048 C 
HETATM   10  C19         0      62.708  88.278 -27.396  1.00  0.00     0.096 C 
HETATM   11  C21         0      63.279  89.033 -28.385  1.00  0.00     0.084 C 
ENDROOT
BRANCH  10  12
HETATM   12  O20         0      63.041  86.929 -27.331  1.00  0.00    -0.359 OA
HETATM   13  H20         0      63.200  86.550 -26.475  1.00  0.00     0.218 HD
ENDBRANCH  10  12
BRANCH   4  14
HETATM   14  C5          0      65.079  91.594 -31.075  1.00  0.00     0.025 C 
HETATM   15  C6          0      66.455  91.447 -31.179  1.00  0.00     0.004 C 
HETATM   16  C7          0      67.051  91.801 -32.385  1.00  0.00     0.026 C 
HETATM   17  C8          0      66.328  92.406 -33.407  1.00  0.00     0.112 C 
HETATM   18  C10         0      65.180  93.068 -32.991  1.00  0.00     0.112 C 
HETATM   19  C12         0      64.555  92.638 -31.827  1.00  0.00     0.028 C 
BRANCH  17  20
HETATM   20  O9          0      66.639  92.166 -34.734  1.00  0.00    -0.357 OA
HETATM   21  H9          0      67.525  92.045 -35.055  1.00  0.00     0.218 HD
ENDBRANCH  17  20
BRANCH  18  22
HETATM   22  O11         0      64.525  93.844 -33.937  1.00  0.00    -0.357 OA
HETATM   23  H11         0      65.056  94.460 -34.429  1.00  0.00     0.218 HD
ENDBRANCH  18  22
ENDBRANCH   4  14
BRANCH   8  24
HETATM   24  O17         0      62.449  90.894 -24.902  1.00  0.00    -0.359 OA
HETATM   25  H17         0      62.735  91.797 -24.834  1.00  0.00     0.218 HD
ENDBRANCH   8  24
TORSDOF 5
ENDMDL
MODEL 8
REMARK VINA RESULT:      -4.2      2.560      4.004
REMARK  5 active torsions:
REMARK  status: ('A' for Active; 'I' for Inactive)
REMARK    1  A    between atoms: C4_4  and  C5_5 
REMARK    2  A    between atoms: C8_8  and  O9_9 
REMARK    3  A    between atoms: C10_11  and  O11_12 
REMARK    4  A    between atoms: C16_18  and  O17_19 
REMARK    5  A    between atoms: C19_22  and  O20_23 
ROOT
HETATM    1  O1          0      63.609  94.260 -29.954  1.00  0.00    -0.286 OA
HETATM    2  C2          0      64.376  93.376 -30.425  1.00  0.00     0.201 C 
HETATM    3  C3          0      65.216  93.608 -31.501  1.00  0.00     0.067 C 
HETATM    4  C4          0      65.974  92.589 -32.066  1.00  0.00     0.103 C 
HETATM    5  O13         0      65.900  91.378 -31.543  1.00  0.00    -0.307 OA
HETATM    6  C14         0      65.090  91.095 -30.546  1.00  0.00     0.107 C 
HETATM    7  C15         0      64.709  89.792 -30.261  1.00  0.00     0.049 C 
HETATM    8  C16         0      63.668  89.521 -29.382  1.00  0.00     0.093 C 
HETATM    9  C18         0      63.414  90.517 -28.447  1.00  0.00     0.048 C 
HETATM   10  C19         0      63.823  91.823 -28.680  1.00  0.00     0.096 C 
HETATM   11  C21         0      64.496  92.129 -29.831  1.00  0.00     0.084 C 
ENDROOT
BRANCH  10  12
HETATM   12  O20         0      63.207  92.862 -27.988  1.00  0.00    -0.359 OA
HETATM   13  H20         0      63.380  92.941 -27.058  1.00  0.00     0.218 HD
ENDBRANCH  10  12
BRANCH   4  14
HETATM   14  C5          0      66.334  92.726 -33.479  1.00  0.00     0.025 C 
HETATM   15  C6          0      65.961  93.819 -34.247  1.00  0.00     0.004 C 
HETATM   16  C7          0      66.881  94.302 -35.172  1.00  0.00     0.026 C 
HETATM   17  C8          0      68.079  93.641 -35.421  1.00  0.00     0.112 C 
HETATM   18  C10         0      68.073  92.289 -35.103  1.00  0.00     0.112 C 
HETATM   19  C12         0      67.202  91.848 -34.114  1.00  0.00     0.028 C 
BRANCH  17  20
HETATM   20  O9          0      69.222  94.346 -35.755  1.00  0.00    -0.357 OA
HETATM   21  H9          0      69.273  94.954 -36.484  1.00  0.00     0.218 HD
ENDBRANCH  17  20
BRANCH  18  22
HETATM   22  O11         0      69.172  91.544 -35.505  1.00  0.00    -0.357 OA
HETATM   23  H11         0      69.043  90.943 -36.230  1.00  0.00     0.218 HD
ENDBRANCH  18  22
ENDBRANCH   4  14
BRANCH   8  24
HETATM   24  O17         0      62.746  88.498 -29.636  1.00  0.00    -0.359 OA
HETATM   25  H17         0      62.735  87.698 -29.124  1.00  0.00     0.218 HD
ENDBRANCH   8  24
TORSDOF 5
ENDMDL
MODEL 9
REMARK VINA RESULT:      -4.2      3.498      8.014
REMARK  5 active torsions:
REMARK  status: ('A' for Active; 'I' for Inactive)
REMARK    1  A    between atoms: C4_4  and  C5_5 
REMARK    2  A    between atoms: C8_8  and  O9_9 
REMARK    3  A    between atoms: C10_11  and  O11_12 
REMARK    4  A    between atoms: C16_18  and  O17_19 
REMARK    5  A    between atoms: C19_22  and  O20_23 
ROOT
HETATM    1  O1          0      62.201  89.751 -27.815  1.00  0.00    -0.286 OA
HETATM    2  C2          0      62.931  88.723 -27.834  1.00  0.00     0.201 C 
HETATM    3  C3          0      62.770  87.671 -26.948  1.00  0.00     0.067 C 
HETATM    4  C4          0      63.652  86.597 -26.924  1.00  0.00     0.103 C 
HETATM    5  O13         0      64.654  86.579 -27.786  1.00  0.00    -0.307 OA
HETATM    6  C14         0      64.874  87.569 -28.623  1.00  0.00     0.107 C 
HETATM    7  C15         0      66.108  87.752 -29.230  1.00  0.00     0.049 C 
HETATM    8  C16         0      66.413  88.928 -29.905  1.00  0.00     0.093 C 
HETATM    9  C18         0      65.315  89.631 -30.385  1.00  0.00     0.048 C 
HETATM   10  C19         0      64.057  89.438 -29.831  1.00  0.00     0.096 C 
HETATM   11  C21         0      63.893  88.535 -28.815  1.00  0.00     0.084 C 
ENDROOT
BRANCH  10  12
HETATM   12  O20         0      63.083  90.418 -29.995  1.00  0.00    -0.359 OA
HETATM   13  H20         0      62.268  90.321 -29.518  1.00  0.00     0.218 HD
ENDBRANCH  10  12
BRANCH   4  14
HETATM   14  C5          0      63.800  85.880 -25.656  1.00  0.00     0.025 C 
HETATM   15  C6          0      64.972  85.900 -24.913  1.00  0.00     0.004 C 
HETATM   16  C7          0      64.855  85.949 -23.528  1.00  0.00     0.026 C 
HETATM   17  C8          0      63.621  85.847 -22.895  1.00  0.00     0.112 C 
HETATM   18  C10         0      62.638  85.212 -23.642  1.00  0.00     0.112 C 
HETATM   19  C12         0      62.733  85.250 -25.028  1.00  0.00     0.028 C 
BRANCH  17  20
HETATM   20  O9          0      63.372  86.521 -21.713  1.00  0.00    -0.357 OA
HETATM   21  H9          0      62.718  86.251 -21.079  1.00  0.00     0.218 HD
ENDBRANCH  17  20
BRANCH  18  22
HETATM   22  O11         0      61.448  84.915 -22.992  1.00  0.00    -0.357 OA
HETATM   23  H11         0      60.704  84.690 -23.539  1.00  0.00     0.218 HD
ENDBRANCH  18  22
ENDBRANCH   4  14
BRANCH   8  24
HETATM   24  O17         0      67.679  89.516 -29.808  1.00  0.00    -0.359 OA
HETATM   25  H17         0      67.983  89.917 -29.003  1.00  0.00     0.218 HD
ENDBRANCH   8  24
TORSDOF 5
ENDMDL
