MODEL 1
REMARK VINA RESULT:      -4.2      0.000      0.000
REMARK  5 active torsions:
REMARK  status: ('A' for Active; 'I' for Inactive)
REMARK    1  A    between atoms: C4_4  and  C5_5 
REMARK    2  A    between atoms: C8_8  and  O9_9 
REMARK    3  A    between atoms: C10_11  and  O11_12 
REMARK    4  A    between atoms: C16_18  and  O17_19 
REMARK    5  A    between atoms: C19_22  and  O20_23 
ROOT
HETATM    1  O1          0      45.503 115.744   5.391  1.00  0.00    -0.286 OA
HETATM    2  C2          0      45.043 116.917   5.442  1.00  0.00     0.201 C 
HETATM    3  C3          0      44.628 117.510   6.622  1.00  0.00     0.067 C 
HETATM    4  C4          0      44.030 118.765   6.636  1.00  0.00     0.103 C 
HETATM    5  O13         0      43.875 119.407   5.492  1.00  0.00    -0.307 OA
HETATM    6  C14         0      44.217 118.874   4.340  1.00  0.00     0.107 C 
HETATM    7  C15         0      43.708 119.345   3.137  1.00  0.00     0.049 C 
HETATM    8  C16         0      43.866 118.628   1.957  1.00  0.00     0.093 C 
HETATM    9  C18         0      44.954 117.764   1.937  1.00  0.00     0.048 C 
HETATM   10  C19         0      45.518 117.311   3.122  1.00  0.00     0.096 C 
HETATM   11  C21         0      45.008 117.731   4.320  1.00  0.00     0.084 C 
ENDROOT
BRANCH  10  12
HETATM   12  O20         0      46.284 116.150   3.110  1.00  0.00    -0.359 OA
HETATM   13  H20         0      47.202 116.219   3.344  1.00  0.00     0.218 HD
ENDBRANCH  10  12
BRANCH   4  14
HETATM   14  C5          0      43.110 119.056   7.738  1.00  0.00     0.025 C 
HETATM   15  C6          0      41.734 118.924   7.623  1.00  0.00     0.004 C 
HETATM   16  C7          0      41.039 118.427   8.721  1.00  0.00     0.026 C 
HETATM   17  C8          0      41.670 118.195   9.939  1.00  0.00     0.112 C 
HETATM   18  C10         0      42.833 118.927  10.138  1.00  0.00     0.112 C 
HETATM   19  C12         0      43.554 119.339   9.023  1.00  0.00     0.028 C 
BRANCH  17  20
HETATM   20  O9          0      41.264 117.160  10.762  1.00  0.00    -0.357 OA
HETATM   21  H9          0      40.603 117.252  11.438  1.00  0.00     0.218 HD
ENDBRANCH  17  20
BRANCH  18  22
HETATM   22  O11         0      43.398 118.878  11.405  1.00  0.00    -0.357 OA
HETATM   23  H11         0      42.806 118.735  12.134  1.00  0.00     0.218 HD
ENDBRANCH  18  22
ENDBRANCH   4  14
BRANCH   8  24
HETATM   24  O17         0      42.833 118.534   1.018  1.00  0.00    -0.359 OA
HETATM   25  H17         0      42.813 117.843   0.366  1.00  0.00     0.218 HD
ENDBRANCH   8  24
TORSDOF 5
ENDMDL
MODEL 2
REMARK VINA RESULT:      -4.2      4.907      7.338
REMARK  5 active torsions:
REMARK  status: ('A' for Active; 'I' for Inactive)
REMARK    1  A    between atoms: C4_4  and  C5_5 
REMARK    2  A    between atoms: C8_8  and  O9_9 
REMARK    3  A    between atoms: C10_11  and  O11_12 
REMARK    4  A    between atoms: C16_18  and  O17_19 
REMARK    5  A    between atoms: C19_22  and  O20_23 
ROOT
HETATM    1  O1          0      43.834 112.679  12.074  1.00  0.00    -0.286 OA
HETATM    2  C2          0      44.536 113.703  11.849  1.00  0.00     0.201 C 
HETATM    3  C3          0      43.996 114.972  11.728  1.00  0.00     0.067 C 
HETATM    4  C4          0      44.778 116.067  11.380  1.00  0.00     0.103 C 
HETATM    5  O13         0      46.071 115.886  11.181  1.00  0.00    -0.307 OA
HETATM    6  C14         0      46.629 114.696  11.246  1.00  0.00     0.107 C 
HETATM    7  C15         0      47.859 114.433  10.662  1.00  0.00     0.049 C 
HETATM    8  C16         0      48.323 113.131  10.512  1.00  0.00     0.093 C 
HETATM    9  C18         0      47.790 112.211  11.407  1.00  0.00     0.048 C 
HETATM   10  C19         0      46.583 112.464  12.045  1.00  0.00     0.096 C 
HETATM   11  C21         0      45.920 113.637  11.802  1.00  0.00     0.084 C 
ENDROOT
BRANCH  10  12
HETATM   12  O20         0      45.858 111.402  12.574  1.00  0.00    -0.359 OA
HETATM   13  H20         0      46.256 110.894  13.270  1.00  0.00     0.218 HD
ENDBRANCH  10  12
BRANCH   4  14
HETATM   14  C5          0      44.109 117.179  10.700  1.00  0.00     0.025 C 
HETATM   15  C6          0      44.485 117.626   9.442  1.00  0.00     0.004 C 
HETATM   16  C7          0      43.475 118.018   8.569  1.00  0.00     0.026 C 
HETATM   17  C8          0      42.147 118.091   8.976  1.00  0.00     0.112 C 
HETATM   18  C10         0      41.968 118.247  10.344  1.00  0.00     0.112 C 
HETATM   19  C12         0      42.955 117.769  11.198  1.00  0.00     0.028 C 
BRANCH  17  20
HETATM   20  O9          0      41.119 117.814   8.093  1.00  0.00    -0.357 OA
HETATM   21  H9          0      41.208 117.858   7.148  1.00  0.00     0.218 HD
ENDBRANCH  17  20
BRANCH  18  22
HETATM   22  O11         0      40.679 118.514  10.783  1.00  0.00    -0.357 OA
HETATM   23  H11         0      40.273 117.866  11.346  1.00  0.00     0.218 HD
ENDBRANCH  18  22
ENDBRANCH   4  14
BRANCH   8  24
HETATM   24  O17         0      48.995 112.726   9.353  1.00  0.00    -0.359 OA
HETATM   25  H17         0      48.697 111.987   8.836  1.00  0.00     0.218 HD
ENDBRANCH   8  24
TORSDOF 5
ENDMDL
MODEL 3
REMARK VINA RESULT:      -4.1      1.647      6.859
REMARK  5 active torsions:
REMARK  status: ('A' for Active; 'I' for Inactive)
REMARK    1  A    between atoms: C4_4  and  C5_5 
REMARK    2  A    between atoms: C8_8  and  O9_9 
REMARK    3  A    between atoms: C10_11  and  O11_12 
REMARK    4  A    between atoms: C16_18  and  O17_19 
REMARK    5  A    between atoms: C19_22  and  O20_23 
ROOT
HETATM    1  O1          0      40.810 119.703   7.196  1.00  0.00    -0.286 OA
HETATM    2  C2          0      42.010 119.328   7.293  1.00  0.00     0.201 C 
HETATM    3  C3          0      42.885 119.325   6.220  1.00  0.00     0.067 C 
HETATM    4  C4          0      44.172 118.811   6.329  1.00  0.00     0.103 C 
HETATM    5  O13         0      44.567 118.333   7.496  1.00  0.00    -0.307 OA
HETATM    6  C14         0      43.765 118.278   8.537  1.00  0.00     0.107 C 
HETATM    7  C15         0      44.020 117.439   9.612  1.00  0.00     0.049 C 
HETATM    8  C16         0      43.054 117.193  10.581  1.00  0.00     0.093 C 
HETATM    9  C18         0      42.090 118.186  10.714  1.00  0.00     0.048 C 
HETATM   10  C19         0      41.842 119.072   9.674  1.00  0.00     0.096 C 
HETATM   11  C21         0      42.564 118.978   8.515  1.00  0.00     0.084 C 
ENDROOT
BRANCH  10  12
HETATM   12  O20         0      40.628 119.750   9.634  1.00  0.00    -0.359 OA
HETATM   13  H20         0      40.048 119.671  10.382  1.00  0.00     0.218 HD
ENDBRANCH  10  12
BRANCH   4  14
HETATM   14  C5          0      44.792 118.292   5.109  1.00  0.00     0.025 C 
HETATM   15  C6          0      45.671 117.219   5.110  1.00  0.00     0.004 C 
HETATM   16  C7          0      45.587 116.316   4.055  1.00  0.00     0.026 C 
HETATM   17  C8          0      44.751 116.541   2.967  1.00  0.00     0.112 C 
HETATM   18  C10         0      44.422 117.874   2.755  1.00  0.00     0.112 C 
HETATM   19  C12         0      44.432 118.737   3.844  1.00  0.00     0.028 C 
BRANCH  17  20
HETATM   20  O9          0      44.147 115.486   2.306  1.00  0.00    -0.357 OA
HETATM   21  H9          0      43.465 115.593   1.653  1.00  0.00     0.218 HD
ENDBRANCH  17  20
BRANCH  18  22
HETATM   22  O11         0      43.750 118.176   1.579  1.00  0.00    -0.357 OA
HETATM   23  H11         0      43.486 119.080   1.455  1.00  0.00     0.218 HD
ENDBRANCH  18  22
ENDBRANCH   4  14
BRANCH   8  24
HETATM   24  O17         0      42.875 115.917  11.125  1.00  0.00    -0.359 OA
HETATM   25  H17         0      42.476 115.789  11.977  1.00  0.00     0.218 HD
ENDBRANCH   8  24
TORSDOF 5
ENDMDL
MODEL 4
REMARK VINA RESULT:      -4.1      1.689      6.625
REMARK  5 active torsions:
REMARK  status: ('A' for Active; 'I' for Inactive)
REMARK    1  A    between atoms: C4_4  and  C5_5 
REMARK    2  A    between atoms: C8_8  and  O9_9 
REMARK    3  A    between atoms: C10_11  and  O11_12 
REMARK    4  A    between atoms: C16_18  and  O17_19 
REMARK    5  A    between atoms: C19_22  and  O20_23 
ROOT
HETATM    1  O1          0      45.249 117.572  10.410  1.00  0.00    -0.286 OA
HETATM    2  C2          0      44.480 117.584   9.410  1.00  0.00     0.201 C 
HETATM    3  C3          0      44.925 117.357   8.119  1.00  0.00     0.067 C 
HETATM    4  C4          0      44.076 117.476   7.024  1.00  0.00     0.103 C 
HETATM    5  O13         0      42.811 117.795   7.234  1.00  0.00    -0.307 OA
HETATM    6  C14         0      42.346 118.058   8.436  1.00  0.00     0.107 C 
HETATM    7  C15         0      41.168 118.765   8.626  1.00  0.00     0.049 C 
HETATM    8  C16         0      40.815 119.258   9.876  1.00  0.00     0.093 C 
HETATM    9  C18         0      41.377 118.583  10.953  1.00  0.00     0.048 C 
HETATM   10  C19         0      42.530 117.827  10.788  1.00  0.00     0.096 C 
HETATM   11  C21         0      43.109 117.733   9.552  1.00  0.00     0.084 C 
ENDROOT
BRANCH  10  12
HETATM   12  O20         0      43.312 117.528  11.900  1.00  0.00    -0.359 OA
HETATM   13  H20         0      43.007 116.848  12.488  1.00  0.00     0.218 HD
ENDBRANCH  10  12
BRANCH   4  14
HETATM   14  C5          0      44.685 117.820   5.738  1.00  0.00     0.025 C 
HETATM   15  C6          0      45.594 116.995   5.092  1.00  0.00     0.004 C 
HETATM   16  C7          0      45.514 116.908   3.706  1.00  0.00     0.026 C 
HETATM   17  C8          0      44.650 117.714   2.973  1.00  0.00     0.112 C 
HETATM   18  C10         0      44.278 118.892   3.608  1.00  0.00     0.112 C 
HETATM   19  C12         0      44.286 118.925   4.997  1.00  0.00     0.028 C 
BRANCH  17  20
HETATM   20  O9          0      44.062 117.250   1.810  1.00  0.00    -0.357 OA
HETATM   21  H9          0      44.440 116.572   1.262  1.00  0.00     0.218 HD
ENDBRANCH  17  20
BRANCH  18  22
HETATM   22  O11         0      43.574 119.818   2.851  1.00  0.00    -0.357 OA
HETATM   23  H11         0      42.780 119.512   2.427  1.00  0.00     0.218 HD
ENDBRANCH  18  22
ENDBRANCH   4  14
BRANCH   8  24
HETATM   24  O17         0      40.230 120.521  10.024  1.00  0.00    -0.359 OA
HETATM   25  H17         0      39.708 120.742  10.786  1.00  0.00     0.218 HD
ENDBRANCH   8  24
TORSDOF 5
ENDMDL
MODEL 5
REMARK VINA RESULT:      -4.1      1.885      6.789
REMARK  5 active torsions:
REMARK  status: ('A' for Active; 'I' for Inactive)
REMARK    1  A    between atoms: C4_4  and  C5_5 
REMARK    2  A    between atoms: C8_8  and  O9_9 
REMARK    3  A    between atoms: C10_11  and  O11_12 
REMARK    4  A    between atoms: C16_18  and  O17_19 
REMARK    5  A    between atoms: C19_22  and  O20_23 
ROOT
HETATM    1  O1          0      41.393 120.745   6.183  1.00  0.00    -0.286 OA
HETATM    2  C2          0      42.349 119.974   6.472  1.00  0.00     0.201 C 
HETATM    3  C3          0      43.256 119.517   5.530  1.00  0.00     0.067 C 
HETATM    4  C4          0      44.238 118.588   5.855  1.00  0.00     0.103 C 
HETATM    5  O13         0      44.312 118.152   7.100  1.00  0.00    -0.307 OA
HETATM    6  C14         0      43.453 118.524   8.023  1.00  0.00     0.107 C 
HETATM    7  C15         0      43.271 117.794   9.189  1.00  0.00     0.049 C 
HETATM    8  C16         0      42.196 118.041  10.035  1.00  0.00     0.093 C 
HETATM    9  C18         0      41.670 119.325   9.954  1.00  0.00     0.048 C 
HETATM   10  C19         0      41.873 120.101   8.821  1.00  0.00     0.096 C 
HETATM   11  C21         0      42.612 119.605   7.782  1.00  0.00     0.084 C 
ENDROOT
BRANCH  10  12
HETATM   12  O20         0      41.013 121.164   8.561  1.00  0.00    -0.359 OA
HETATM   13  H20         0      40.144 120.964   8.235  1.00  0.00     0.218 HD
ENDBRANCH  10  12
BRANCH   4  14
HETATM   14  C5          0      44.730 117.729   4.776  1.00  0.00     0.025 C 
HETATM   15  C6          0      44.839 118.160   3.462  1.00  0.00     0.004 C 
HETATM   16  C7          0      45.940 117.725   2.731  1.00  0.00     0.026 C 
HETATM   17  C8          0      46.831 116.787   3.242  1.00  0.00     0.112 C 
HETATM   18  C10         0      46.309 115.976   4.240  1.00  0.00     0.112 C 
HETATM   19  C12         0      45.264 116.469   5.013  1.00  0.00     0.028 C 
BRANCH  17  20
HETATM   20  O9          0      48.173 116.831   2.911  1.00  0.00    -0.357 OA
HETATM   21  H9          0      48.609 117.605   2.574  1.00  0.00     0.218 HD
ENDBRANCH  17  20
BRANCH  18  22
HETATM   22  O11         0      47.089 114.904   4.651  1.00  0.00    -0.357 OA
HETATM   23  H11         0      46.791 114.036   4.404  1.00  0.00     0.218 HD
ENDBRANCH  18  22
ENDBRANCH   4  14
BRANCH   8  24
HETATM   24  O17         0      41.499 116.997  10.653  1.00  0.00    -0.359 OA
HETATM   25  H17         0      40.613 116.769  10.399  1.00  0.00     0.218 HD
ENDBRANCH   8  24
TORSDOF 5
ENDMDL
MODEL 6
REMARK VINA RESULT:      -3.9      4.858      6.938
REMARK  5 active torsions:
REMARK  status: ('A' for Active; 'I' for Inactive)
REMARK    1  A    between atoms: C4_4  and  C5_5 
REMARK    2  A    between atoms: C8_8  and  O9_9 
REMARK    3  A    between atoms: C10_11  and  O11_12 
REMARK    4  A    between atoms: C16_18  and  O17_19 
REMARK    5  A    between atoms: C19_22  and  O20_23 
ROOT
HETATM    1  O1          0      46.656 117.721   9.323  1.00  0.00    -0.286 OA
HETATM    2  C2          0      45.746 117.273  10.074  1.00  0.00     0.201 C 
HETATM    3  C3          0      45.951 116.230  10.961  1.00  0.00     0.067 C 
HETATM    4  C4          0      44.906 115.688  11.701  1.00  0.00     0.103 C 
HETATM    5  O13         0      43.697 116.201  11.563  1.00  0.00    -0.307 OA
HETATM    6  C14         0      43.440 117.166  10.707  1.00  0.00     0.107 C 
HETATM    7  C15         0      42.151 117.431  10.268  1.00  0.00     0.049 C 
HETATM    8  C16         0      41.916 118.269   9.185  1.00  0.00     0.093 C 
HETATM    9  C18         0      42.917 119.199   8.934  1.00  0.00     0.048 C 
HETATM   10  C19         0      44.208 118.989   9.399  1.00  0.00     0.096 C 
HETATM   11  C21         0      44.493 117.865  10.126  1.00  0.00     0.084 C 
ENDROOT
BRANCH  10  12
HETATM   12  O20         0      45.266 119.663   8.798  1.00  0.00    -0.359 OA
HETATM   13  H20         0      45.603 119.321   7.979  1.00  0.00     0.218 HD
ENDBRANCH  10  12
BRANCH   4  14
HETATM   14  C5          0      45.036 114.291  12.118  1.00  0.00     0.025 C 
HETATM   15  C6          0      44.073 113.331  11.841  1.00  0.00     0.004 C 
HETATM   16  C7          0      44.512 112.054  11.509  1.00  0.00     0.026 C 
HETATM   17  C8          0      45.856 111.704  11.580  1.00  0.00     0.112 C 
HETATM   18  C10         0      46.615 112.486  12.440  1.00  0.00     0.112 C 
HETATM   19  C12         0      46.199 113.789  12.688  1.00  0.00     0.028 C 
BRANCH  17  20
HETATM   20  O9          0      46.398 110.789  10.694  1.00  0.00    -0.357 OA
HETATM   21  H9          0      46.558 110.974   9.776  1.00  0.00     0.218 HD
ENDBRANCH  17  20
BRANCH  18  22
HETATM   22  O11         0      47.913 112.065  12.692  1.00  0.00    -0.357 OA
HETATM   23  H11         0      48.022 111.356  13.315  1.00  0.00     0.218 HD
ENDBRANCH  18  22
ENDBRANCH   4  14
BRANCH   8  24
HETATM   24  O17         0      40.929 117.976   8.237  1.00  0.00    -0.359 OA
HETATM   25  H17         0      41.014 117.242   7.640  1.00  0.00     0.218 HD
ENDBRANCH   8  24
TORSDOF 5
ENDMDL
MODEL 7
REMARK VINA RESULT:      -3.8      5.822      7.952
REMARK  5 active torsions:
REMARK  status: ('A' for Active; 'I' for Inactive)
REMARK    1  A    between atoms: C4_4  and  C5_5 
REMARK    2  A    between atoms: C8_8  and  O9_9 
REMARK    3  A    between atoms: C10_11  and  O11_12 
REMARK    4  A    between atoms: C16_18  and  O17_19 
REMARK    5  A    between atoms: C19_22  and  O20_23 
ROOT
HETATM    1  O1          0      47.567 115.420  12.537  1.00  0.00    -0.286 OA
HETATM    2  C2          0      46.401 115.260  12.084  1.00  0.00     0.201 C 
HETATM    3  C3          0      45.678 116.282  11.493  1.00  0.00     0.067 C 
HETATM    4  C4          0      44.358 116.106  11.095  1.00  0.00     0.103 C 
HETATM    5  O13         0      43.795 114.924  11.270  1.00  0.00    -0.307 OA
HETATM    6  C14         0      44.424 113.930  11.859  1.00  0.00     0.107 C 
HETATM    7  C15         0      43.740 112.851  12.400  1.00  0.00     0.049 C 
HETATM    8  C16         0      44.375 111.940  13.237  1.00  0.00     0.093 C 
HETATM    9  C18         0      45.751 111.852  13.070  1.00  0.00     0.048 C 
HETATM   10  C19         0      46.461 112.894  12.490  1.00  0.00     0.096 C 
HETATM   11  C21         0      45.797 114.012  12.063  1.00  0.00     0.084 C 
ENDROOT
BRANCH  10  12
HETATM   12  O20         0      47.830 112.996  12.718  1.00  0.00    -0.359 OA
HETATM   13  H20         0      48.382 112.276  12.439  1.00  0.00     0.218 HD
ENDBRANCH  10  12
BRANCH   4  14
HETATM   14  C5          0      43.505 117.295  11.059  1.00  0.00     0.025 C 
HETATM   15  C6          0      42.564 117.516  10.064  1.00  0.00     0.004 C 
HETATM   16  C7          0      41.353 118.091  10.437  1.00  0.00     0.026 C 
HETATM   17  C8          0      41.134 118.555  11.730  1.00  0.00     0.112 C 
HETATM   18  C10         0      42.287 118.868  12.437  1.00  0.00     0.112 C 
HETATM   19  C12         0      43.467 118.215  12.099  1.00  0.00     0.028 C 
BRANCH  17  20
HETATM   20  O9          0      39.875 118.492  12.301  1.00  0.00    -0.357 OA
HETATM   21  H9          0      39.708 118.157  13.175  1.00  0.00     0.218 HD
ENDBRANCH  17  20
BRANCH  18  22
HETATM   22  O11         0      42.122 119.510  13.656  1.00  0.00    -0.357 OA
HETATM   23  H11         0      41.247 119.512  14.026  1.00  0.00     0.218 HD
ENDBRANCH  18  22
ENDBRANCH   4  14
BRANCH   8  24
HETATM   24  O17         0      43.735 111.420  14.367  1.00  0.00    -0.359 OA
HETATM   25  H17         0      44.223 111.018  15.076  1.00  0.00     0.218 HD
ENDBRANCH   8  24
TORSDOF 5
ENDMDL
MODEL 8
REMARK VINA RESULT:      -3.8      1.602      2.109
REMARK  5 active torsions:
REMARK  status: ('A' for Active; 'I' for Inactive)
REMARK    1  A    between atoms: C4_4  and  C5_5 
REMARK    2  A    between atoms: C8_8  and  O9_9 
REMARK    3  A    between atoms: C10_11  and  O11_12 
REMARK    4  A    between atoms: C16_18  and  O17_19 
REMARK    5  A    between atoms: C19_22  and  O20_23 
ROOT
HETATM    1  O1          0      47.124 116.600   8.052  1.00  0.00    -0.286 OA
HETATM    2  C2          0      46.282 117.330   7.462  1.00  0.00     0.201 C 
HETATM    3  C3          0      45.388 118.143   8.139  1.00  0.00     0.067 C 
HETATM    4  C4          0      44.403 118.859   7.468  1.00  0.00     0.103 C 
HETATM    5  O13         0      44.339 118.771   6.151  1.00  0.00    -0.307 OA
HETATM    6  C14         0      45.139 117.985   5.464  1.00  0.00     0.107 C 
HETATM    7  C15         0      44.833 117.582   4.172  1.00  0.00     0.049 C 
HETATM    8  C16         0      45.541 116.561   3.549  1.00  0.00     0.093 C 
HETATM    9  C18         0      46.829 116.360   4.031  1.00  0.00     0.048 C 
HETATM   10  C19         0      47.182 116.793   5.302  1.00  0.00     0.096 C 
HETATM   11  C21         0      46.259 117.438   6.080  1.00  0.00     0.084 C 
ENDROOT
BRANCH  10  12
HETATM   12  O20         0      48.284 116.225   5.933  1.00  0.00    -0.359 OA
HETATM   13  H20         0      48.180 115.929   6.829  1.00  0.00     0.218 HD
ENDBRANCH  10  12
BRANCH   4  14
HETATM   14  C5          0      43.184 119.179   8.213  1.00  0.00     0.025 C 
HETATM   15  C6          0      41.919 118.810   7.779  1.00  0.00     0.004 C 
HETATM   16  C7          0      41.001 118.400   8.741  1.00  0.00     0.026 C 
HETATM   17  C8          0      41.284 118.480  10.100  1.00  0.00     0.112 C 
HETATM   18  C10         0      42.257 119.413  10.436  1.00  0.00     0.112 C 
HETATM   19  C12         0      43.213 119.742   9.482  1.00  0.00     0.028 C 
BRANCH  17  20
HETATM   20  O9          0      40.777 117.547  10.986  1.00  0.00    -0.357 OA
HETATM   21  H9          0      40.226 117.768  11.728  1.00  0.00     0.218 HD
ENDBRANCH  17  20
BRANCH  18  22
HETATM   22  O11         0      42.443 119.668  11.787  1.00  0.00    -0.357 OA
HETATM   23  H11         0      42.759 118.949  12.321  1.00  0.00     0.218 HD
ENDBRANCH  18  22
ENDBRANCH   4  14
BRANCH   8  24
HETATM   24  O17         0      44.896 115.608   2.752  1.00  0.00    -0.359 OA
HETATM   25  H17         0      44.806 115.720   1.813  1.00  0.00     0.218 HD
ENDBRANCH   8  24
TORSDOF 5
ENDMDL
MODEL 9
REMARK VINA RESULT:      -3.8      2.142      6.680
REMARK  5 active torsions:
REMARK  status: ('A' for Active; 'I' for Inactive)
REMARK    1  A    between atoms: C4_4  and  C5_5 
REMARK    2  A    between atoms: C8_8  and  O9_9 
REMARK    3  A    between atoms: C10_11  and  O11_12 
REMARK    4  A    between atoms: C16_18  and  O17_19 
REMARK    5  A    between atoms: C19_22  and  O20_23 
ROOT
HETATM    1  O1          0      45.232 117.552  10.397  1.00  0.00    -0.286 OA
HETATM    2  C2          0      44.467 117.576   9.395  1.00  0.00     0.201 C 
HETATM    3  C3          0      44.914 117.351   8.104  1.00  0.00     0.067 C 
HETATM    4  C4          0      44.071 117.485   7.007  1.00  0.00     0.103 C 
HETATM    5  O13         0      42.809 117.816   7.214  1.00  0.00    -0.307 OA
HETATM    6  C14         0      42.342 118.077   8.415  1.00  0.00     0.107 C 
HETATM    7  C15         0      41.170 118.796   8.604  1.00  0.00     0.049 C 
HETATM    8  C16         0      40.818 119.286   9.855  1.00  0.00     0.093 C 
HETATM    9  C18         0      41.368 118.600  10.931  1.00  0.00     0.048 C 
HETATM   10  C19         0      42.514 117.833  10.767  1.00  0.00     0.096 C 
HETATM   11  C21         0      43.097 117.739   9.533  1.00  0.00     0.084 C 
ENDROOT
BRANCH  10  12
HETATM   12  O20         0      43.289 117.521  11.880  1.00  0.00    -0.359 OA
HETATM   13  H20         0      43.896 116.794  11.810  1.00  0.00     0.218 HD
ENDBRANCH  10  12
BRANCH   4  14
HETATM   14  C5          0      44.689 117.829   5.725  1.00  0.00     0.025 C 
HETATM   15  C6          0      44.816 119.136   5.278  1.00  0.00     0.004 C 
HETATM   16  C7          0      45.984 119.476   4.603  1.00  0.00     0.026 C 
HETATM   17  C8          0      46.936 118.520   4.265  1.00  0.00     0.112 C 
HETATM   18  C10         0      46.449 117.222   4.179  1.00  0.00     0.112 C 
HETATM   19  C12         0      45.329 116.886   4.930  1.00  0.00     0.028 C 
BRANCH  17  20
HETATM   20  O9          0      48.281 118.838   4.235  1.00  0.00    -0.357 OA
HETATM   21  H9          0      48.917 118.397   3.683  1.00  0.00     0.218 HD
ENDBRANCH  17  20
BRANCH  18  22
HETATM   22  O11         0      47.307 116.261   3.664  1.00  0.00    -0.357 OA
HETATM   23  H11         0      47.476 115.500   4.206  1.00  0.00     0.218 HD
ENDBRANCH  18  22
ENDBRANCH   4  14
BRANCH   8  24
HETATM   24  O17         0      40.245 120.554  10.007  1.00  0.00    -0.359 OA
HETATM   25  H17         0      39.304 120.677  10.028  1.00  0.00     0.218 HD
ENDBRANCH   8  24
TORSDOF 5
ENDMDL
