MODEL 1
REMARK VINA RESULT:      -6.1      0.000      0.000
REMARK  5 active torsions:
REMARK  status: ('A' for Active; 'I' for Inactive)
REMARK    1  A    between atoms: C4_4  and  C5_5 
REMARK    2  A    between atoms: C8_8  and  O9_9 
REMARK    3  A    between atoms: C10_11  and  O11_12 
REMARK    4  A    between atoms: C16_18  and  O17_19 
REMARK    5  A    between atoms: C19_22  and  O20_23 
ROOT
HETATM    1  O1          0      38.489  56.685 -19.886  1.00  0.00    -0.286 OA
HETATM    2  C2          0      37.534  56.192 -20.548  1.00  0.00     0.201 C 
HETATM    3  C3          0      37.356  54.828 -20.707  1.00  0.00     0.067 C 
HETATM    4  C4          0      36.357  54.315 -21.526  1.00  0.00     0.103 C 
HETATM    5  O13         0      35.551  55.157 -22.148  1.00  0.00    -0.307 OA
HETATM    6  C14         0      35.700  56.460 -22.061  1.00  0.00     0.107 C 
HETATM    7  C15         0      35.142  57.323 -22.994  1.00  0.00     0.049 C 
HETATM    8  C16         0      35.508  58.662 -23.047  1.00  0.00     0.093 C 
HETATM    9  C18         0      36.002  59.184 -21.858  1.00  0.00     0.048 C 
HETATM   10  C19         0      36.525  58.345 -20.883  1.00  0.00     0.096 C 
HETATM   11  C21         0      36.538  56.992 -21.088  1.00  0.00     0.084 C 
ENDROOT
BRANCH  10  12
HETATM   12  O20         0      37.390  58.868 -19.927  1.00  0.00    -0.359 OA
HETATM   13  H20         0      37.012  59.343 -19.197  1.00  0.00     0.218 HD
ENDBRANCH  10  12
BRANCH   4  14
HETATM   14  C5          0      36.587  52.994 -22.114  1.00  0.00     0.025 C 
HETATM   15  C6          0      36.627  52.777 -23.484  1.00  0.00     0.004 C 
HETATM   16  C7          0      37.559  51.864 -23.965  1.00  0.00     0.026 C 
HETATM   17  C8          0      38.334  51.092 -23.107  1.00  0.00     0.112 C 
HETATM   18  C10         0      37.795  50.915 -21.839  1.00  0.00     0.112 C 
HETATM   19  C12         0      36.931  51.887 -21.348  1.00  0.00     0.028 C 
BRANCH  17  20
HETATM   20  O9          0      39.624  50.727 -23.450  1.00  0.00    -0.357 OA
HETATM   21  H9          0      39.972  49.850 -23.338  1.00  0.00     0.218 HD
ENDBRANCH  17  20
BRANCH  18  22
HETATM   22  O11         0      38.429  50.003 -21.008  1.00  0.00    -0.357 OA
HETATM   23  H11         0      39.372  49.930 -21.090  1.00  0.00     0.218 HD
ENDBRANCH  18  22
ENDBRANCH   4  14
BRANCH   8  24
HETATM   24  O17         0      35.683  59.322 -24.269  1.00  0.00    -0.359 OA
HETATM   25  H17         0      36.528  59.667 -24.534  1.00  0.00     0.218 HD
ENDBRANCH   8  24
TORSDOF 5
ENDMDL
MODEL 2
REMARK VINA RESULT:      -6.1      1.581      6.808
REMARK  5 active torsions:
REMARK  status: ('A' for Active; 'I' for Inactive)
REMARK    1  A    between atoms: C4_4  and  C5_5 
REMARK    2  A    between atoms: C8_8  and  O9_9 
REMARK    3  A    between atoms: C10_11  and  O11_12 
REMARK    4  A    between atoms: C16_18  and  O17_19 
REMARK    5  A    between atoms: C19_22  and  O20_23 
ROOT
HETATM    1  O1          0      38.425  54.464 -24.774  1.00  0.00    -0.286 OA
HETATM    2  C2          0      37.622  54.300 -23.815  1.00  0.00     0.201 C 
HETATM    3  C3          0      36.965  55.351 -23.199  1.00  0.00     0.067 C 
HETATM    4  C4          0      36.165  55.154 -22.079  1.00  0.00     0.103 C 
HETATM    5  O13         0      36.018  53.927 -21.611  1.00  0.00    -0.307 OA
HETATM    6  C14         0      36.649  52.900 -22.136  1.00  0.00     0.107 C 
HETATM    7  C15         0      36.824  51.714 -21.436  1.00  0.00     0.049 C 
HETATM    8  C16         0      37.700  50.733 -21.885  1.00  0.00     0.093 C 
HETATM    9  C18         0      37.952  50.753 -23.251  1.00  0.00     0.048 C 
HETATM   10  C19         0      37.743  51.909 -23.991  1.00  0.00     0.096 C 
HETATM   11  C21         0      37.270  53.034 -23.373  1.00  0.00     0.084 C 
ENDROOT
BRANCH  10  12
HETATM   12  O20         0      38.388  52.059 -25.215  1.00  0.00    -0.359 OA
HETATM   13  H20         0      39.338  52.090 -25.217  1.00  0.00     0.218 HD
ENDBRANCH  10  12
BRANCH   4  14
HETATM   14  C5          0      36.012  56.283 -21.158  1.00  0.00     0.025 C 
HETATM   15  C6          0      36.926  56.561 -20.153  1.00  0.00     0.004 C 
HETATM   16  C7          0      37.211  57.898 -19.893  1.00  0.00     0.026 C 
HETATM   17  C8          0      36.514  58.927 -20.517  1.00  0.00     0.112 C 
HETATM   18  C10         0      35.255  58.574 -20.984  1.00  0.00     0.112 C 
HETATM   19  C12         0      35.023  57.245 -21.317  1.00  0.00     0.028 C 
BRANCH  17  20
HETATM   20  O9          0      37.137  60.125 -20.817  1.00  0.00    -0.357 OA
HETATM   21  H9          0      38.027  60.190 -21.145  1.00  0.00     0.218 HD
ENDBRANCH  17  20
BRANCH  18  22
HETATM   22  O11         0      34.444  59.602 -21.443  1.00  0.00    -0.357 OA
HETATM   23  H11         0      33.964  60.096 -20.788  1.00  0.00     0.218 HD
ENDBRANCH  18  22
ENDBRANCH   4  14
BRANCH   8  24
HETATM   24  O17         0      38.511  50.018 -20.997  1.00  0.00    -0.359 OA
HETATM   25  H17         0      38.636  50.300 -20.099  1.00  0.00     0.218 HD
ENDBRANCH   8  24
TORSDOF 5
ENDMDL
MODEL 3
REMARK VINA RESULT:      -6.0      1.833      6.822
REMARK  5 active torsions:
REMARK  status: ('A' for Active; 'I' for Inactive)
REMARK    1  A    between atoms: C4_4  and  C5_5 
REMARK    2  A    between atoms: C8_8  and  O9_9 
REMARK    3  A    between atoms: C10_11  and  O11_12 
REMARK    4  A    between atoms: C16_18  and  O17_19 
REMARK    5  A    between atoms: C19_22  and  O20_23 
ROOT
HETATM    1  O1          0      38.850  54.172 -25.147  1.00  0.00    -0.286 OA
HETATM    2  C2          0      37.991  54.133 -24.223  1.00  0.00     0.201 C 
HETATM    3  C3          0      37.349  55.264 -23.747  1.00  0.00     0.067 C 
HETATM    4  C4          0      36.484  55.208 -22.661  1.00  0.00     0.103 C 
HETATM    5  O13         0      36.260  54.039 -22.088  1.00  0.00    -0.307 OA
HETATM    6  C14         0      36.872  52.941 -22.476  1.00  0.00     0.107 C 
HETATM    7  C15         0      36.957  51.824 -21.658  1.00  0.00     0.049 C 
HETATM    8  C16         0      37.812  50.771 -21.962  1.00  0.00     0.093 C 
HETATM    9  C18         0      38.136  50.648 -23.307  1.00  0.00     0.048 C 
HETATM   10  C19         0      38.017  51.734 -24.164  1.00  0.00     0.096 C 
HETATM   11  C21         0      37.561  52.931 -23.683  1.00  0.00     0.084 C 
ENDROOT
BRANCH  10  12
HETATM   12  O20         0      38.731  51.739 -25.358  1.00  0.00    -0.359 OA
HETATM   13  H20         0      38.242  51.801 -26.169  1.00  0.00     0.218 HD
ENDBRANCH  10  12
BRANCH   4  14
HETATM   14  C5          0      36.333  56.425 -21.861  1.00  0.00     0.025 C 
HETATM   15  C6          0      37.019  57.598 -22.141  1.00  0.00     0.004 C 
HETATM   16  C7          0      36.340  58.800 -21.967  1.00  0.00     0.026 C 
HETATM   17  C8          0      35.067  58.843 -21.407  1.00  0.00     0.112 C 
HETATM   18  C10         0      34.748  57.755 -20.607  1.00  0.00     0.112 C 
HETATM   19  C12         0      35.381  56.543 -20.857  1.00  0.00     0.028 C 
BRANCH  17  20
HETATM   20  O9          0      34.149  59.798 -21.808  1.00  0.00    -0.357 OA
HETATM   21  H9          0      33.977  60.599 -21.328  1.00  0.00     0.218 HD
ENDBRANCH  17  20
BRANCH  18  22
HETATM   22  O11         0      33.572  57.836 -19.875  1.00  0.00    -0.357 OA
HETATM   23  H11         0      33.054  58.626 -19.979  1.00  0.00     0.218 HD
ENDBRANCH  18  22
ENDBRANCH   4  14
BRANCH   8  24
HETATM   24  O17         0      38.543  50.115 -20.966  1.00  0.00    -0.359 OA
HETATM   25  H17         0      39.233  49.497 -21.178  1.00  0.00     0.218 HD
ENDBRANCH   8  24
TORSDOF 5
ENDMDL
MODEL 4
REMARK VINA RESULT:      -5.9      1.939      6.679
REMARK  5 active torsions:
REMARK  status: ('A' for Active; 'I' for Inactive)
REMARK    1  A    between atoms: C4_4  and  C5_5 
REMARK    2  A    between atoms: C8_8  and  O9_9 
REMARK    3  A    between atoms: C10_11  and  O11_12 
REMARK    4  A    between atoms: C16_18  and  O17_19 
REMARK    5  A    between atoms: C19_22  and  O20_23 
ROOT
HETATM    1  O1          0      36.362  51.297 -20.580  1.00  0.00    -0.286 OA
HETATM    2  C2          0      36.645  52.258 -21.347  1.00  0.00     0.201 C 
HETATM    3  C3          0      36.024  53.493 -21.264  1.00  0.00     0.067 C 
HETATM    4  C4          0      36.281  54.501 -22.186  1.00  0.00     0.103 C 
HETATM    5  O13         0      37.156  54.272 -23.150  1.00  0.00    -0.307 OA
HETATM    6  C14         0      37.745  53.105 -23.296  1.00  0.00     0.107 C 
HETATM    7  C15         0      38.333  52.729 -24.495  1.00  0.00     0.049 C 
HETATM    8  C16         0      38.724  51.416 -24.726  1.00  0.00     0.093 C 
HETATM    9  C18         0      38.990  50.672 -23.582  1.00  0.00     0.048 C 
HETATM   10  C19         0      38.455  51.047 -22.357  1.00  0.00     0.096 C 
HETATM   11  C21         0      37.674  52.167 -22.272  1.00  0.00     0.084 C 
ENDROOT
BRANCH  10  12
HETATM   12  O20         0      38.353  50.102 -21.341  1.00  0.00    -0.359 OA
HETATM   13  H20         0      38.091  50.401 -20.479  1.00  0.00     0.218 HD
ENDBRANCH  10  12
BRANCH   4  14
HETATM   14  C5          0      35.222  55.485 -22.415  1.00  0.00     0.025 C 
HETATM   15  C6          0      34.131  55.627 -21.569  1.00  0.00     0.004 C 
HETATM   16  C7          0      33.668  56.916 -21.325  1.00  0.00     0.026 C 
HETATM   17  C8          0      34.183  58.016 -22.002  1.00  0.00     0.112 C 
HETATM   18  C10         0      34.774  57.721 -23.224  1.00  0.00     0.112 C 
HETATM   19  C12         0      35.305  56.450 -23.410  1.00  0.00     0.028 C 
BRANCH  17  20
HETATM   20  O9          0      34.271  59.251 -21.384  1.00  0.00    -0.357 OA
HETATM   21  H9          0      34.972  59.873 -21.545  1.00  0.00     0.218 HD
ENDBRANCH  17  20
BRANCH  18  22
HETATM   22  O11         0      35.133  58.796 -24.024  1.00  0.00    -0.357 OA
HETATM   23  H11         0      35.662  59.474 -23.621  1.00  0.00     0.218 HD
ENDBRANCH  18  22
ENDBRANCH   4  14
BRANCH   8  24
HETATM   24  O17         0      38.535  50.807 -25.972  1.00  0.00    -0.359 OA
HETATM   25  H17         0      38.981  51.116 -26.751  1.00  0.00     0.218 HD
ENDBRANCH   8  24
TORSDOF 5
ENDMDL
MODEL 5
REMARK VINA RESULT:      -5.8      1.924      6.291
REMARK  5 active torsions:
REMARK  status: ('A' for Active; 'I' for Inactive)
REMARK    1  A    between atoms: C4_4  and  C5_5 
REMARK    2  A    between atoms: C8_8  and  O9_9 
REMARK    3  A    between atoms: C10_11  and  O11_12 
REMARK    4  A    between atoms: C16_18  and  O17_19 
REMARK    5  A    between atoms: C19_22  and  O20_23 
ROOT
HETATM    1  O1          0      37.973  51.335 -21.000  1.00  0.00    -0.286 OA
HETATM    2  C2          0      37.750  52.457 -21.532  1.00  0.00     0.201 C 
HETATM    3  C3          0      37.617  53.623 -20.798  1.00  0.00     0.067 C 
HETATM    4  C4          0      37.270  54.827 -21.400  1.00  0.00     0.103 C 
HETATM    5  O13         0      37.084  54.853 -22.708  1.00  0.00    -0.307 OA
HETATM    6  C14         0      37.161  53.768 -23.446  1.00  0.00     0.107 C 
HETATM    7  C15         0      36.591  53.701 -24.709  1.00  0.00     0.049 C 
HETATM    8  C16         0      36.451  52.489 -25.375  1.00  0.00     0.093 C 
HETATM    9  C18         0      37.347  51.500 -24.987  1.00  0.00     0.048 C 
HETATM   10  C19         0      37.972  51.560 -23.748  1.00  0.00     0.096 C 
HETATM   11  C21         0      37.717  52.611 -22.910  1.00  0.00     0.084 C 
ENDROOT
BRANCH  10  12
HETATM   12  O20         0      38.500  50.398 -23.196  1.00  0.00    -0.359 OA
HETATM   13  H20         0      38.581  50.351 -22.251  1.00  0.00     0.218 HD
ENDBRANCH  10  12
BRANCH   4  14
HETATM   14  C5          0      36.578  55.816 -20.570  1.00  0.00     0.025 C 
HETATM   15  C6          0      37.226  56.895 -19.988  1.00  0.00     0.004 C 
HETATM   16  C7          0      36.548  58.108 -19.946  1.00  0.00     0.026 C 
HETATM   17  C8          0      35.220  58.216 -20.346  1.00  0.00     0.112 C 
HETATM   18  C10         0      34.502  57.029 -20.298  1.00  0.00     0.112 C 
HETATM   19  C12         0      35.196  55.832 -20.428  1.00  0.00     0.028 C 
BRANCH  17  20
HETATM   20  O9          0      34.750  59.375 -20.938  1.00  0.00    -0.357 OA
HETATM   21  H9          0      35.053  59.699 -21.778  1.00  0.00     0.218 HD
ENDBRANCH  17  20
BRANCH  18  22
HETATM   22  O11         0      33.133  57.114 -20.504  1.00  0.00    -0.357 OA
HETATM   23  H11         0      32.654  57.732 -19.963  1.00  0.00     0.218 HD
ENDBRANCH  18  22
ENDBRANCH   4  14
BRANCH   8  24
HETATM   24  O17         0      35.302  52.192 -26.115  1.00  0.00    -0.359 OA
HETATM   25  H17         0      34.875  51.345 -26.055  1.00  0.00     0.218 HD
ENDBRANCH   8  24
TORSDOF 5
ENDMDL
MODEL 6
REMARK VINA RESULT:      -5.8      1.482      2.314
REMARK  5 active torsions:
REMARK  status: ('A' for Active; 'I' for Inactive)
REMARK    1  A    between atoms: C4_4  and  C5_5 
REMARK    2  A    between atoms: C8_8  and  O9_9 
REMARK    3  A    between atoms: C10_11  and  O11_12 
REMARK    4  A    between atoms: C16_18  and  O17_19 
REMARK    5  A    between atoms: C19_22  and  O20_23 
ROOT
HETATM    1  O1          0      37.291  57.607 -24.747  1.00  0.00    -0.286 OA
HETATM    2  C2          0      37.312  56.952 -23.669  1.00  0.00     0.201 C 
HETATM    3  C3          0      37.569  55.593 -23.621  1.00  0.00     0.067 C 
HETATM    4  C4          0      37.485  54.877 -22.432  1.00  0.00     0.103 C 
HETATM    5  O13         0      37.171  55.522 -21.323  1.00  0.00    -0.307 OA
HETATM    6  C14         0      36.881  56.805 -21.319  1.00  0.00     0.107 C 
HETATM    7  C15         0      36.179  57.392 -20.276  1.00  0.00     0.049 C 
HETATM    8  C16         0      35.656  58.675 -20.390  1.00  0.00     0.093 C 
HETATM    9  C18         0      36.299  59.490 -21.314  1.00  0.00     0.048 C 
HETATM   10  C19         0      37.048  58.937 -22.343  1.00  0.00     0.096 C 
HETATM   11  C21         0      37.170  57.577 -22.439  1.00  0.00     0.084 C 
ENDROOT
BRANCH  10  12
HETATM   12  O20         0      37.312  59.697 -23.478  1.00  0.00    -0.359 OA
HETATM   13  H20         0      36.937  59.410 -24.303  1.00  0.00     0.218 HD
ENDBRANCH  10  12
BRANCH   4  14
HETATM   14  C5          0      37.170  53.450 -22.531  1.00  0.00     0.025 C 
HETATM   15  C6          0      36.663  52.870 -23.684  1.00  0.00     0.004 C 
HETATM   16  C7          0      37.117  51.598 -24.020  1.00  0.00     0.026 C 
HETATM   17  C8          0      37.944  50.872 -23.170  1.00  0.00     0.112 C 
HETATM   18  C10         0      37.872  51.242 -21.834  1.00  0.00     0.112 C 
HETATM   19  C12         0      37.497  52.545 -21.529  1.00  0.00     0.028 C 
BRANCH  17  20
HETATM   20  O9          0      38.899  50.009 -23.677  1.00  0.00    -0.357 OA
HETATM   21  H9          0      38.779  49.492 -24.465  1.00  0.00     0.218 HD
ENDBRANCH  17  20
BRANCH  18  22
HETATM   22  O11         0      38.529  50.430 -20.920  1.00  0.00    -0.357 OA
HETATM   23  H11         0      38.729  50.811 -20.072  1.00  0.00     0.218 HD
ENDBRANCH  18  22
ENDBRANCH   4  14
BRANCH   8  24
HETATM   24  O17         0      34.396  58.997 -19.876  1.00  0.00    -0.359 OA
HETATM   25  H17         0      34.236  59.815 -19.420  1.00  0.00     0.218 HD
ENDBRANCH   8  24
TORSDOF 5
ENDMDL
MODEL 7
REMARK VINA RESULT:      -5.8      2.361      3.361
REMARK  5 active torsions:
REMARK  status: ('A' for Active; 'I' for Inactive)
REMARK    1  A    between atoms: C4_4  and  C5_5 
REMARK    2  A    between atoms: C8_8  and  O9_9 
REMARK    3  A    between atoms: C10_11  and  O11_12 
REMARK    4  A    between atoms: C16_18  and  O17_19 
REMARK    5  A    between atoms: C19_22  and  O20_23 
ROOT
HETATM    1  O1          0      34.881  56.902 -23.810  1.00  0.00    -0.286 OA
HETATM    2  C2          0      34.941  55.973 -22.958  1.00  0.00     0.201 C 
HETATM    3  C3          0      35.877  54.956 -23.022  1.00  0.00     0.067 C 
HETATM    4  C4          0      35.856  53.889 -22.131  1.00  0.00     0.103 C 
HETATM    5  O13         0      34.928  53.865 -21.191  1.00  0.00    -0.307 OA
HETATM    6  C14         0      33.993  54.786 -21.109  1.00  0.00     0.107 C 
HETATM    7  C15         0      32.813  54.570 -20.411  1.00  0.00     0.049 C 
HETATM    8  C16         0      31.732  55.434 -20.536  1.00  0.00     0.093 C 
HETATM    9  C18         0      32.056  56.727 -20.929  1.00  0.00     0.048 C 
HETATM   10  C19         0      33.250  56.986 -21.588  1.00  0.00     0.096 C 
HETATM   11  C21         0      34.122  55.963 -21.839  1.00  0.00     0.084 C 
ENDROOT
BRANCH  10  12
HETATM   12  O20         0      33.370  58.147 -22.345  1.00  0.00    -0.359 OA
HETATM   13  H20         0      34.179  58.284 -22.825  1.00  0.00     0.218 HD
ENDBRANCH  10  12
BRANCH   4  14
HETATM   14  C5          0      36.426  52.621 -22.590  1.00  0.00     0.025 C 
HETATM   15  C6          0      36.647  52.337 -23.930  1.00  0.00     0.004 C 
HETATM   16  C7          0      37.800  51.631 -24.258  1.00  0.00     0.026 C 
HETATM   17  C8          0      38.637  51.106 -23.279  1.00  0.00     0.112 C 
HETATM   18  C10         0      38.027  50.889 -22.051  1.00  0.00     0.112 C 
HETATM   19  C12         0      36.928  51.669 -21.712  1.00  0.00     0.028 C 
BRANCH  17  20
HETATM   20  O9          0      40.002  51.022 -23.485  1.00  0.00    -0.357 OA
HETATM   21  H9          0      40.399  50.842 -24.330  1.00  0.00     0.218 HD
ENDBRANCH  17  20
BRANCH  18  22
HETATM   22  O11         0      38.761  50.195 -21.099  1.00  0.00    -0.357 OA
HETATM   23  H11         0      39.706  50.198 -21.199  1.00  0.00     0.218 HD
ENDBRANCH  18  22
ENDBRANCH   4  14
BRANCH   8  24
HETATM   24  O17         0      30.419  54.954 -20.596  1.00  0.00    -0.359 OA
HETATM   25  H17         0      29.700  55.501 -20.892  1.00  0.00     0.218 HD
ENDBRANCH   8  24
TORSDOF 5
ENDMDL
MODEL 8
REMARK VINA RESULT:      -5.6      2.868      6.600
REMARK  5 active torsions:
REMARK  status: ('A' for Active; 'I' for Inactive)
REMARK    1  A    between atoms: C4_4  and  C5_5 
REMARK    2  A    between atoms: C8_8  and  O9_9 
REMARK    3  A    between atoms: C10_11  and  O11_12 
REMARK    4  A    between atoms: C16_18  and  O17_19 
REMARK    5  A    between atoms: C19_22  and  O20_23 
ROOT
HETATM    1  O1          0      39.075  55.226 -25.823  1.00  0.00    -0.286 OA
HETATM    2  C2          0      38.632  54.262 -25.140  1.00  0.00     0.201 C 
HETATM    3  C3          0      37.762  54.433 -24.077  1.00  0.00     0.067 C 
HETATM    4  C4          0      37.370  53.365 -23.277  1.00  0.00     0.103 C 
HETATM    5  O13         0      37.831  52.159 -23.558  1.00  0.00    -0.307 OA
HETATM    6  C14         0      38.689  51.948 -24.532  1.00  0.00     0.107 C 
HETATM    7  C15         0      39.469  50.801 -24.583  1.00  0.00     0.049 C 
HETATM    8  C16         0      40.543  50.698 -25.459  1.00  0.00     0.093 C 
HETATM    9  C18         0      40.463  51.510 -26.583  1.00  0.00     0.048 C 
HETATM   10  C19         0      39.656  52.639 -26.583  1.00  0.00     0.096 C 
HETATM   11  C21         0      38.920  52.947 -25.471  1.00  0.00     0.084 C 
ENDROOT
BRANCH  10  12
HETATM   12  O20         0      39.906  53.654 -27.501  1.00  0.00    -0.359 OA
HETATM   13  H20         0      39.653  53.509 -28.405  1.00  0.00     0.218 HD
ENDBRANCH  10  12
BRANCH   4  14
HETATM   14  C5          0      36.984  53.668 -21.897  1.00  0.00     0.025 C 
HETATM   15  C6          0      37.620  54.638 -21.134  1.00  0.00     0.004 C 
HETATM   16  C7          0      36.831  55.413 -20.290  1.00  0.00     0.026 C 
HETATM   17  C8          0      35.478  55.147 -20.108  1.00  0.00     0.112 C 
HETATM   18  C10         0      35.101  53.840 -20.388  1.00  0.00     0.112 C 
HETATM   19  C12         0      35.859  53.116 -21.301  1.00  0.00     0.028 C 
BRANCH  17  20
HETATM   20  O9          0      34.579  56.173 -19.875  1.00  0.00    -0.357 OA
HETATM   21  H9          0      33.865  56.117 -19.251  1.00  0.00     0.218 HD
ENDBRANCH  17  20
BRANCH  18  22
HETATM   22  O11         0      33.808  53.472 -20.045  1.00  0.00    -0.357 OA
HETATM   23  H11         0      33.448  53.855 -19.253  1.00  0.00     0.218 HD
ENDBRANCH  18  22
ENDBRANCH   4  14
BRANCH   8  24
HETATM   24  O17         0      41.744  50.092 -25.071  1.00  0.00    -0.359 OA
HETATM   25  H17         0      42.539  50.192 -25.580  1.00  0.00     0.218 HD
ENDBRANCH   8  24
TORSDOF 5
ENDMDL
MODEL 9
REMARK VINA RESULT:      -5.2      1.723      6.465
REMARK  5 active torsions:
REMARK  status: ('A' for Active; 'I' for Inactive)
REMARK    1  A    between atoms: C4_4  and  C5_5 
REMARK    2  A    between atoms: C8_8  and  O9_9 
REMARK    3  A    between atoms: C10_11  and  O11_12 
REMARK    4  A    between atoms: C16_18  and  O17_19 
REMARK    5  A    between atoms: C19_22  and  O20_23 
ROOT
HETATM    1  O1          0      35.024  52.749 -20.040  1.00  0.00    -0.286 OA
HETATM    2  C2          0      35.772  53.545 -20.672  1.00  0.00     0.201 C 
HETATM    3  C3          0      35.767  54.912 -20.455  1.00  0.00     0.067 C 
HETATM    4  C4          0      36.526  55.776 -21.236  1.00  0.00     0.103 C 
HETATM    5  O13         0      37.284  55.268 -22.192  1.00  0.00    -0.307 OA
HETATM    6  C14         0      37.297  53.981 -22.463  1.00  0.00     0.107 C 
HETATM    7  C15         0      37.755  53.496 -23.680  1.00  0.00     0.049 C 
HETATM    8  C16         0      37.533  52.177 -24.060  1.00  0.00     0.093 C 
HETATM    9  C18         0      37.338  51.288 -23.010  1.00  0.00     0.048 C 
HETATM   10  C19         0      36.926  51.746 -21.766  1.00  0.00     0.096 C 
HETATM   11  C21         0      36.726  53.085 -21.567  1.00  0.00     0.084 C 
ENDROOT
BRANCH  10  12
HETATM   12  O20         0      36.325  50.858 -20.879  1.00  0.00    -0.359 OA
HETATM   13  H20         0      36.211  49.957 -21.160  1.00  0.00     0.218 HD
ENDBRANCH  10  12
BRANCH   4  14
HETATM   14  C5          0      36.045  57.152 -21.375  1.00  0.00     0.025 C 
HETATM   15  C6          0      36.892  58.224 -21.613  1.00  0.00     0.004 C 
HETATM   16  C7          0      36.445  59.219 -22.477  1.00  0.00     0.026 C 
HETATM   17  C8          0      35.149  59.218 -22.982  1.00  0.00     0.112 C 
HETATM   18  C10         0      34.230  58.511 -22.219  1.00  0.00     0.112 C 
HETATM   19  C12         0      34.693  57.465 -21.429  1.00  0.00     0.028 C 
BRANCH  17  20
HETATM   20  O9          0      34.881  59.709 -24.248  1.00  0.00    -0.357 OA
HETATM   21  H9          0      35.295  60.482 -24.613  1.00  0.00     0.218 HD
ENDBRANCH  17  20
BRANCH  18  22
HETATM   22  O11         0      32.893  58.633 -22.572  1.00  0.00    -0.357 OA
HETATM   23  H11         0      32.256  58.579 -21.869  1.00  0.00     0.218 HD
ENDBRANCH  18  22
ENDBRANCH   4  14
BRANCH   8  24
HETATM   24  O17         0      37.198  51.845 -25.377  1.00  0.00    -0.359 OA
HETATM   25  H17         0      37.863  51.701 -26.041  1.00  0.00     0.218 HD
ENDBRANCH   8  24
TORSDOF 5
ENDMDL
