MODEL 1
REMARK VINA RESULT:      -4.7      0.000      0.000
REMARK  5 active torsions:
REMARK  status: ('A' for Active; 'I' for Inactive)
REMARK    1  A    between atoms: C4_4  and  C5_5 
REMARK    2  A    between atoms: C8_8  and  O9_9 
REMARK    3  A    between atoms: C10_11  and  O11_12 
REMARK    4  A    between atoms: C16_18  and  O17_19 
REMARK    5  A    between atoms: C19_22  and  O20_23 
ROOT
HETATM    1  O1          0      48.482   7.384 -15.539  1.00  0.00    -0.286 OA
HETATM    2  C2          0      47.709   6.462 -15.918  1.00  0.00     0.201 C 
HETATM    3  C3          0      46.380   6.391 -15.535  1.00  0.00     0.067 C 
HETATM    4  C4          0      45.578   5.310 -15.883  1.00  0.00     0.103 C 
HETATM    5  O13         0      46.100   4.342 -16.615  1.00  0.00    -0.307 OA
HETATM    6  C14         0      47.366   4.341 -16.973  1.00  0.00     0.107 C 
HETATM    7  C15         0      48.010   3.181 -17.378  1.00  0.00     0.049 C 
HETATM    8  C16         0      49.393   3.132 -17.509  1.00  0.00     0.093 C 
HETATM    9  C18         0      50.005   4.358 -17.739  1.00  0.00     0.048 C 
HETATM   10  C19         0      49.368   5.541 -17.390  1.00  0.00     0.096 C 
HETATM   11  C21         0      48.120   5.500 -16.829  1.00  0.00     0.084 C 
ENDROOT
BRANCH  10  12
HETATM   12  O20         0      50.125   6.695 -17.214  1.00  0.00    -0.359 OA
HETATM   13  H20         0      50.570   7.055 -17.971  1.00  0.00     0.218 HD
ENDBRANCH  10  12
BRANCH   4  14
HETATM   14  C5          0      44.455   4.997 -14.998  1.00  0.00     0.025 C 
HETATM   15  C6          0      43.718   3.827 -15.103  1.00  0.00     0.004 C 
HETATM   16  C7          0      43.300   3.220 -13.923  1.00  0.00     0.026 C 
HETATM   17  C8          0      43.491   3.824 -12.685  1.00  0.00     0.112 C 
HETATM   18  C10         0      43.638   5.204 -12.730  1.00  0.00     0.112 C 
HETATM   19  C12         0      44.139   5.777 -13.893  1.00  0.00     0.028 C 
BRANCH  17  20
HETATM   20  O9          0      43.723   3.063 -11.553  1.00  0.00    -0.357 OA
HETATM   21  H9          0      44.397   2.395 -11.495  1.00  0.00     0.218 HD
ENDBRANCH  17  20
BRANCH  18  22
HETATM   22  O11         0      43.642   5.875 -11.515  1.00  0.00    -0.357 OA
HETATM   23  H11         0      44.217   6.628 -11.442  1.00  0.00     0.218 HD
ENDBRANCH  18  22
ENDBRANCH   4  14
BRANCH   8  24
HETATM   24  O17         0      50.124   2.009 -17.105  1.00  0.00    -0.359 OA
HETATM   25  H17         0      49.720   1.298 -16.621  1.00  0.00     0.218 HD
ENDBRANCH   8  24
TORSDOF 5
ENDMDL
MODEL 2
REMARK VINA RESULT:      -4.6      4.713      7.221
REMARK  5 active torsions:
REMARK  status: ('A' for Active; 'I' for Inactive)
REMARK    1  A    between atoms: C4_4  and  C5_5 
REMARK    2  A    between atoms: C8_8  and  O9_9 
REMARK    3  A    between atoms: C10_11  and  O11_12 
REMARK    4  A    between atoms: C16_18  and  O17_19 
REMARK    5  A    between atoms: C19_22  and  O20_23 
ROOT
HETATM    1  O1          0      49.922   8.120 -16.647  1.00  0.00    -0.286 OA
HETATM    2  C2          0      48.820   8.711 -16.477  1.00  0.00     0.201 C 
HETATM    3  C3          0      48.682  10.085 -16.575  1.00  0.00     0.067 C 
HETATM    4  C4          0      47.480  10.720 -16.283  1.00  0.00     0.103 C 
HETATM    5  O13         0      46.445   9.983 -15.923  1.00  0.00    -0.307 OA
HETATM    6  C14         0      46.531   8.679 -15.778  1.00  0.00     0.107 C 
HETATM    7  C15         0      45.604   7.963 -15.035  1.00  0.00     0.049 C 
HETATM    8  C16         0      45.835   6.641 -14.673  1.00  0.00     0.093 C 
HETATM    9  C18         0      46.714   5.951 -15.499  1.00  0.00     0.048 C 
HETATM   10  C19         0      47.623   6.638 -16.291  1.00  0.00     0.096 C 
HETATM   11  C21         0      47.644   8.006 -16.271  1.00  0.00     0.084 C 
ENDROOT
BRANCH  10  12
HETATM   12  O20         0      48.754   5.976 -16.759  1.00  0.00    -0.359 OA
HETATM   13  H20         0      49.600   6.379 -16.610  1.00  0.00     0.218 HD
ENDBRANCH  10  12
BRANCH   4  14
HETATM   14  C5          0      47.550  12.109 -15.825  1.00  0.00     0.025 C 
HETATM   15  C6          0      46.430  12.833 -15.446  1.00  0.00     0.004 C 
HETATM   16  C7          0      46.556  13.696 -14.362  1.00  0.00     0.026 C 
HETATM   17  C8          0      47.786  13.934 -13.758  1.00  0.00     0.112 C 
HETATM   18  C10         0      48.886  13.687 -14.568  1.00  0.00     0.112 C 
HETATM   19  C12         0      48.757  12.756 -15.592  1.00  0.00     0.028 C 
BRANCH  17  20
HETATM   20  O9          0      47.872  14.187 -12.401  1.00  0.00    -0.357 OA
HETATM   21  H9          0      47.417  14.900 -11.967  1.00  0.00     0.218 HD
ENDBRANCH  17  20
BRANCH  18  22
HETATM   22  O11         0      50.125  14.085 -14.084  1.00  0.00    -0.357 OA
HETATM   23  H11         0      50.832  14.150 -14.715  1.00  0.00     0.218 HD
ENDBRANCH  18  22
ENDBRANCH   4  14
BRANCH   8  24
HETATM   24  O17         0      45.484   6.160 -13.406  1.00  0.00    -0.359 OA
HETATM   25  H17         0      44.736   6.503 -12.932  1.00  0.00     0.218 HD
ENDBRANCH   8  24
TORSDOF 5
ENDMDL
MODEL 3
REMARK VINA RESULT:      -4.3      1.654      3.056
REMARK  5 active torsions:
REMARK  status: ('A' for Active; 'I' for Inactive)
REMARK    1  A    between atoms: C4_4  and  C5_5 
REMARK    2  A    between atoms: C8_8  and  O9_9 
REMARK    3  A    between atoms: C10_11  and  O11_12 
REMARK    4  A    between atoms: C16_18  and  O17_19 
REMARK    5  A    between atoms: C19_22  and  O20_23 
ROOT
HETATM    1  O1          0      48.000   4.384 -18.672  1.00  0.00    -0.286 OA
HETATM    2  C2          0      47.843   5.026 -17.598  1.00  0.00     0.201 C 
HETATM    3  C3          0      46.905   4.672 -16.643  1.00  0.00     0.067 C 
HETATM    4  C4          0      46.681   5.455 -15.516  1.00  0.00     0.103 C 
HETATM    5  O13         0      47.401   6.551 -15.352  1.00  0.00    -0.307 OA
HETATM    6  C14         0      48.278   6.953 -16.246  1.00  0.00     0.107 C 
HETATM    7  C15         0      48.732   8.263 -16.287  1.00  0.00     0.049 C 
HETATM    8  C16         0      49.452   8.743 -17.375  1.00  0.00     0.093 C 
HETATM    9  C18         0      50.125   7.772 -18.107  1.00  0.00     0.048 C 
HETATM   10  C19         0      49.726   6.444 -18.053  1.00  0.00     0.096 C 
HETATM   11  C21         0      48.672   6.084 -17.258  1.00  0.00     0.084 C 
ENDROOT
BRANCH  10  12
HETATM   12  O20         0      50.093   5.580 -19.080  1.00  0.00    -0.359 OA
HETATM   13  H20         0      51.019   5.452 -19.244  1.00  0.00     0.218 HD
ENDBRANCH  10  12
BRANCH   4  14
HETATM   14  C5          0      45.352   5.387 -14.905  1.00  0.00     0.025 C 
HETATM   15  C6          0      44.294   4.700 -15.483  1.00  0.00     0.004 C 
HETATM   16  C7          0      43.437   4.006 -14.635  1.00  0.00     0.026 C 
HETATM   17  C8          0      43.546   4.098 -13.252  1.00  0.00     0.112 C 
HETATM   18  C10         0      44.176   5.249 -12.796  1.00  0.00     0.112 C 
HETATM   19  C12         0      45.092   5.876 -13.632  1.00  0.00     0.028 C 
BRANCH  17  20
HETATM   20  O9          0      43.237   3.019 -12.443  1.00  0.00    -0.357 OA
HETATM   21  H9          0      43.885   2.422 -12.088  1.00  0.00     0.218 HD
ENDBRANCH  17  20
BRANCH  18  22
HETATM   22  O11         0      44.144   5.482 -11.428  1.00  0.00    -0.357 OA
HETATM   23  H11         0      44.253   4.728 -10.860  1.00  0.00     0.218 HD
ENDBRANCH  18  22
ENDBRANCH   4  14
BRANCH   8  24
HETATM   24  O17         0      49.239  10.030 -17.880  1.00  0.00    -0.359 OA
HETATM   25  H17         0      48.586  10.610 -17.507  1.00  0.00     0.218 HD
ENDBRANCH   8  24
TORSDOF 5
ENDMDL
MODEL 4
REMARK VINA RESULT:      -4.0      6.083      8.973
REMARK  5 active torsions:
REMARK  status: ('A' for Active; 'I' for Inactive)
REMARK    1  A    between atoms: C4_4  and  C5_5 
REMARK    2  A    between atoms: C8_8  and  O9_9 
REMARK    3  A    between atoms: C10_11  and  O11_12 
REMARK    4  A    between atoms: C16_18  and  O17_19 
REMARK    5  A    between atoms: C19_22  and  O20_23 
ROOT
HETATM    1  O1          0      44.371  12.099 -14.137  1.00  0.00    -0.286 OA
HETATM    2  C2          0      45.448  12.316 -14.758  1.00  0.00     0.201 C 
HETATM    3  C3          0      45.921  11.479 -15.754  1.00  0.00     0.067 C 
HETATM    4  C4          0      47.160  11.684 -16.350  1.00  0.00     0.103 C 
HETATM    5  O13         0      47.887  12.719 -15.964  1.00  0.00    -0.307 OA
HETATM    6  C14         0      47.501  13.522 -14.998  1.00  0.00     0.107 C 
HETATM    7  C15         0      48.397  14.340 -14.325  1.00  0.00     0.049 C 
HETATM    8  C16         0      48.040  14.989 -13.150  1.00  0.00     0.093 C 
HETATM    9  C18         0      46.677  15.212 -12.993  1.00  0.00     0.048 C 
HETATM   10  C19         0      45.752  14.443 -13.687  1.00  0.00     0.096 C 
HETATM   11  C21         0      46.187  13.470 -14.545  1.00  0.00     0.084 C 
ENDROOT
BRANCH  10  12
HETATM   12  O20         0      44.445  14.363 -13.218  1.00  0.00    -0.359 OA
HETATM   13  H20         0      43.788  13.990 -13.793  1.00  0.00     0.218 HD
ENDBRANCH  10  12
BRANCH   4  14
HETATM   14  C5          0      47.841  10.511 -16.902  1.00  0.00     0.025 C 
HETATM   15  C6          0      49.187  10.253 -16.686  1.00  0.00     0.004 C 
HETATM   16  C7          0      49.566   8.928 -16.491  1.00  0.00     0.026 C 
HETATM   17  C8          0      48.661   7.882 -16.638  1.00  0.00     0.112 C 
HETATM   18  C10         0      47.568   8.169 -17.444  1.00  0.00     0.112 C 
HETATM   19  C12         0      47.159   9.493 -17.554  1.00  0.00     0.028 C 
BRANCH  17  20
HETATM   20  O9          0      48.764   6.742 -15.861  1.00  0.00    -0.357 OA
HETATM   21  H9          0      49.459   6.594 -15.230  1.00  0.00     0.218 HD
ENDBRANCH  17  20
BRANCH  18  22
HETATM   22  O11         0      46.737   7.109 -17.777  1.00  0.00    -0.357 OA
HETATM   23  H11         0      45.935   7.321 -18.241  1.00  0.00     0.218 HD
ENDBRANCH  18  22
ENDBRANCH   4  14
BRANCH   8  24
HETATM   24  O17         0      48.931  15.098 -12.077  1.00  0.00    -0.359 OA
HETATM   25  H17         0      49.859  15.250 -12.212  1.00  0.00     0.218 HD
ENDBRANCH   8  24
TORSDOF 5
ENDMDL
MODEL 5
REMARK VINA RESULT:      -4.0      1.927      3.570
REMARK  5 active torsions:
REMARK  status: ('A' for Active; 'I' for Inactive)
REMARK    1  A    between atoms: C4_4  and  C5_5 
REMARK    2  A    between atoms: C8_8  and  O9_9 
REMARK    3  A    between atoms: C10_11  and  O11_12 
REMARK    4  A    between atoms: C16_18  and  O17_19 
REMARK    5  A    between atoms: C19_22  and  O20_23 
ROOT
HETATM    1  O1          0      46.790   3.737 -17.738  1.00  0.00    -0.286 OA
HETATM    2  C2          0      47.102   4.691 -16.974  1.00  0.00     0.201 C 
HETATM    3  C3          0      46.319   5.079 -15.900  1.00  0.00     0.067 C 
HETATM    4  C4          0      46.632   6.197 -15.136  1.00  0.00     0.103 C 
HETATM    5  O13         0      47.717   6.888 -15.438  1.00  0.00    -0.307 OA
HETATM    6  C14         0      48.475   6.585 -16.469  1.00  0.00     0.107 C 
HETATM    7  C15         0      49.354   7.503 -17.026  1.00  0.00     0.049 C 
HETATM    8  C16         0      49.957   7.271 -18.256  1.00  0.00     0.093 C 
HETATM    9  C18         0      50.066   5.932 -18.613  1.00  0.00     0.048 C 
HETATM   10  C19         0      49.233   4.980 -18.041  1.00  0.00     0.096 C 
HETATM   11  C21         0      48.309   5.360 -17.105  1.00  0.00     0.084 C 
ENDROOT
BRANCH  10  12
HETATM   12  O20         0      49.041   3.765 -18.691  1.00  0.00    -0.359 OA
HETATM   13  H20         0      48.472   3.125 -18.281  1.00  0.00     0.218 HD
ENDBRANCH  10  12
BRANCH   4  14
HETATM   14  C5          0      45.526   6.881 -14.464  1.00  0.00     0.025 C 
HETATM   15  C6          0      45.237   8.222 -14.666  1.00  0.00     0.004 C 
HETATM   16  C7          0      43.896   8.593 -14.714  1.00  0.00     0.026 C 
HETATM   17  C8          0      42.879   7.687 -14.437  1.00  0.00     0.112 C 
HETATM   18  C10         0      43.262   6.606 -13.655  1.00  0.00     0.112 C 
HETATM   19  C12         0      44.592   6.203 -13.691  1.00  0.00     0.028 C 
BRANCH  17  20
HETATM   20  O9          0      41.657   7.774 -15.081  1.00  0.00    -0.357 OA
HETATM   21  H9          0      40.824   7.833 -14.627  1.00  0.00     0.218 HD
ENDBRANCH  17  20
BRANCH  18  22
HETATM   22  O11         0      42.251   5.775 -13.193  1.00  0.00    -0.357 OA
HETATM   23  H11         0      42.033   5.023 -13.731  1.00  0.00     0.218 HD
ENDBRANCH  18  22
ENDBRANCH   4  14
BRANCH   8  24
HETATM   24  O17         0      50.125   8.298 -19.191  1.00  0.00    -0.359 OA
HETATM   25  H17         0      50.320   9.189 -18.925  1.00  0.00     0.218 HD
ENDBRANCH   8  24
TORSDOF 5
ENDMDL
MODEL 6
REMARK VINA RESULT:      -3.8      2.831      6.592
REMARK  5 active torsions:
REMARK  status: ('A' for Active; 'I' for Inactive)
REMARK    1  A    between atoms: C4_4  and  C5_5 
REMARK    2  A    between atoms: C8_8  and  O9_9 
REMARK    3  A    between atoms: C10_11  and  O11_12 
REMARK    4  A    between atoms: C16_18  and  O17_19 
REMARK    5  A    between atoms: C19_22  and  O20_23 
ROOT
HETATM    1  O1          0      45.414   7.569 -14.896  1.00  0.00    -0.286 OA
HETATM    2  C2          0      46.396   6.992 -15.439  1.00  0.00     0.201 C 
HETATM    3  C3          0      47.587   7.641 -15.718  1.00  0.00     0.067 C 
HETATM    4  C4          0      48.616   7.010 -16.408  1.00  0.00     0.103 C 
HETATM    5  O13         0      48.451   5.755 -16.785  1.00  0.00    -0.307 OA
HETATM    6  C14         0      47.327   5.104 -16.578  1.00  0.00     0.107 C 
HETATM    7  C15         0      46.998   3.965 -17.298  1.00  0.00     0.049 C 
HETATM    8  C16         0      45.715   3.433 -17.261  1.00  0.00     0.093 C 
HETATM    9  C18         0      44.983   3.744 -16.122  1.00  0.00     0.048 C 
HETATM   10  C19         0      45.314   4.851 -15.351  1.00  0.00     0.096 C 
HETATM   11  C21         0      46.380   5.632 -15.707  1.00  0.00     0.084 C 
ENDROOT
BRANCH  10  12
HETATM   12  O20         0      44.358   5.400 -14.503  1.00  0.00    -0.359 OA
HETATM   13  H20         0      43.487   5.020 -14.508  1.00  0.00     0.218 HD
ENDBRANCH  10  12
BRANCH   4  14
HETATM   14  C5          0      49.529   7.861 -17.173  1.00  0.00     0.025 C 
HETATM   15  C6          0      49.994   7.522 -18.435  1.00  0.00     0.004 C 
HETATM   16  C7          0      50.125   8.544 -19.370  1.00  0.00     0.026 C 
HETATM   17  C8          0      49.929   9.877 -19.026  1.00  0.00     0.112 C 
HETATM   18  C10         0      50.099  10.158 -17.677  1.00  0.00     0.112 C 
HETATM   19  C12         0      49.879   9.140 -16.757  1.00  0.00     0.028 C 
BRANCH  17  20
HETATM   20  O9          0      49.402  10.775 -19.937  1.00  0.00    -0.357 OA
HETATM   21  H9          0      49.901  11.482 -20.330  1.00  0.00     0.218 HD
ENDBRANCH  17  20
BRANCH  18  22
HETATM   22  O11         0      50.103  11.496 -17.309  1.00  0.00    -0.357 OA
HETATM   23  H11         0      50.312  11.693 -16.403  1.00  0.00     0.218 HD
ENDBRANCH  18  22
ENDBRANCH   4  14
BRANCH   8  24
HETATM   24  O17         0      45.103   2.924 -18.412  1.00  0.00    -0.359 OA
HETATM   25  H17         0      44.634   2.098 -18.404  1.00  0.00     0.218 HD
ENDBRANCH   8  24
TORSDOF 5
ENDMDL
MODEL 7
REMARK VINA RESULT:      -3.8      2.376      6.779
REMARK  5 active torsions:
REMARK  status: ('A' for Active; 'I' for Inactive)
REMARK    1  A    between atoms: C4_4  and  C5_5 
REMARK    2  A    between atoms: C8_8  and  O9_9 
REMARK    3  A    between atoms: C10_11  and  O11_12 
REMARK    4  A    between atoms: C16_18  and  O17_19 
REMARK    5  A    between atoms: C19_22  and  O20_23 
ROOT
HETATM    1  O1          0      44.967   9.571 -16.411  1.00  0.00    -0.286 OA
HETATM    2  C2          0      45.725   8.658 -15.984  1.00  0.00     0.201 C 
HETATM    3  C3          0      47.022   8.486 -16.439  1.00  0.00     0.067 C 
HETATM    4  C4          0      47.801   7.410 -16.029  1.00  0.00     0.103 C 
HETATM    5  O13         0      47.290   6.547 -15.168  1.00  0.00    -0.307 OA
HETATM    6  C14         0      46.052   6.643 -14.734  1.00  0.00     0.107 C 
HETATM    7  C15         0      45.390   5.563 -14.170  1.00  0.00     0.049 C 
HETATM    8  C16         0      44.018   5.592 -13.949  1.00  0.00     0.093 C 
HETATM    9  C18         0      43.473   6.863 -13.813  1.00  0.00     0.048 C 
HETATM   10  C19         0      44.132   7.973 -14.324  1.00  0.00     0.096 C 
HETATM   11  C21         0      45.337   7.816 -14.954  1.00  0.00     0.084 C 
ENDROOT
BRANCH  10  12
HETATM   12  O20         0      43.412   9.137 -14.575  1.00  0.00    -0.359 OA
HETATM   13  H20         0      42.656   9.078 -15.146  1.00  0.00     0.218 HD
ENDBRANCH  10  12
BRANCH   4  14
HETATM   14  C5          0      48.850   6.955 -16.944  1.00  0.00     0.025 C 
HETATM   15  C6          0      49.215   5.622 -17.066  1.00  0.00     0.004 C 
HETATM   16  C7          0      49.526   5.153 -18.338  1.00  0.00     0.026 C 
HETATM   17  C8          0      49.603   6.008 -19.432  1.00  0.00     0.112 C 
HETATM   18  C10         0      49.851   7.337 -19.113  1.00  0.00     0.112 C 
HETATM   19  C12         0      49.452   7.801 -17.865  1.00  0.00     0.028 C 
BRANCH  17  20
HETATM   20  O9          0      49.246   5.576 -20.697  1.00  0.00    -0.357 OA
HETATM   21  H9          0      49.710   5.822 -21.489  1.00  0.00     0.218 HD
ENDBRANCH  17  20
BRANCH  18  22
HETATM   22  O11         0      50.125   8.196 -20.168  1.00  0.00    -0.357 OA
HETATM   23  H11         0      50.913   8.723 -20.100  1.00  0.00     0.218 HD
ENDBRANCH  18  22
ENDBRANCH   4  14
BRANCH   8  24
HETATM   24  O17         0      43.217   4.470 -14.186  1.00  0.00    -0.359 OA
HETATM   25  H17         0      42.277   4.490 -14.051  1.00  0.00     0.218 HD
ENDBRANCH   8  24
TORSDOF 5
ENDMDL
MODEL 8
REMARK VINA RESULT:      -3.8      3.134      5.830
REMARK  5 active torsions:
REMARK  status: ('A' for Active; 'I' for Inactive)
REMARK    1  A    between atoms: C4_4  and  C5_5 
REMARK    2  A    between atoms: C8_8  and  O9_9 
REMARK    3  A    between atoms: C10_11  and  O11_12 
REMARK    4  A    between atoms: C16_18  and  O17_19 
REMARK    5  A    between atoms: C19_22  and  O20_23 
ROOT
HETATM    1  O1          0      45.435   4.825 -16.967  1.00  0.00    -0.286 OA
HETATM    2  C2          0      46.628   5.210 -16.825  1.00  0.00     0.201 C 
HETATM    3  C3          0      46.960   6.448 -16.301  1.00  0.00     0.067 C 
HETATM    4  C4          0      48.278   6.888 -16.250  1.00  0.00     0.103 C 
HETATM    5  O13         0      49.231   6.090 -16.698  1.00  0.00    -0.307 OA
HETATM    6  C14         0      48.968   4.921 -17.239  1.00  0.00     0.107 C 
HETATM    7  C15         0      49.882   4.270 -18.054  1.00  0.00     0.049 C 
HETATM    8  C16         0      49.512   3.173 -18.823  1.00  0.00     0.093 C 
HETATM    9  C18         0      48.411   2.469 -18.349  1.00  0.00     0.048 C 
HETATM   10  C19         0      47.501   3.076 -17.494  1.00  0.00     0.096 C 
HETATM   11  C21         0      47.698   4.372 -17.101  1.00  0.00     0.084 C 
ENDROOT
BRANCH  10  12
HETATM   12  O20         0      46.220   2.546 -17.378  1.00  0.00    -0.359 OA
HETATM   13  H20         0      45.685   2.500 -18.161  1.00  0.00     0.218 HD
ENDBRANCH  10  12
BRANCH   4  14
HETATM   14  C5          0      48.502   8.335 -16.272  1.00  0.00     0.025 C 
HETATM   15  C6          0      49.755   8.899 -16.466  1.00  0.00     0.004 C 
HETATM   16  C7          0      49.829  10.054 -17.238  1.00  0.00     0.026 C 
HETATM   17  C8          0      48.685  10.703 -17.691  1.00  0.00     0.112 C 
HETATM   18  C10         0      47.542  10.451 -16.945  1.00  0.00     0.112 C 
HETATM   19  C12         0      47.458   9.250 -16.250  1.00  0.00     0.028 C 
BRANCH  17  20
HETATM   20  O9          0      48.680  11.363 -18.907  1.00  0.00    -0.357 OA
HETATM   21  H9          0      49.421  11.382 -19.501  1.00  0.00     0.218 HD
ENDBRANCH  17  20
BRANCH  18  22
HETATM   22  O11         0      46.421  11.216 -17.236  1.00  0.00    -0.357 OA
HETATM   23  H11         0      46.329  12.039 -16.770  1.00  0.00     0.218 HD
ENDBRANCH  18  22
ENDBRANCH   4  14
BRANCH   8  24
HETATM   24  O17         0      49.988   3.002 -20.127  1.00  0.00    -0.359 OA
HETATM   25  H17         0      49.911   3.688 -20.781  1.00  0.00     0.218 HD
ENDBRANCH   8  24
TORSDOF 5
ENDMDL
MODEL 9
REMARK VINA RESULT:      -3.7      2.217      6.683
REMARK  5 active torsions:
REMARK  status: ('A' for Active; 'I' for Inactive)
REMARK    1  A    between atoms: C4_4  and  C5_5 
REMARK    2  A    between atoms: C8_8  and  O9_9 
REMARK    3  A    between atoms: C10_11  and  O11_12 
REMARK    4  A    between atoms: C16_18  and  O17_19 
REMARK    5  A    between atoms: C19_22  and  O20_23 
ROOT
HETATM    1  O1          0      42.961   7.583 -15.855  1.00  0.00    -0.286 OA
HETATM    2  C2          0      43.990   7.161 -15.259  1.00  0.00     0.201 C 
HETATM    3  C3          0      45.269   7.322 -15.763  1.00  0.00     0.067 C 
HETATM    4  C4          0      46.375   6.759 -15.138  1.00  0.00     0.103 C 
HETATM    5  O13         0      46.193   6.071 -14.024  1.00  0.00    -0.307 OA
HETATM    6  C14         0      44.996   5.856 -13.523  1.00  0.00     0.107 C 
HETATM    7  C15         0      44.756   4.833 -12.617  1.00  0.00     0.049 C 
HETATM    8  C16         0      43.461   4.449 -12.289  1.00  0.00     0.093 C 
HETATM    9  C18         0      42.494   5.430 -12.469  1.00  0.00     0.048 C 
HETATM   10  C19         0      42.720   6.493 -13.333  1.00  0.00     0.096 C 
HETATM   11  C21         0      43.912   6.584 -14.000  1.00  0.00     0.084 C 
ENDROOT
BRANCH  10  12
HETATM   12  O20         0      41.635   7.204 -13.836  1.00  0.00    -0.359 OA
HETATM   13  H20         0      41.217   6.879 -14.625  1.00  0.00     0.218 HD
ENDBRANCH  10  12
BRANCH   4  14
HETATM   14  C5          0      47.532   6.446 -15.978  1.00  0.00     0.025 C 
HETATM   15  C6          0      47.649   5.258 -16.685  1.00  0.00     0.004 C 
HETATM   16  C7          0      48.215   5.316 -17.955  1.00  0.00     0.026 C 
HETATM   17  C8          0      48.769   6.490 -18.453  1.00  0.00     0.112 C 
HETATM   18  C10         0      49.170   7.399 -17.483  1.00  0.00     0.112 C 
HETATM   19  C12         0      48.528   7.375 -16.250  1.00  0.00     0.028 C 
BRANCH  17  20
HETATM   20  O9          0      48.714   6.783 -19.804  1.00  0.00    -0.357 OA
HETATM   21  H9          0      48.367   7.595 -20.154  1.00  0.00     0.218 HD
ENDBRANCH  17  20
BRANCH  18  22
HETATM   22  O11         0      49.898   8.499 -17.914  1.00  0.00    -0.357 OA
HETATM   23  H11         0      49.607   8.919 -18.715  1.00  0.00     0.218 HD
ENDBRANCH  18  22
ENDBRANCH   4  14
BRANCH   8  24
HETATM   24  O17         0      43.120   3.102 -12.123  1.00  0.00    -0.359 OA
HETATM   25  H17         0      42.524   2.661 -12.716  1.00  0.00     0.218 HD
ENDBRANCH   8  24
TORSDOF 5
ENDMDL
