MODEL 1
REMARK VINA RESULT:      -0.3      0.000      0.000
REMARK  5 active torsions:
REMARK  status: ('A' for Active; 'I' for Inactive)
REMARK    1  A    between atoms: C4_4  and  C5_5 
REMARK    2  A    between atoms: C8_8  and  O9_9 
REMARK    3  A    between atoms: C10_11  and  O11_12 
REMARK    4  A    between atoms: C16_18  and  O17_19 
REMARK    5  A    between atoms: C19_22  and  O20_23 
ROOT
HETATM    1  O1          0      15.249  48.114 -14.965  1.00  0.00    -0.286 OA
HETATM    2  C2          0      16.310  48.659 -15.377  1.00  0.00     0.201 C 
HETATM    3  C3          0      16.735  48.576 -16.691  1.00  0.00     0.067 C 
HETATM    4  C4          0      17.958  49.098 -17.096  1.00  0.00     0.103 C 
HETATM    5  O13         0      18.717  49.705 -16.201  1.00  0.00    -0.307 OA
HETATM    6  C14         0      18.378  49.779 -14.932  1.00  0.00     0.107 C 
HETATM    7  C15         0      19.311  50.041 -13.940  1.00  0.00     0.049 C 
HETATM    8  C16         0      19.004  49.868 -12.596  1.00  0.00     0.093 C 
HETATM    9  C18         0      17.652  49.951 -12.288  1.00  0.00     0.048 C 
HETATM   10  C19         0      16.691  49.740 -13.267  1.00  0.00     0.096 C 
HETATM   11  C21         0      17.078  49.465 -14.550  1.00  0.00     0.084 C 
ENDROOT
BRANCH  10  12
HETATM   12  O20         0      15.397  49.395 -12.888  1.00  0.00    -0.359 OA
HETATM   13  H20         0      14.947  49.963 -12.274  1.00  0.00     0.218 HD
ENDBRANCH  10  12
BRANCH   4  14
HETATM   14  C5          0      18.597  48.481 -18.260  1.00  0.00     0.025 C 
HETATM   15  C6          0      19.672  47.609 -18.154  1.00  0.00     0.004 C 
HETATM   16  C7          0      19.708  46.523 -19.022  1.00  0.00     0.026 C 
HETATM   17  C8          0      18.782  46.379 -20.050  1.00  0.00     0.112 C 
HETATM   18  C10         0      18.182  47.562 -20.459  1.00  0.00     0.112 C 
HETATM   19  C12         0      18.083  48.603 -19.544  1.00  0.00     0.028 C 
BRANCH  17  20
HETATM   20  O9          0      18.364  45.124 -20.456  1.00  0.00    -0.357 OA
HETATM   21  H9          0      18.259  44.386 -19.867  1.00  0.00     0.218 HD
ENDBRANCH  17  20
BRANCH  18  22
HETATM   22  O11         0      17.396  47.505 -21.601  1.00  0.00    -0.357 OA
HETATM   23  H11         0      17.632  48.086 -22.315  1.00  0.00     0.218 HD
ENDBRANCH  18  22
ENDBRANCH   4  14
BRANCH   8  24
HETATM   24  O17         0      19.931  49.322 -11.701  1.00  0.00    -0.359 OA
HETATM   25  H17         0      19.663  48.752 -10.990  1.00  0.00     0.218 HD
ENDBRANCH   8  24
TORSDOF 5
ENDMDL
MODEL 2
REMARK VINA RESULT:      -0.3      1.651      2.331
REMARK  5 active torsions:
REMARK  status: ('A' for Active; 'I' for Inactive)
REMARK    1  A    between atoms: C4_4  and  C5_5 
REMARK    2  A    between atoms: C8_8  and  O9_9 
REMARK    3  A    between atoms: C10_11  and  O11_12 
REMARK    4  A    between atoms: C16_18  and  O17_19 
REMARK    5  A    between atoms: C19_22  and  O20_23 
ROOT
HETATM    1  O1          0      14.707  47.467 -12.900  1.00  0.00    -0.286 OA
HETATM    2  C2          0      15.420  48.342 -13.465  1.00  0.00     0.201 C 
HETATM    3  C3          0      15.307  48.648 -14.810  1.00  0.00     0.067 C 
HETATM    4  C4          0      16.173  49.542 -15.429  1.00  0.00     0.103 C 
HETATM    5  O13         0      17.110  50.124 -14.702  1.00  0.00    -0.307 OA
HETATM    6  C14         0      17.284  49.842 -13.429  1.00  0.00     0.107 C 
HETATM    7  C15         0      18.474  50.125 -12.774  1.00  0.00     0.049 C 
HETATM    8  C16         0      18.747  49.601 -11.516  1.00  0.00     0.093 C 
HETATM    9  C18         0      17.627  49.264 -10.765  1.00  0.00     0.048 C 
HETATM   10  C19         0      16.409  49.020 -11.385  1.00  0.00     0.096 C 
HETATM   11  C21         0      16.306  49.129 -12.745  1.00  0.00     0.084 C 
ENDROOT
BRANCH  10  12
HETATM   12  O20         0      15.441  48.280 -10.714  1.00  0.00    -0.359 OA
HETATM   13  H20         0      15.053  47.540 -11.166  1.00  0.00     0.218 HD
ENDBRANCH  10  12
BRANCH   4  14
HETATM   14  C5          0      16.401  49.369 -16.865  1.00  0.00     0.025 C 
HETATM   15  C6          0      17.646  49.535 -17.454  1.00  0.00     0.004 C 
HETATM   16  C7          0      17.995  48.663 -18.480  1.00  0.00     0.026 C 
HETATM   17  C8          0      17.089  47.743 -18.996  1.00  0.00     0.112 C 
HETATM   18  C10         0      15.754  48.074 -18.804  1.00  0.00     0.112 C 
HETATM   19  C12         0      15.423  48.879 -17.720  1.00  0.00     0.028 C 
BRANCH  17  20
HETATM   20  O9          0      17.516  46.512 -19.462  1.00  0.00    -0.357 OA
HETATM   21  H9          0      18.085  45.931 -18.972  1.00  0.00     0.218 HD
ENDBRANCH  17  20
BRANCH  18  22
HETATM   22  O11         0      14.812  47.294 -19.459  1.00  0.00    -0.357 OA
HETATM   23  H11         0      15.105  46.451 -19.786  1.00  0.00     0.218 HD
ENDBRANCH  18  22
ENDBRANCH   4  14
BRANCH   8  24
HETATM   24  O17         0      20.025  49.141 -11.179  1.00  0.00    -0.359 OA
HETATM   25  H17         0      20.736  49.140 -11.808  1.00  0.00     0.218 HD
ENDBRANCH   8  24
TORSDOF 5
ENDMDL
MODEL 3
REMARK VINA RESULT:      -0.3      3.854      7.292
REMARK  5 active torsions:
REMARK  status: ('A' for Active; 'I' for Inactive)
REMARK    1  A    between atoms: C4_4  and  C5_5 
REMARK    2  A    between atoms: C8_8  and  O9_9 
REMARK    3  A    between atoms: C10_11  and  O11_12 
REMARK    4  A    between atoms: C16_18  and  O17_19 
REMARK    5  A    between atoms: C19_22  and  O20_23 
ROOT
HETATM    1  O1          0      18.929  43.243 -12.850  1.00  0.00    -0.286 OA
HETATM    2  C2          0      19.072  44.220 -13.636  1.00  0.00     0.201 C 
HETATM    3  C3          0      19.613  45.430 -13.237  1.00  0.00     0.067 C 
HETATM    4  C4          0      19.666  46.523 -14.094  1.00  0.00     0.103 C 
HETATM    5  O13         0      19.203  46.387 -15.325  1.00  0.00    -0.307 OA
HETATM    6  C14         0      18.645  45.272 -15.742  1.00  0.00     0.107 C 
HETATM    7  C15         0      17.817  45.241 -16.855  1.00  0.00     0.049 C 
HETATM    8  C16         0      17.034  44.129 -17.141  1.00  0.00     0.093 C 
HETATM    9  C18         0      17.502  42.931 -16.616  1.00  0.00     0.048 C 
HETATM   10  C19         0      18.369  42.926 -15.532  1.00  0.00     0.096 C 
HETATM   11  C21         0      18.780  44.112 -14.987  1.00  0.00     0.084 C 
ENDROOT
BRANCH  10  12
HETATM   12  O20         0      18.482  41.777 -14.756  1.00  0.00    -0.359 OA
HETATM   13  H20         0      19.292  41.285 -14.804  1.00  0.00     0.218 HD
ENDBRANCH  10  12
BRANCH   4  14
HETATM   14  C5          0      19.665  47.854 -13.484  1.00  0.00     0.025 C 
HETATM   15  C6          0      19.071  48.955 -14.083  1.00  0.00     0.004 C 
HETATM   16  C7          0      18.406  49.857 -13.259  1.00  0.00     0.026 C 
HETATM   17  C8          0      18.442  49.743 -11.874  1.00  0.00     0.112 C 
HETATM   18  C10         0      19.531  49.038 -11.378  1.00  0.00     0.112 C 
HETATM   19  C12         0      20.125  48.081 -12.193  1.00  0.00     0.028 C 
BRANCH  17  20
HETATM   20  O9          0      17.359  50.124 -11.102  1.00  0.00    -0.357 OA
HETATM   21  H9          0      17.436  50.499 -10.233  1.00  0.00     0.218 HD
ENDBRANCH  17  20
BRANCH  18  22
HETATM   22  O11         0      19.718  49.054 -10.004  1.00  0.00    -0.357 OA
HETATM   23  H11         0      20.142  49.822  -9.636  1.00  0.00     0.218 HD
ENDBRANCH  18  22
ENDBRANCH   4  14
BRANCH   8  24
HETATM   24  O17         0      15.725  44.262 -17.618  1.00  0.00    -0.359 OA
HETATM   25  H17         0      15.433  45.051 -18.060  1.00  0.00     0.218 HD
ENDBRANCH   8  24
TORSDOF 5
ENDMDL
MODEL 4
REMARK VINA RESULT:      -0.3      3.243      5.239
REMARK  5 active torsions:
REMARK  status: ('A' for Active; 'I' for Inactive)
REMARK    1  A    between atoms: C4_4  and  C5_5 
REMARK    2  A    between atoms: C8_8  and  O9_9 
REMARK    3  A    between atoms: C10_11  and  O11_12 
REMARK    4  A    between atoms: C16_18  and  O17_19 
REMARK    5  A    between atoms: C19_22  and  O20_23 
ROOT
HETATM    1  O1          0      17.839  49.103 -16.363  1.00  0.00    -0.286 OA
HETATM    2  C2          0      17.765  48.237 -15.447  1.00  0.00     0.201 C 
HETATM    3  C3          0      16.957  47.117 -15.538  1.00  0.00     0.067 C 
HETATM    4  C4          0      16.815  46.233 -14.474  1.00  0.00     0.103 C 
HETATM    5  O13         0      17.487  46.467 -13.361  1.00  0.00    -0.307 OA
HETATM    6  C14         0      18.239  47.535 -13.209  1.00  0.00     0.107 C 
HETATM    7  C15         0      18.613  47.993 -11.954  1.00  0.00     0.049 C 
HETATM    8  C16         0      19.184  49.249 -11.784  1.00  0.00     0.093 C 
HETATM    9  C18         0      19.825  49.759 -12.907  1.00  0.00     0.048 C 
HETATM   10  C19         0      19.507  49.290 -14.175  1.00  0.00     0.096 C 
HETATM   11  C21         0      18.568  48.306 -14.319  1.00  0.00     0.084 C 
ENDROOT
BRANCH  10  12
HETATM   12  O20         0      19.807  50.074 -15.284  1.00  0.00    -0.359 OA
HETATM   13  H20         0      20.714  50.126 -15.561  1.00  0.00     0.218 HD
ENDBRANCH  10  12
BRANCH   4  14
HETATM   14  C5          0      15.566  45.473 -14.397  1.00  0.00     0.025 C 
HETATM   15  C6          0      14.954  45.153 -13.194  1.00  0.00     0.004 C 
HETATM   16  C7          0      13.564  45.200 -13.145  1.00  0.00     0.026 C 
HETATM   17  C8          0      12.802  45.425 -14.286  1.00  0.00     0.112 C 
HETATM   18  C10         0      13.434  45.102 -15.480  1.00  0.00     0.112 C 
HETATM   19  C12         0      14.823  45.146 -15.524  1.00  0.00     0.028 C 
BRANCH  17  20
HETATM   20  O9          0      11.604  46.113 -14.214  1.00  0.00    -0.357 OA
HETATM   21  H9          0      10.853  45.814 -13.713  1.00  0.00     0.218 HD
ENDBRANCH  17  20
BRANCH  18  22
HETATM   22  O11         0      12.658  45.128 -16.629  1.00  0.00    -0.357 OA
HETATM   23  H11         0      12.801  44.432 -17.260  1.00  0.00     0.218 HD
ENDBRANCH  18  22
ENDBRANCH   4  14
BRANCH   8  24
HETATM   24  O17         0      18.846  50.062 -10.697  1.00  0.00    -0.359 OA
HETATM   25  H17         0      19.489  50.616 -10.270  1.00  0.00     0.218 HD
ENDBRANCH   8  24
TORSDOF 5
ENDMDL
MODEL 5
REMARK VINA RESULT:      -0.3      4.633      6.937
REMARK  5 active torsions:
REMARK  status: ('A' for Active; 'I' for Inactive)
REMARK    1  A    between atoms: C4_4  and  C5_5 
REMARK    2  A    between atoms: C8_8  and  O9_9 
REMARK    3  A    between atoms: C10_11  and  O11_12 
REMARK    4  A    between atoms: C16_18  and  O17_19 
REMARK    5  A    between atoms: C19_22  and  O20_23 
ROOT
HETATM    1  O1          0      13.691  45.599 -12.009  1.00  0.00    -0.286 OA
HETATM    2  C2          0      14.743  45.937 -11.402  1.00  0.00     0.201 C 
HETATM    3  C3          0      15.253  47.223 -11.441  1.00  0.00     0.067 C 
HETATM    4  C4          0      16.468  47.544 -10.847  1.00  0.00     0.103 C 
HETATM    5  O13         0      17.136  46.595 -10.216  1.00  0.00    -0.307 OA
HETATM    6  C14         0      16.716  45.349 -10.181  1.00  0.00     0.107 C 
HETATM    7  C15         0      17.572  44.298  -9.885  1.00  0.00     0.049 C 
HETATM    8  C16         0      17.192  42.978 -10.097  1.00  0.00     0.093 C 
HETATM    9  C18         0      15.821  42.753 -10.092  1.00  0.00     0.048 C 
HETATM   10  C19         0      14.935  43.793 -10.337  1.00  0.00     0.096 C 
HETATM   11  C21         0      15.414  45.053 -10.570  1.00  0.00     0.084 C 
ENDROOT
BRANCH  10  12
HETATM   12  O20         0      13.641  43.500 -10.757  1.00  0.00    -0.359 OA
HETATM   13  H20         0      13.420  42.590 -10.914  1.00  0.00     0.218 HD
ENDBRANCH  10  12
BRANCH   4  14
HETATM   14  C5          0      17.211  48.674 -11.409  1.00  0.00     0.025 C 
HETATM   15  C6          0      18.421  49.111 -10.891  1.00  0.00     0.004 C 
HETATM   16  C7          0      19.394  49.531 -11.792  1.00  0.00     0.026 C 
HETATM   17  C8          0      19.129  49.641 -13.153  1.00  0.00     0.112 C 
HETATM   18  C10         0      17.787  49.801 -13.471  1.00  0.00     0.112 C 
HETATM   19  C12         0      16.836  49.296 -12.593  1.00  0.00     0.028 C 
BRANCH  17  20
HETATM   20  O9          0      20.117  49.393 -14.090  1.00  0.00    -0.357 OA
HETATM   21  H9          0      21.004  49.137 -13.866  1.00  0.00     0.218 HD
ENDBRANCH  17  20
BRANCH  18  22
HETATM   22  O11         0      17.486  50.104 -14.792  1.00  0.00    -0.357 OA
HETATM   23  H11         0      18.205  50.398 -15.340  1.00  0.00     0.218 HD
ENDBRANCH  18  22
ENDBRANCH   4  14
BRANCH   8  24
HETATM   24  O17         0      18.090  42.034 -10.607  1.00  0.00    -0.359 OA
HETATM   25  H17         0      18.884  42.294 -11.060  1.00  0.00     0.218 HD
ENDBRANCH   8  24
TORSDOF 5
ENDMDL
MODEL 6
REMARK VINA RESULT:      -0.3      4.085      6.148
REMARK  5 active torsions:
REMARK  status: ('A' for Active; 'I' for Inactive)
REMARK    1  A    between atoms: C4_4  and  C5_5 
REMARK    2  A    between atoms: C8_8  and  O9_9 
REMARK    3  A    between atoms: C10_11  and  O11_12 
REMARK    4  A    between atoms: C16_18  and  O17_19 
REMARK    5  A    between atoms: C19_22  and  O20_23 
ROOT
HETATM    1  O1          0      15.177  44.434 -15.174  1.00  0.00    -0.286 OA
HETATM    2  C2          0      15.299  45.195 -14.175  1.00  0.00     0.201 C 
HETATM    3  C3          0      15.438  46.568 -14.290  1.00  0.00     0.067 C 
HETATM    4  C4          0      15.674  47.371 -13.180  1.00  0.00     0.103 C 
HETATM    5  O13         0      15.745  46.803 -11.989  1.00  0.00    -0.307 OA
HETATM    6  C14         0      15.658  45.501 -11.829  1.00  0.00     0.107 C 
HETATM    7  C15         0      16.120  44.873 -10.681  1.00  0.00     0.049 C 
HETATM    8  C16         0      16.260  43.492 -10.622  1.00  0.00     0.093 C 
HETATM    9  C18         0      15.451  42.781 -11.499  1.00  0.00     0.048 C 
HETATM   10  C19         0      14.932  43.392 -12.633  1.00  0.00     0.096 C 
HETATM   11  C21         0      15.207  44.710 -12.880  1.00  0.00     0.084 C 
ENDROOT
BRANCH  10  12
HETATM   12  O20         0      14.510  42.603 -13.699  1.00  0.00    -0.359 OA
HETATM   13  H20         0      14.952  42.708 -14.532  1.00  0.00     0.218 HD
ENDBRANCH  10  12
BRANCH   4  14
HETATM   14  C5          0      16.385  48.631 -13.404  1.00  0.00     0.025 C 
HETATM   15  C6          0      17.078  49.292 -12.400  1.00  0.00     0.004 C 
HETATM   16  C7          0      18.279  49.905 -12.742  1.00  0.00     0.026 C 
HETATM   17  C8          0      18.712  49.976 -14.062  1.00  0.00     0.112 C 
HETATM   18  C10         0      17.703  49.872 -15.009  1.00  0.00     0.112 C 
HETATM   19  C12         0      16.546  49.180 -14.669  1.00  0.00     0.028 C 
BRANCH  17  20
HETATM   20  O9          0      20.061  49.937 -14.369  1.00  0.00    -0.357 OA
HETATM   21  H9          0      20.470  50.492 -15.022  1.00  0.00     0.218 HD
ENDBRANCH  17  20
BRANCH  18  22
HETATM   22  O11         0      18.051  50.124 -16.329  1.00  0.00    -0.357 OA
HETATM   23  H11         0      17.409  49.902 -16.993  1.00  0.00     0.218 HD
ENDBRANCH  18  22
ENDBRANCH   4  14
BRANCH   8  24
HETATM   24  O17         0      17.355  42.897  -9.985  1.00  0.00    -0.359 OA
HETATM   25  H17         0      18.114  42.598 -10.472  1.00  0.00     0.218 HD
ENDBRANCH   8  24
TORSDOF 5
ENDMDL
MODEL 7
REMARK VINA RESULT:      -0.3      2.079      2.987
REMARK  5 active torsions:
REMARK  status: ('A' for Active; 'I' for Inactive)
REMARK    1  A    between atoms: C4_4  and  C5_5 
REMARK    2  A    between atoms: C8_8  and  O9_9 
REMARK    3  A    between atoms: C10_11  and  O11_12 
REMARK    4  A    between atoms: C16_18  and  O17_19 
REMARK    5  A    between atoms: C19_22  and  O20_23 
ROOT
HETATM    1  O1          0      16.158  46.098 -12.687  1.00  0.00    -0.286 OA
HETATM    2  C2          0      16.410  47.304 -12.963  1.00  0.00     0.201 C 
HETATM    3  C3          0      16.197  47.846 -14.218  1.00  0.00     0.067 C 
HETATM    4  C4          0      16.578  49.148 -14.524  1.00  0.00     0.103 C 
HETATM    5  O13         0      17.138  49.883 -13.580  1.00  0.00    -0.307 OA
HETATM    6  C14         0      17.397  49.405 -12.382  1.00  0.00     0.107 C 
HETATM    7  C15         0      18.319  50.007 -11.538  1.00  0.00     0.049 C 
HETATM    8  C16         0      18.775  49.366 -10.393  1.00  0.00     0.093 C 
HETATM    9  C18         0      17.914  48.406  -9.875  1.00  0.00     0.048 C 
HETATM   10  C19         0      16.949  47.817 -10.680  1.00  0.00     0.096 C 
HETATM   11  C21         0      16.833  48.196 -11.990  1.00  0.00     0.084 C 
ENDROOT
BRANCH  10  12
HETATM   12  O20         0      16.406  46.592 -10.305  1.00  0.00    -0.359 OA
HETATM   13  H20         0      15.832  46.152 -10.921  1.00  0.00     0.218 HD
ENDBRANCH  10  12
BRANCH   4  14
HETATM   14  C5          0      16.886  49.444 -15.924  1.00  0.00     0.025 C 
HETATM   15  C6          0      18.075  50.039 -16.323  1.00  0.00     0.004 C 
HETATM   16  C7          0      18.653  49.593 -17.507  1.00  0.00     0.026 C 
HETATM   17  C8          0      18.007  48.683 -18.337  1.00  0.00     0.112 C 
HETATM   18  C10         0      16.626  48.646 -18.193  1.00  0.00     0.112 C 
HETATM   19  C12         0      16.079  49.017 -16.970  1.00  0.00     0.028 C 
BRANCH  17  20
HETATM   20  O9          0      18.727  47.759 -19.073  1.00  0.00    -0.357 OA
HETATM   21  H9          0      19.339  47.141 -18.691  1.00  0.00     0.218 HD
ENDBRANCH  17  20
BRANCH  18  22
HETATM   22  O11         0      15.917  47.899 -19.123  1.00  0.00    -0.357 OA
HETATM   23  H11         0      14.984  48.067 -19.189  1.00  0.00     0.218 HD
ENDBRANCH  18  22
ENDBRANCH   4  14
BRANCH   8  24
HETATM   24  O17         0      20.117  49.439 -10.002  1.00  0.00    -0.359 OA
HETATM   25  H17         0      20.685  48.678 -10.025  1.00  0.00     0.218 HD
ENDBRANCH   8  24
TORSDOF 5
ENDMDL
MODEL 8
REMARK VINA RESULT:      -0.3      2.738      6.550
REMARK  5 active torsions:
REMARK  status: ('A' for Active; 'I' for Inactive)
REMARK    1  A    between atoms: C4_4  and  C5_5 
REMARK    2  A    between atoms: C8_8  and  O9_9 
REMARK    3  A    between atoms: C10_11  and  O11_12 
REMARK    4  A    between atoms: C16_18  and  O17_19 
REMARK    5  A    between atoms: C19_22  and  O20_23 
ROOT
HETATM    1  O1          0      12.856  46.603 -15.981  1.00  0.00    -0.286 OA
HETATM    2  C2          0      14.081  46.564 -15.683  1.00  0.00     0.201 C 
HETATM    3  C3          0      14.670  47.462 -14.809  1.00  0.00     0.067 C 
HETATM    4  C4          0      16.041  47.461 -14.577  1.00  0.00     0.103 C 
HETATM    5  O13         0      16.788  46.564 -15.196  1.00  0.00    -0.307 OA
HETATM    6  C14         0      16.286  45.714 -16.064  1.00  0.00     0.107 C 
HETATM    7  C15         0      17.083  45.061 -16.993  1.00  0.00     0.049 C 
HETATM    8  C16         0      16.526  44.369 -18.062  1.00  0.00     0.093 C 
HETATM    9  C18         0      15.225  43.924 -17.859  1.00  0.00     0.048 C 
HETATM   10  C19         0      14.415  44.524 -16.904  1.00  0.00     0.096 C 
HETATM   11  C21         0      14.907  45.550 -16.145  1.00  0.00     0.084 C 
ENDROOT
BRANCH  10  12
HETATM   12  O20         0      13.034  44.388 -17.002  1.00  0.00    -0.359 OA
HETATM   13  H20         0      12.500  44.771 -16.316  1.00  0.00     0.218 HD
ENDBRANCH  10  12
BRANCH   4  14
HETATM   14  C5          0      16.651  48.727 -14.168  1.00  0.00     0.025 C 
HETATM   15  C6          0      16.175  49.485 -13.109  1.00  0.00     0.004 C 
HETATM   16  C7          0      17.110  50.116 -12.295  1.00  0.00     0.026 C 
HETATM   17  C8          0      18.467  50.108 -12.601  1.00  0.00     0.112 C 
HETATM   18  C10         0      18.757  49.898 -13.943  1.00  0.00     0.112 C 
HETATM   19  C12         0      17.843  49.189 -14.713  1.00  0.00     0.028 C 
BRANCH  17  20
HETATM   20  O9          0      19.420  50.098 -11.598  1.00  0.00    -0.357 OA
HETATM   21  H9          0      19.587  49.350 -11.037  1.00  0.00     0.218 HD
ENDBRANCH  17  20
BRANCH  18  22
HETATM   22  O11         0      20.077  50.067 -14.334  1.00  0.00    -0.357 OA
HETATM   23  H11         0      20.331  50.934 -14.630  1.00  0.00     0.218 HD
ENDBRANCH  18  22
ENDBRANCH   4  14
BRANCH   8  24
HETATM   24  O17         0      17.097  44.416 -19.338  1.00  0.00    -0.359 OA
HETATM   25  H17         0      18.038  44.418 -19.464  1.00  0.00     0.218 HD
ENDBRANCH   8  24
TORSDOF 5
ENDMDL
MODEL 9
REMARK VINA RESULT:      -0.2      3.587      6.178
REMARK  5 active torsions:
REMARK  status: ('A' for Active; 'I' for Inactive)
REMARK    1  A    between atoms: C4_4  and  C5_5 
REMARK    2  A    between atoms: C8_8  and  O9_9 
REMARK    3  A    between atoms: C10_11  and  O11_12 
REMARK    4  A    between atoms: C16_18  and  O17_19 
REMARK    5  A    between atoms: C19_22  and  O20_23 
ROOT
HETATM    1  O1          0      13.267  46.598 -17.116  1.00  0.00    -0.286 OA
HETATM    2  C2          0      13.719  46.704 -15.943  1.00  0.00     0.201 C 
HETATM    3  C3          0      14.388  47.830 -15.496  1.00  0.00     0.067 C 
HETATM    4  C4          0      14.966  47.881 -14.232  1.00  0.00     0.103 C 
HETATM    5  O13         0      14.850  46.831 -13.439  1.00  0.00    -0.307 OA
HETATM    6  C14         0      14.258  45.723 -13.827  1.00  0.00     0.107 C 
HETATM    7  C15         0      14.475  44.514 -13.183  1.00  0.00     0.049 C 
HETATM    8  C16         0      14.055  43.313 -13.743  1.00  0.00     0.093 C 
HETATM    9  C18         0      12.997  43.420 -14.637  1.00  0.00     0.048 C 
HETATM   10  C19         0      12.723  44.628 -15.264  1.00  0.00     0.096 C 
HETATM   11  C21         0      13.490  45.726 -14.987  1.00  0.00     0.084 C 
ENDROOT
BRANCH  10  12
HETATM   12  O20         0      11.982  44.630 -16.442  1.00  0.00    -0.359 OA
HETATM   13  H20         0      11.801  45.467 -16.852  1.00  0.00     0.218 HD
ENDBRANCH  10  12
BRANCH   4  14
HETATM   14  C5          0      16.112  48.776 -14.055  1.00  0.00     0.025 C 
HETATM   15  C6          0      16.816  48.868 -12.864  1.00  0.00     0.004 C 
HETATM   16  C7          0      18.197  49.020 -12.941  1.00  0.00     0.026 C 
HETATM   17  C8          0      18.843  49.209 -14.158  1.00  0.00     0.112 C 
HETATM   18  C10         0      18.040  49.725 -15.167  1.00  0.00     0.112 C 
HETATM   19  C12         0      16.672  49.486 -15.109  1.00  0.00     0.028 C 
BRANCH  17  20
HETATM   20  O9          0      20.117  48.714 -14.369  1.00  0.00    -0.357 OA
HETATM   21  H9          0      20.350  47.797 -14.274  1.00  0.00     0.218 HD
ENDBRANCH  17  20
BRANCH  18  22
HETATM   22  O11         0      18.673  50.109 -16.340  1.00  0.00    -0.357 OA
HETATM   23  H11         0      19.615  50.230 -16.300  1.00  0.00     0.218 HD
ENDBRANCH  18  22
ENDBRANCH   4  14
BRANCH   8  24
HETATM   24  O17         0      14.846  42.161 -13.673  1.00  0.00    -0.359 OA
HETATM   25  H17         0      14.839  41.596 -12.909  1.00  0.00     0.218 HD
ENDBRANCH   8  24
TORSDOF 5
ENDMDL
