MODEL 1
REMARK VINA RESULT:      -0.0      0.000      0.000
REMARK  5 active torsions:
REMARK  status: ('A' for Active; 'I' for Inactive)
REMARK    1  A    between atoms: C4_4  and  C5_5 
REMARK    2  A    between atoms: C8_8  and  O9_9 
REMARK    3  A    between atoms: C10_11  and  O11_12 
REMARK    4  A    between atoms: C16_18  and  O17_19 
REMARK    5  A    between atoms: C19_22  and  O20_23 
ROOT
HETATM    1  O1          0      27.400 124.647 -35.527  1.00  0.00    -0.286 OA
HETATM    2  C2          0      26.351 123.951 -35.445  1.00  0.00     0.201 C 
HETATM    3  C3          0      26.189 122.944 -34.509  1.00  0.00     0.067 C 
HETATM    4  C4          0      25.065 122.125 -34.507  1.00  0.00     0.103 C 
HETATM    5  O13         0      24.126 122.333 -35.413  1.00  0.00    -0.307 OA
HETATM    6  C14         0      24.247 123.251 -36.347  1.00  0.00     0.107 C 
HETATM    7  C15         0      23.489 123.215 -37.509  1.00  0.00     0.049 C 
HETATM    8  C16         0      23.795 124.027 -38.594  1.00  0.00     0.093 C 
HETATM    9  C18         0      24.496 125.186 -38.282  1.00  0.00     0.048 C 
HETATM   10  C19         0      25.226 125.273 -37.105  1.00  0.00     0.096 C 
HETATM   11  C21         0      25.243 124.215 -36.236  1.00  0.00     0.084 C 
ENDROOT
BRANCH  10  12
HETATM   12  O20         0      26.245 126.215 -37.004  1.00  0.00    -0.359 OA
HETATM   13  H20         0      26.893 126.099 -36.320  1.00  0.00     0.218 HD
ENDBRANCH  10  12
BRANCH   4  14
HETATM   14  C5          0      25.217 120.781 -33.946  1.00  0.00     0.025 C 
HETATM   15  C6          0      24.427 119.709 -34.336  1.00  0.00     0.004 C 
HETATM   16  C7          0      25.038 118.465 -34.447  1.00  0.00     0.026 C 
HETATM   17  C8          0      26.357 118.262 -34.055  1.00  0.00     0.112 C 
HETATM   18  C10         0      26.833 119.177 -33.126  1.00  0.00     0.112 C 
HETATM   19  C12         0      26.261 120.444 -33.094  1.00  0.00     0.028 C 
BRANCH  17  20
HETATM   20  O9          0      27.160 117.348 -34.714  1.00  0.00    -0.357 OA
HETATM   21  H9          0      27.926 117.589 -35.222  1.00  0.00     0.218 HD
ENDBRANCH  17  20
BRANCH  18  22
HETATM   22  O11         0      28.072 118.913 -32.561  1.00  0.00    -0.357 OA
HETATM   23  H11         0      28.076 118.561 -31.678  1.00  0.00     0.218 HD
ENDBRANCH  18  22
ENDBRANCH   4  14
BRANCH   8  24
HETATM   24  O17         0      23.705 123.553 -39.908  1.00  0.00    -0.359 OA
HETATM   25  H17         0      23.434 122.663 -40.099  1.00  0.00     0.218 HD
ENDBRANCH   8  24
TORSDOF 5
ENDMDL
MODEL 2
REMARK VINA RESULT:      -0.0      2.742      3.487
REMARK  5 active torsions:
REMARK  status: ('A' for Active; 'I' for Inactive)
REMARK    1  A    between atoms: C4_4  and  C5_5 
REMARK    2  A    between atoms: C8_8  and  O9_9 
REMARK    3  A    between atoms: C10_11  and  O11_12 
REMARK    4  A    between atoms: C16_18  and  O17_19 
REMARK    5  A    between atoms: C19_22  and  O20_23 
ROOT
HETATM    1  O1          0      28.774 125.605 -32.748  1.00  0.00    -0.286 OA
HETATM    2  C2          0      27.682 124.979 -32.666  1.00  0.00     0.201 C 
HETATM    3  C3          0      27.363 124.162 -31.595  1.00  0.00     0.067 C 
HETATM    4  C4          0      26.199 123.403 -31.577  1.00  0.00     0.103 C 
HETATM    5  O13         0      25.372 123.486 -32.605  1.00  0.00    -0.307 OA
HETATM    6  C14         0      25.644 124.217 -33.664  1.00  0.00     0.107 C 
HETATM    7  C15         0      25.010 124.006 -34.880  1.00  0.00     0.049 C 
HETATM    8  C16         0      25.474 124.598 -36.048  1.00  0.00     0.093 C 
HETATM    9  C18         0      26.208 125.764 -35.864  1.00  0.00     0.048 C 
HETATM   10  C19         0      26.817 126.029 -34.644  1.00  0.00     0.096 C 
HETATM   11  C21         0      26.680 125.143 -33.611  1.00  0.00     0.084 C 
ENDROOT
BRANCH  10  12
HETATM   12  O20         0      27.874 126.932 -34.594  1.00  0.00    -0.359 OA
HETATM   13  H20         0      28.440 126.912 -33.832  1.00  0.00     0.218 HD
ENDBRANCH  10  12
BRANCH   4  14
HETATM   14  C5          0      26.211 122.176 -30.780  1.00  0.00     0.025 C 
HETATM   15  C6          0      25.402 121.086 -31.065  1.00  0.00     0.004 C 
HETATM   16  C7          0      25.945 119.817 -30.890  1.00  0.00     0.026 C 
HETATM   17  C8          0      27.201 119.633 -30.323  1.00  0.00     0.112 C 
HETATM   18  C10         0      27.633 120.679 -29.519  1.00  0.00     0.112 C 
HETATM   19  C12         0      27.138 121.953 -29.770  1.00  0.00     0.028 C 
BRANCH  17  20
HETATM   20  O9          0      28.012 118.584 -30.721  1.00  0.00    -0.357 OA
HETATM   21  H9          0      28.840 118.699 -31.173  1.00  0.00     0.218 HD
ENDBRANCH  17  20
BRANCH  18  22
HETATM   22  O11         0      28.789 120.468 -28.781  1.00  0.00    -0.357 OA
HETATM   23  H11         0      29.532 120.097 -29.242  1.00  0.00     0.218 HD
ENDBRANCH  18  22
ENDBRANCH   4  14
BRANCH   8  24
HETATM   24  O17         0      25.492 123.902 -37.261  1.00  0.00    -0.359 OA
HETATM   25  H17         0      25.519 122.953 -37.292  1.00  0.00     0.218 HD
ENDBRANCH   8  24
TORSDOF 5
ENDMDL
MODEL 3
REMARK VINA RESULT:       0.0      7.100      9.929
REMARK  5 active torsions:
REMARK  status: ('A' for Active; 'I' for Inactive)
REMARK    1  A    between atoms: C4_4  and  C5_5 
REMARK    2  A    between atoms: C8_8  and  O9_9 
REMARK    3  A    between atoms: C10_11  and  O11_12 
REMARK    4  A    between atoms: C16_18  and  O17_19 
REMARK    5  A    between atoms: C19_22  and  O20_23 
ROOT
HETATM    1  O1          0      29.851 118.198 -34.270  1.00  0.00    -0.286 OA
HETATM    2  C2          0      31.111 118.182 -34.340  1.00  0.00     0.201 C 
HETATM    3  C3          0      31.808 117.256 -35.097  1.00  0.00     0.067 C 
HETATM    4  C4          0      33.197 117.195 -35.076  1.00  0.00     0.103 C 
HETATM    5  O13         0      33.859 118.059 -34.327  1.00  0.00    -0.307 OA
HETATM    6  C14         0      33.245 118.934 -33.561  1.00  0.00     0.107 C 
HETATM    7  C15         0      33.887 119.554 -32.499  1.00  0.00     0.049 C 
HETATM    8  C16         0      33.177 120.274 -31.546  1.00  0.00     0.093 C 
HETATM    9  C18         0      31.956 120.775 -31.980  1.00  0.00     0.048 C 
HETATM   10  C19         0      31.307 120.209 -33.069  1.00  0.00     0.096 C 
HETATM   11  C21         0      31.883 119.159 -33.732  1.00  0.00     0.084 C 
ENDROOT
BRANCH  10  12
HETATM   12  O20         0      29.939 120.406 -33.224  1.00  0.00    -0.359 OA
HETATM   13  H20         0      29.571 120.315 -34.095  1.00  0.00     0.218 HD
ENDBRANCH  10  12
BRANCH   4  14
HETATM   14  C5          0      33.815 115.901 -35.373  1.00  0.00     0.025 C 
HETATM   15  C6          0      35.062 115.535 -34.888  1.00  0.00     0.004 C 
HETATM   16  C7          0      35.238 114.212 -34.495  1.00  0.00     0.026 C 
HETATM   17  C8          0      34.252 113.253 -34.702  1.00  0.00     0.112 C 
HETATM   18  C10         0      33.358 113.551 -35.721  1.00  0.00     0.112 C 
HETATM   19  C12         0      33.137 114.887 -36.036  1.00  0.00     0.028 C 
BRANCH  17  20
HETATM   20  O9          0      34.081 112.209 -33.810  1.00  0.00    -0.357 OA
HETATM   21  H9          0      34.789 111.652 -33.507  1.00  0.00     0.218 HD
ENDBRANCH  17  20
BRANCH  18  22
HETATM   22  O11         0      32.474 112.549 -36.095  1.00  0.00    -0.357 OA
HETATM   23  H11         0      31.548 112.726 -35.977  1.00  0.00     0.218 HD
ENDBRANCH  18  22
ENDBRANCH   4  14
BRANCH   8  24
HETATM   24  O17         0      33.503 120.205 -30.187  1.00  0.00    -0.359 OA
HETATM   25  H17         0      34.338 119.863 -29.891  1.00  0.00     0.218 HD
ENDBRANCH   8  24
TORSDOF 5
ENDMDL
MODEL 4
REMARK VINA RESULT:       0.0      5.813      7.860
REMARK  5 active torsions:
REMARK  status: ('A' for Active; 'I' for Inactive)
REMARK    1  A    between atoms: C4_4  and  C5_5 
REMARK    2  A    between atoms: C8_8  and  O9_9 
REMARK    3  A    between atoms: C10_11  and  O11_12 
REMARK    4  A    between atoms: C16_18  and  O17_19 
REMARK    5  A    between atoms: C19_22  and  O20_23 
ROOT
HETATM    1  O1          0      29.035 117.449 -35.769  1.00  0.00    -0.286 OA
HETATM    2  C2          0      28.384 117.644 -34.707  1.00  0.00     0.201 C 
HETATM    3  C3          0      28.498 118.803 -33.959  1.00  0.00     0.067 C 
HETATM    4  C4          0      27.847 118.950 -32.739  1.00  0.00     0.103 C 
HETATM    5  O13         0      27.088 117.961 -32.301  1.00  0.00    -0.307 OA
HETATM    6  C14         0      26.975 116.825 -32.954  1.00  0.00     0.107 C 
HETATM    7  C15         0      26.528 115.667 -32.334  1.00  0.00     0.049 C 
HETATM    8  C16         0      26.651 114.426 -32.947  1.00  0.00     0.093 C 
HETATM    9  C18         0      26.726 114.462 -34.334  1.00  0.00     0.048 C 
HETATM   10  C19         0      27.126 115.619 -34.989  1.00  0.00     0.096 C 
HETATM   11  C21         0      27.431 116.738 -34.265  1.00  0.00     0.084 C 
ENDROOT
BRANCH  10  12
HETATM   12  O20         0      27.612 115.530 -36.290  1.00  0.00    -0.359 OA
HETATM   13  H20         0      27.987 116.311 -36.679  1.00  0.00     0.218 HD
ENDBRANCH  10  12
BRANCH   4  14
HETATM   14  C5          0      28.450 119.861 -31.764  1.00  0.00     0.025 C 
HETATM   15  C6          0      28.272 119.721 -30.395  1.00  0.00     0.004 C 
HETATM   16  C7          0      29.362 119.991 -29.573  1.00  0.00     0.026 C 
HETATM   17  C8          0      30.548 120.510 -30.081  1.00  0.00     0.112 C 
HETATM   18  C10         0      30.415 121.189 -31.285  1.00  0.00     0.112 C 
HETATM   19  C12         0      29.365 120.840 -32.126  1.00  0.00     0.028 C 
BRANCH  17  20
HETATM   20  O9          0      31.767 120.176 -29.518  1.00  0.00    -0.357 OA
HETATM   21  H9          0      31.864 119.824 -28.641  1.00  0.00     0.218 HD
ENDBRANCH  17  20
BRANCH  18  22
HETATM   22  O11         0      31.525 121.886 -31.739  1.00  0.00    -0.357 OA
HETATM   23  H11         0      32.377 121.549 -31.488  1.00  0.00     0.218 HD
ENDBRANCH  18  22
ENDBRANCH   4  14
BRANCH   8  24
HETATM   24  O17         0      27.010 113.286 -32.219  1.00  0.00    -0.359 OA
HETATM   25  H17         0      27.907 112.976 -32.188  1.00  0.00     0.218 HD
ENDBRANCH   8  24
TORSDOF 5
ENDMDL
MODEL 5
REMARK VINA RESULT:       0.0      6.036      8.442
REMARK  5 active torsions:
REMARK  status: ('A' for Active; 'I' for Inactive)
REMARK    1  A    between atoms: C4_4  and  C5_5 
REMARK    2  A    between atoms: C8_8  and  O9_9 
REMARK    3  A    between atoms: C10_11  and  O11_12 
REMARK    4  A    between atoms: C16_18  and  O17_19 
REMARK    5  A    between atoms: C19_22  and  O20_23 
ROOT
HETATM    1  O1          0      33.599 119.665 -34.385  1.00  0.00    -0.286 OA
HETATM    2  C2          0      32.617 118.904 -34.169  1.00  0.00     0.201 C 
HETATM    3  C3          0      32.044 118.121 -35.157  1.00  0.00     0.067 C 
HETATM    4  C4          0      30.899 117.369 -34.918  1.00  0.00     0.103 C 
HETATM    5  O13         0      30.363 117.395 -33.711  1.00  0.00    -0.307 OA
HETATM    6  C14         0      30.845 118.150 -32.748  1.00  0.00     0.107 C 
HETATM    7  C15         0      30.087 118.491 -31.637  1.00  0.00     0.049 C 
HETATM    8  C16         0      30.501 119.484 -30.758  1.00  0.00     0.093 C 
HETATM    9  C18         0      31.871 119.713 -30.734  1.00  0.00     0.048 C 
HETATM   10  C19         0      32.667 119.342 -31.810  1.00  0.00     0.096 C 
HETATM   11  C21         0      32.100 118.730 -32.894  1.00  0.00     0.084 C 
ENDROOT
BRANCH  10  12
HETATM   12  O20         0      33.910 119.945 -31.976  1.00  0.00    -0.359 OA
HETATM   13  H20         0      33.931 120.861 -32.224  1.00  0.00     0.218 HD
ENDBRANCH  10  12
BRANCH   4  14
HETATM   14  C5          0      30.037 117.080 -36.066  1.00  0.00     0.025 C 
HETATM   15  C6          0      28.675 116.846 -35.943  1.00  0.00     0.004 C 
HETATM   16  C7          0      27.841 117.359 -36.931  1.00  0.00     0.026 C 
HETATM   17  C8          0      28.351 117.968 -38.072  1.00  0.00     0.112 C 
HETATM   18  C10         0      29.649 117.595 -38.398  1.00  0.00     0.112 C 
HETATM   19  C12         0      30.488 117.165 -37.376  1.00  0.00     0.028 C 
BRANCH  17  20
HETATM   20  O9          0      27.676 119.011 -38.682  1.00  0.00    -0.357 OA
HETATM   21  H9          0      27.575 119.096 -39.623  1.00  0.00     0.218 HD
ENDBRANCH  17  20
BRANCH  18  22
HETATM   22  O11         0      30.137 118.023 -39.623  1.00  0.00    -0.357 OA
HETATM   23  H11         0      30.152 117.385 -40.327  1.00  0.00     0.218 HD
ENDBRANCH  18  22
ENDBRANCH   4  14
BRANCH   8  24
HETATM   24  O17         0      29.593 120.395 -30.207  1.00  0.00    -0.359 OA
HETATM   25  H17         0      29.831 120.963 -29.484  1.00  0.00     0.218 HD
ENDBRANCH   8  24
TORSDOF 5
ENDMDL
MODEL 6
REMARK VINA RESULT:       0.0      6.907      9.762
REMARK  5 active torsions:
REMARK  status: ('A' for Active; 'I' for Inactive)
REMARK    1  A    between atoms: C4_4  and  C5_5 
REMARK    2  A    between atoms: C8_8  and  O9_9 
REMARK    3  A    between atoms: C10_11  and  O11_12 
REMARK    4  A    between atoms: C16_18  and  O17_19 
REMARK    5  A    between atoms: C19_22  and  O20_23 
ROOT
HETATM    1  O1          0      26.663 115.378 -31.296  1.00  0.00    -0.286 OA
HETATM    2  C2          0      27.694 115.841 -31.857  1.00  0.00     0.201 C 
HETATM    3  C3          0      27.682 116.358 -33.141  1.00  0.00     0.067 C 
HETATM    4  C4          0      28.851 116.767 -33.773  1.00  0.00     0.103 C 
HETATM    5  O13         0      29.993 116.675 -33.116  1.00  0.00    -0.307 OA
HETATM    6  C14         0      30.066 116.157 -31.909  1.00  0.00     0.107 C 
HETATM    7  C15         0      31.263 115.694 -31.384  1.00  0.00     0.049 C 
HETATM    8  C16         0      31.294 114.924 -30.227  1.00  0.00     0.093 C 
HETATM    9  C18         0      30.207 115.096 -29.379  1.00  0.00     0.048 C 
HETATM   10  C19         0      29.008 115.602 -29.862  1.00  0.00     0.096 C 
HETATM   11  C21         0      28.900 115.950 -31.181  1.00  0.00     0.084 C 
ENDROOT
BRANCH  10  12
HETATM   12  O20         0      27.835 115.368 -29.150  1.00  0.00    -0.359 OA
HETATM   13  H20         0      27.103 115.956 -29.294  1.00  0.00     0.218 HD
ENDBRANCH  10  12
BRANCH   4  14
HETATM   14  C5          0      28.873 116.718 -35.236  1.00  0.00     0.025 C 
HETATM   15  C6          0      30.043 116.562 -35.966  1.00  0.00     0.004 C 
HETATM   16  C7          0      29.992 115.764 -37.104  1.00  0.00     0.026 C 
HETATM   17  C8          0      28.791 115.248 -37.579  1.00  0.00     0.112 C 
HETATM   18  C10         0      27.661 115.951 -37.185  1.00  0.00     0.112 C 
HETATM   19  C12         0      27.713 116.672 -35.998  1.00  0.00     0.028 C 
BRANCH  17  20
HETATM   20  O9          0      28.749 114.016 -38.208  1.00  0.00    -0.357 OA
HETATM   21  H9          0      29.367 113.315 -38.038  1.00  0.00     0.218 HD
ENDBRANCH  17  20
BRANCH  18  22
HETATM   22  O11         0      26.459 115.595 -37.780  1.00  0.00    -0.357 OA
HETATM   23  H11         0      26.458 115.506 -38.726  1.00  0.00     0.218 HD
ENDBRANCH  18  22
ENDBRANCH   4  14
BRANCH   8  24
HETATM   24  O17         0      32.160 113.832 -30.100  1.00  0.00    -0.359 OA
HETATM   25  H17         0      33.011 113.819 -30.523  1.00  0.00     0.218 HD
ENDBRANCH   8  24
TORSDOF 5
ENDMDL
MODEL 7
REMARK VINA RESULT:       0.0      4.570      9.490
REMARK  5 active torsions:
REMARK  status: ('A' for Active; 'I' for Inactive)
REMARK    1  A    between atoms: C4_4  and  C5_5 
REMARK    2  A    between atoms: C8_8  and  O9_9 
REMARK    3  A    between atoms: C10_11  and  O11_12 
REMARK    4  A    between atoms: C16_18  and  O17_19 
REMARK    5  A    between atoms: C19_22  and  O20_23 
ROOT
HETATM    1  O1          0      25.839 113.784 -35.328  1.00  0.00    -0.286 OA
HETATM    2  C2          0      26.904 114.245 -34.832  1.00  0.00     0.201 C 
HETATM    3  C3          0      26.983 115.502 -34.257  1.00  0.00     0.067 C 
HETATM    4  C4          0      28.191 116.025 -33.811  1.00  0.00     0.103 C 
HETATM    5  O13         0      29.282 115.288 -33.925  1.00  0.00    -0.307 OA
HETATM    6  C14         0      29.270 114.104 -34.497  1.00  0.00     0.107 C 
HETATM    7  C15         0      30.429 113.512 -34.976  1.00  0.00     0.049 C 
HETATM    8  C16         0      30.381 112.392 -35.798  1.00  0.00     0.093 C 
HETATM    9  C18         0      29.233 111.620 -35.672  1.00  0.00     0.048 C 
HETATM   10  C19         0      28.068 112.169 -35.153  1.00  0.00     0.096 C 
HETATM   11  C21         0      28.055 113.475 -34.746  1.00  0.00     0.084 C 
ENDROOT
BRANCH  10  12
HETATM   12  O20         0      26.847 111.559 -35.428  1.00  0.00    -0.359 OA
HETATM   13  H20         0      26.276 111.358 -34.696  1.00  0.00     0.218 HD
ENDBRANCH  10  12
BRANCH   4  14
HETATM   14  C5          0      28.324 117.483 -33.793  1.00  0.00     0.025 C 
HETATM   15  C6          0      29.546 118.128 -33.907  1.00  0.00     0.004 C 
HETATM   16  C7          0      29.589 119.302 -34.652  1.00  0.00     0.026 C 
HETATM   17  C8          0      28.432 119.889 -35.155  1.00  0.00     0.112 C 
HETATM   18  C10         0      27.268 119.549 -34.478  1.00  0.00     0.112 C 
HETATM   19  C12         0      27.224 118.331 -33.812  1.00  0.00     0.028 C 
BRANCH  17  20
HETATM   20  O9          0      28.450 120.574 -36.357  1.00  0.00    -0.357 OA
HETATM   21  H9          0      27.784 121.199 -36.618  1.00  0.00     0.218 HD
ENDBRANCH  17  20
BRANCH  18  22
HETATM   22  O11         0      26.118 120.249 -34.816  1.00  0.00    -0.357 OA
HETATM   23  H11         0      25.375 119.737 -35.113  1.00  0.00     0.218 HD
ENDBRANCH  18  22
ENDBRANCH   4  14
BRANCH   8  24
HETATM   24  O17         0      31.247 112.250 -36.888  1.00  0.00    -0.359 OA
HETATM   25  H17         0      32.031 111.716 -36.836  1.00  0.00     0.218 HD
ENDBRANCH   8  24
TORSDOF 5
ENDMDL
MODEL 8
REMARK VINA RESULT:       0.0      5.069     10.095
REMARK  5 active torsions:
REMARK  status: ('A' for Active; 'I' for Inactive)
REMARK    1  A    between atoms: C4_4  and  C5_5 
REMARK    2  A    between atoms: C8_8  and  O9_9 
REMARK    3  A    between atoms: C10_11  and  O11_12 
REMARK    4  A    between atoms: C16_18  and  O17_19 
REMARK    5  A    between atoms: C19_22  and  O20_23 
ROOT
HETATM    1  O1          0      25.134 112.336 -35.155  1.00  0.00    -0.286 OA
HETATM    2  C2          0      25.976 113.138 -34.663  1.00  0.00     0.201 C 
HETATM    3  C3          0      25.769 114.506 -34.613  1.00  0.00     0.067 C 
HETATM    4  C4          0      26.755 115.375 -34.161  1.00  0.00     0.103 C 
HETATM    5  O13         0      27.906 114.872 -33.752  1.00  0.00    -0.307 OA
HETATM    6  C14         0      28.168 113.585 -33.813  1.00  0.00     0.107 C 
HETATM    7  C15         0      29.467 113.100 -33.773  1.00  0.00     0.049 C 
HETATM    8  C16         0      29.755 111.779 -34.092  1.00  0.00     0.093 C 
HETATM    9  C18         0      28.699 110.891 -33.922  1.00  0.00     0.048 C 
HETATM   10  C19         0      27.388 111.348 -33.910  1.00  0.00     0.096 C 
HETATM   11  C21         0      27.134 112.685 -34.050  1.00  0.00     0.084 C 
ENDROOT
BRANCH  10  12
HETATM   12  O20         0      26.354 110.456 -34.178  1.00  0.00    -0.359 OA
HETATM   13  H20         0      25.518 110.603 -33.753  1.00  0.00     0.218 HD
ENDBRANCH  10  12
BRANCH   4  14
HETATM   14  C5          0      26.728 116.745 -34.677  1.00  0.00     0.025 C 
HETATM   15  C6          0      27.864 117.535 -34.772  1.00  0.00     0.004 C 
HETATM   16  C7          0      27.983 118.362 -35.884  1.00  0.00     0.026 C 
HETATM   17  C8          0      26.949 118.501 -36.804  1.00  0.00     0.112 C 
HETATM   18  C10         0      25.688 118.198 -36.308  1.00  0.00     0.112 C 
HETATM   19  C12         0      25.592 117.302 -35.250  1.00  0.00     0.028 C 
BRANCH  17  20
HETATM   20  O9          0      27.217 118.716 -38.144  1.00  0.00    -0.357 OA
HETATM   21  H9          0      26.584 119.069 -38.759  1.00  0.00     0.218 HD
ENDBRANCH  17  20
BRANCH  18  22
HETATM   22  O11         0      24.605 118.499 -37.121  1.00  0.00    -0.357 OA
HETATM   23  H11         0      23.741 118.295 -36.780  1.00  0.00     0.218 HD
ENDBRANCH  18  22
ENDBRANCH   4  14
BRANCH   8  24
HETATM   24  O17         0      30.890 111.438 -34.836  1.00  0.00    -0.359 OA
HETATM   25  H17         0      31.682 111.118 -34.420  1.00  0.00     0.218 HD
ENDBRANCH   8  24
TORSDOF 5
ENDMDL
MODEL 9
REMARK VINA RESULT:       0.0      4.640      7.135
REMARK  5 active torsions:
REMARK  status: ('A' for Active; 'I' for Inactive)
REMARK    1  A    between atoms: C4_4  and  C5_5 
REMARK    2  A    between atoms: C8_8  and  O9_9 
REMARK    3  A    between atoms: C10_11  and  O11_12 
REMARK    4  A    between atoms: C16_18  and  O17_19 
REMARK    5  A    between atoms: C19_22  and  O20_23 
ROOT
HETATM    1  O1          0      25.582 118.433 -34.216  1.00  0.00    -0.286 OA
HETATM    2  C2          0      26.662 117.960 -33.766  1.00  0.00     0.201 C 
HETATM    3  C3          0      26.716 116.806 -33.002  1.00  0.00     0.067 C 
HETATM    4  C4          0      27.905 116.364 -32.433  1.00  0.00     0.103 C 
HETATM    5  O13         0      29.008 117.058 -32.649  1.00  0.00    -0.307 OA
HETATM    6  C14         0      29.006 118.180 -33.335  1.00  0.00     0.107 C 
HETATM    7  C15         0      30.038 119.101 -33.232  1.00  0.00     0.049 C 
HETATM    8  C16         0      29.914 120.384 -33.752  1.00  0.00     0.093 C 
HETATM    9  C18         0      28.998 120.511 -34.789  1.00  0.00     0.048 C 
HETATM   10  C19         0      27.980 119.581 -34.949  1.00  0.00     0.096 C 
HETATM   11  C21         0      27.888 118.520 -34.089  1.00  0.00     0.084 C 
ENDROOT
BRANCH  10  12
HETATM   12  O20         0      26.847 119.930 -35.677  1.00  0.00    -0.359 OA
HETATM   13  H20         0      26.000 119.821 -35.262  1.00  0.00     0.218 HD
ENDBRANCH  10  12
BRANCH   4  14
HETATM   14  C5          0      27.805 115.559 -31.214  1.00  0.00     0.025 C 
HETATM   15  C6          0      28.814 115.505 -30.264  1.00  0.00     0.004 C 
HETATM   16  C7          0      28.438 115.463 -28.925  1.00  0.00     0.026 C 
HETATM   17  C8          0      27.105 115.342 -28.546  1.00  0.00     0.112 C 
HETATM   18  C10         0      26.277 114.779 -29.508  1.00  0.00     0.112 C 
HETATM   19  C12         0      26.634 114.910 -30.845  1.00  0.00     0.028 C 
BRANCH  17  20
HETATM   20  O9          0      26.642 115.938 -27.387  1.00  0.00    -0.357 OA
HETATM   21  H9          0      27.018 115.786 -26.528  1.00  0.00     0.218 HD
ENDBRANCH  17  20
BRANCH  18  22
HETATM   22  O11         0      24.985 114.462 -29.116  1.00  0.00    -0.357 OA
HETATM   23  H11         0      24.777 113.539 -29.023  1.00  0.00     0.218 HD
ENDBRANCH  18  22
ENDBRANCH   4  14
BRANCH   8  24
HETATM   24  O17         0      30.411 121.499 -33.068  1.00  0.00    -0.359 OA
HETATM   25  H17         0      30.789 121.424 -32.200  1.00  0.00     0.218 HD
ENDBRANCH   8  24
TORSDOF 5
ENDMDL
