MODEL 1
REMARK VINA RESULT:      -3.2      0.000      0.000
REMARK  5 active torsions:
REMARK  status: ('A' for Active; 'I' for Inactive)
REMARK    1  A    between atoms: C4_4  and  C5_5 
REMARK    2  A    between atoms: C8_8  and  O9_9 
REMARK    3  A    between atoms: C10_11  and  O11_12 
REMARK    4  A    between atoms: C16_18  and  O17_19 
REMARK    5  A    between atoms: C19_22  and  O20_23 
ROOT
HETATM    1  O1          0      24.245 116.433  -6.081  1.00  0.00    -0.286 OA
HETATM    2  C2          0      24.996 115.981  -5.174  1.00  0.00     0.201 C 
HETATM    3  C3          0      25.893 114.949  -5.387  1.00  0.00     0.067 C 
HETATM    4  C4          0      26.634 114.401  -4.346  1.00  0.00     0.103 C 
HETATM    5  O13         0      26.486 114.898  -3.131  1.00  0.00    -0.307 OA
HETATM    6  C14         0      25.620 115.852  -2.867  1.00  0.00     0.107 C 
HETATM    7  C15         0      25.173 116.097  -1.577  1.00  0.00     0.049 C 
HETATM    8  C16         0      24.081 116.923  -1.336  1.00  0.00     0.093 C 
HETATM    9  C18         0      23.826 117.862  -2.327  1.00  0.00     0.048 C 
HETATM   10  C19         0      24.299 117.672  -3.618  1.00  0.00     0.096 C 
HETATM   11  C21         0      25.037 116.558  -3.914  1.00  0.00     0.084 C 
ENDROOT
BRANCH  10  12
HETATM   12  O20         0      23.696 118.353  -4.671  1.00  0.00    -0.359 OA
HETATM   13  H20         0      24.251 118.668  -5.374  1.00  0.00     0.218 HD
ENDBRANCH  10  12
BRANCH   4  14
HETATM   14  C5          0      27.064 113.009  -4.491  1.00  0.00     0.025 C 
HETATM   15  C6          0      28.333 112.656  -4.927  1.00  0.00     0.004 C 
HETATM   16  C7          0      28.938 111.556  -4.326  1.00  0.00     0.026 C 
HETATM   17  C8          0      28.255 110.753  -3.419  1.00  0.00     0.112 C 
HETATM   18  C10         0      26.872 110.795  -3.534  1.00  0.00     0.112 C 
HETATM   19  C12         0      26.288 111.942  -4.060  1.00  0.00     0.028 C 
BRANCH  17  20
HETATM   20  O9          0      28.920 110.146  -2.368  1.00  0.00    -0.357 OA
HETATM   21  H9          0      28.529 109.488  -1.806  1.00  0.00     0.218 HD
ENDBRANCH  17  20
BRANCH  18  22
HETATM   22  O11         0      26.151 109.876  -2.785  1.00  0.00    -0.357 OA
HETATM   23  H11         0      26.295 108.957  -2.978  1.00  0.00     0.218 HD
ENDBRANCH  18  22
ENDBRANCH   4  14
BRANCH   8  24
HETATM   24  O17         0      23.131 116.608  -0.357  1.00  0.00    -0.359 OA
HETATM   25  H17         0      23.331 116.668   0.569  1.00  0.00     0.218 HD
ENDBRANCH   8  24
TORSDOF 5
ENDMDL
MODEL 2
REMARK VINA RESULT:      -3.1      1.958      2.549
REMARK  5 active torsions:
REMARK  status: ('A' for Active; 'I' for Inactive)
REMARK    1  A    between atoms: C4_4  and  C5_5 
REMARK    2  A    between atoms: C8_8  and  O9_9 
REMARK    3  A    between atoms: C10_11  and  O11_12 
REMARK    4  A    between atoms: C16_18  and  O17_19 
REMARK    5  A    between atoms: C19_22  and  O20_23 
ROOT
HETATM    1  O1          0      26.485 118.090  -3.206  1.00  0.00    -0.286 OA
HETATM    2  C2          0      25.870 117.155  -2.623  1.00  0.00     0.201 C 
HETATM    3  C3          0      26.162 115.818  -2.834  1.00  0.00     0.067 C 
HETATM    4  C4          0      25.401 114.807  -2.258  1.00  0.00     0.103 C 
HETATM    5  O13         0      24.390 115.140  -1.476  1.00  0.00    -0.307 OA
HETATM    6  C14         0      24.047 116.393  -1.272  1.00  0.00     0.107 C 
HETATM    7  C15         0      22.789 116.739  -0.802  1.00  0.00     0.049 C 
HETATM    8  C16         0      22.345 118.056  -0.830  1.00  0.00     0.093 C 
HETATM    9  C18         0      23.351 119.015  -0.832  1.00  0.00     0.048 C 
HETATM   10  C19         0      24.634 118.690  -1.253  1.00  0.00     0.096 C 
HETATM   11  C21         0      24.914 117.412  -1.652  1.00  0.00     0.084 C 
ENDROOT
BRANCH  10  12
HETATM   12  O20         0      25.492 119.705  -1.663  1.00  0.00    -0.359 OA
HETATM   13  H20         0      25.716 119.753  -2.585  1.00  0.00     0.218 HD
ENDBRANCH  10  12
BRANCH   4  14
HETATM   14  C5          0      25.358 113.521  -2.957  1.00  0.00     0.025 C 
HETATM   15  C6          0      26.113 113.255  -4.090  1.00  0.00     0.004 C 
HETATM   16  C7          0      26.657 111.981  -4.218  1.00  0.00     0.026 C 
HETATM   17  C8          0      26.352 110.964  -3.320  1.00  0.00     0.112 C 
HETATM   18  C10         0      25.152 111.131  -2.641  1.00  0.00     0.112 C 
HETATM   19  C12         0      24.674 112.422  -2.453  1.00  0.00     0.028 C 
BRANCH  17  20
HETATM   20  O9          0      27.288 109.997  -3.000  1.00  0.00    -0.357 OA
HETATM   21  H9          0      28.219 110.168  -2.923  1.00  0.00     0.218 HD
ENDBRANCH  17  20
BRANCH  18  22
HETATM   22  O11         0      24.709 110.061  -1.877  1.00  0.00    -0.357 OA
HETATM   23  H11         0      23.769 109.974  -1.763  1.00  0.00     0.218 HD
ENDBRANCH  18  22
ENDBRANCH   4  14
BRANCH   8  24
HETATM   24  O17         0      21.025 118.373  -1.170  1.00  0.00    -0.359 OA
HETATM   25  H17         0      20.461 117.751  -1.613  1.00  0.00     0.218 HD
ENDBRANCH   8  24
TORSDOF 5
ENDMDL
MODEL 3
REMARK VINA RESULT:      -3.1      2.615      3.912
REMARK  5 active torsions:
REMARK  status: ('A' for Active; 'I' for Inactive)
REMARK    1  A    between atoms: C4_4  and  C5_5 
REMARK    2  A    between atoms: C8_8  and  O9_9 
REMARK    3  A    between atoms: C10_11  and  O11_12 
REMARK    4  A    between atoms: C16_18  and  O17_19 
REMARK    5  A    between atoms: C19_22  and  O20_23 
ROOT
HETATM    1  O1          0      22.422 111.090  -0.976  1.00  0.00    -0.286 OA
HETATM    2  C2          0      23.176 111.603  -1.848  1.00  0.00     0.201 C 
HETATM    3  C3          0      23.950 110.845  -2.711  1.00  0.00     0.067 C 
HETATM    4  C4          0      24.848 111.434  -3.593  1.00  0.00     0.103 C 
HETATM    5  O13         0      24.944 112.752  -3.615  1.00  0.00    -0.307 OA
HETATM    6  C14         0      24.261 113.516  -2.792  1.00  0.00     0.107 C 
HETATM    7  C15         0      24.635 114.826  -2.529  1.00  0.00     0.049 C 
HETATM    8  C16         0      24.071 115.542  -1.480  1.00  0.00     0.093 C 
HETATM    9  C18         0      22.811 115.109  -1.085  1.00  0.00     0.048 C 
HETATM   10  C19         0      22.386 113.819  -1.372  1.00  0.00     0.096 C 
HETATM   11  C21         0      23.208 112.972  -2.064  1.00  0.00     0.084 C 
ENDROOT
BRANCH  10  12
HETATM   12  O20         0      21.354 113.261  -0.624  1.00  0.00    -0.359 OA
HETATM   13  H20         0      21.321 113.455   0.305  1.00  0.00     0.218 HD
ENDBRANCH  10  12
BRANCH   4  14
HETATM   14  C5          0      26.006 110.637  -4.003  1.00  0.00     0.025 C 
HETATM   15  C6          0      26.047 109.930  -5.196  1.00  0.00     0.004 C 
HETATM   16  C7          0      27.254 109.901  -5.886  1.00  0.00     0.026 C 
HETATM   17  C8          0      28.417 110.440  -5.346  1.00  0.00     0.112 C 
HETATM   18  C10         0      28.423 110.535  -3.961  1.00  0.00     0.112 C 
HETATM   19  C12         0      27.204 110.649  -3.301  1.00  0.00     0.028 C 
BRANCH  17  20
HETATM   20  O9          0      29.374 111.020  -6.159  1.00  0.00    -0.357 OA
HETATM   21  H9          0      29.183 111.690  -6.805  1.00  0.00     0.218 HD
ENDBRANCH  17  20
BRANCH  18  22
HETATM   22  O11         0      29.623 110.887  -3.360  1.00  0.00    -0.357 OA
HETATM   23  H11         0      29.836 111.813  -3.336  1.00  0.00     0.218 HD
ENDBRANCH  18  22
ENDBRANCH   4  14
BRANCH   8  24
HETATM   24  O17         0      24.843 116.390  -0.678  1.00  0.00    -0.359 OA
HETATM   25  H17         0      25.214 116.097   0.146  1.00  0.00     0.218 HD
ENDBRANCH   8  24
TORSDOF 5
ENDMDL
MODEL 4
REMARK VINA RESULT:      -3.0      2.948      4.296
REMARK  5 active torsions:
REMARK  status: ('A' for Active; 'I' for Inactive)
REMARK    1  A    between atoms: C4_4  and  C5_5 
REMARK    2  A    between atoms: C8_8  and  O9_9 
REMARK    3  A    between atoms: C10_11  and  O11_12 
REMARK    4  A    between atoms: C16_18  and  O17_19 
REMARK    5  A    between atoms: C19_22  and  O20_23 
ROOT
HETATM    1  O1          0      24.614 117.002  -0.641  1.00  0.00    -0.286 OA
HETATM    2  C2          0      24.793 116.202  -1.600  1.00  0.00     0.201 C 
HETATM    3  C3          0      23.986 115.097  -1.816  1.00  0.00     0.067 C 
HETATM    4  C4          0      24.266 114.175  -2.818  1.00  0.00     0.103 C 
HETATM    5  O13         0      25.319 114.378  -3.591  1.00  0.00    -0.307 OA
HETATM    6  C14         0      26.139 115.389  -3.405  1.00  0.00     0.107 C 
HETATM    7  C15         0      27.425 115.392  -3.924  1.00  0.00     0.049 C 
HETATM    8  C16         0      28.365 116.332  -3.517  1.00  0.00     0.093 C 
HETATM    9  C18         0      27.834 117.518  -3.025  1.00  0.00     0.048 C 
HETATM   10  C19         0      26.534 117.561  -2.541  1.00  0.00     0.096 C 
HETATM   11  C21         0      25.762 116.431  -2.564  1.00  0.00     0.084 C 
ENDROOT
BRANCH  10  12
HETATM   12  O20         0      26.164 118.585  -1.674  1.00  0.00    -0.359 OA
HETATM   13  H20         0      25.729 118.348  -0.864  1.00  0.00     0.218 HD
ENDBRANCH  10  12
BRANCH   4  14
HETATM   14  C5          0      23.791 112.805  -2.619  1.00  0.00     0.025 C 
HETATM   15  C6          0      24.541 111.691  -2.967  1.00  0.00     0.004 C 
HETATM   16  C7          0      24.489 110.589  -2.120  1.00  0.00     0.026 C 
HETATM   17  C8          0      23.619 110.542  -1.036  1.00  0.00     0.112 C 
HETATM   18  C10         0      22.513 111.375  -1.145  1.00  0.00     0.112 C 
HETATM   19  C12         0      22.620 112.516  -1.931  1.00  0.00     0.028 C 
BRANCH  17  20
HETATM   20  O9          0      23.967 109.875   0.125  1.00  0.00    -0.357 OA
HETATM   21  H9          0      24.669 110.152   0.702  1.00  0.00     0.218 HD
ENDBRANCH  17  20
BRANCH  18  22
HETATM   22  O11         0      21.520 111.230  -0.185  1.00  0.00    -0.357 OA
HETATM   23  H11         0      20.781 111.825  -0.238  1.00  0.00     0.218 HD
ENDBRANCH  18  22
ENDBRANCH   4  14
BRANCH   8  24
HETATM   24  O17         0      29.703 115.981  -3.306  1.00  0.00    -0.359 OA
HETATM   25  H17         0      30.217 115.548  -3.977  1.00  0.00     0.218 HD
ENDBRANCH   8  24
TORSDOF 5
ENDMDL
MODEL 5
REMARK VINA RESULT:      -3.0      3.432      6.344
REMARK  5 active torsions:
REMARK  status: ('A' for Active; 'I' for Inactive)
REMARK    1  A    between atoms: C4_4  and  C5_5 
REMARK    2  A    between atoms: C8_8  and  O9_9 
REMARK    3  A    between atoms: C10_11  and  O11_12 
REMARK    4  A    between atoms: C16_18  and  O17_19 
REMARK    5  A    between atoms: C19_22  and  O20_23 
ROOT
HETATM    1  O1          0      26.541 115.064  -3.736  1.00  0.00    -0.286 OA
HETATM    2  C2          0      25.921 113.980  -3.557  1.00  0.00     0.201 C 
HETATM    3  C3          0      24.630 113.927  -3.061  1.00  0.00     0.067 C 
HETATM    4  C4          0      24.008 112.717  -2.776  1.00  0.00     0.103 C 
HETATM    5  O13         0      24.667 111.595  -3.007  1.00  0.00    -0.307 OA
HETATM    6  C14         0      25.908 111.590  -3.442  1.00  0.00     0.107 C 
HETATM    7  C15         0      26.725 110.476  -3.307  1.00  0.00     0.049 C 
HETATM    8  C16         0      28.094 110.555  -3.531  1.00  0.00     0.093 C 
HETATM    9  C18         0      28.493 111.586  -4.373  1.00  0.00     0.048 C 
HETATM   10  C19         0      27.679 112.694  -4.567  1.00  0.00     0.096 C 
HETATM   11  C21         0      26.466 112.763  -3.937  1.00  0.00     0.084 C 
ENDROOT
BRANCH  10  12
HETATM   12  O20         0      28.241 113.878  -5.032  1.00  0.00    -0.359 OA
HETATM   13  H20         0      27.686 114.648  -5.075  1.00  0.00     0.218 HD
ENDBRANCH  10  12
BRANCH   4  14
HETATM   14  C5          0      22.968 112.724  -1.745  1.00  0.00     0.025 C 
HETATM   15  C6          0      22.220 113.852  -1.440  1.00  0.00     0.004 C 
HETATM   16  C7          0      20.873 113.671  -1.145  1.00  0.00     0.026 C 
HETATM   17  C8          0      20.316 112.402  -1.025  1.00  0.00     0.112 C 
HETATM   18  C10         0      21.224 111.397  -0.719  1.00  0.00     0.112 C 
HETATM   19  C12         0      22.550 111.567  -1.102  1.00  0.00     0.028 C 
BRANCH  17  20
HETATM   20  O9          0      19.004 112.166  -1.396  1.00  0.00    -0.357 OA
HETATM   21  H9          0      18.286 112.093  -0.778  1.00  0.00     0.218 HD
ENDBRANCH  17  20
BRANCH  18  22
HETATM   22  O11         0      20.700 110.152  -0.403  1.00  0.00    -0.357 OA
HETATM   23  H11         0      19.851 109.936  -0.772  1.00  0.00     0.218 HD
ENDBRANCH  18  22
ENDBRANCH   4  14
BRANCH   8  24
HETATM   24  O17         0      29.006 109.876  -2.715  1.00  0.00    -0.359 OA
HETATM   25  H17         0      29.696 110.334  -2.249  1.00  0.00     0.218 HD
ENDBRANCH   8  24
TORSDOF 5
ENDMDL
MODEL 6
REMARK VINA RESULT:      -2.8      2.218      3.182
REMARK  5 active torsions:
REMARK  status: ('A' for Active; 'I' for Inactive)
REMARK    1  A    between atoms: C4_4  and  C5_5 
REMARK    2  A    between atoms: C8_8  and  O9_9 
REMARK    3  A    between atoms: C10_11  and  O11_12 
REMARK    4  A    between atoms: C16_18  and  O17_19 
REMARK    5  A    between atoms: C19_22  and  O20_23 
ROOT
HETATM    1  O1          0      24.564 117.844  -1.922  1.00  0.00    -0.286 OA
HETATM    2  C2          0      24.264 116.628  -1.769  1.00  0.00     0.201 C 
HETATM    3  C3          0      25.070 115.594  -2.214  1.00  0.00     0.067 C 
HETATM    4  C4          0      24.667 114.267  -2.125  1.00  0.00     0.103 C 
HETATM    5  O13         0      23.494 113.994  -1.582  1.00  0.00    -0.307 OA
HETATM    6  C14         0      22.674 114.940  -1.178  1.00  0.00     0.107 C 
HETATM    7  C15         0      21.320 114.702  -0.988  1.00  0.00     0.049 C 
HETATM    8  C16         0      20.422 115.748  -0.812  1.00  0.00     0.093 C 
HETATM    9  C18         0      20.976 116.920  -0.314  1.00  0.00     0.048 C 
HETATM   10  C19         0      22.336 117.169  -0.445  1.00  0.00     0.096 C 
HETATM   11  C21         0      23.139 116.245  -1.054  1.00  0.00     0.084 C 
ENDROOT
BRANCH  10  12
HETATM   12  O20         0      22.800 118.478  -0.353  1.00  0.00    -0.359 OA
HETATM   13  H20         0      22.676 119.047  -1.103  1.00  0.00     0.218 HD
ENDBRANCH  10  12
BRANCH   4  14
HETATM   14  C5          0      25.226 113.330  -3.101  1.00  0.00     0.025 C 
HETATM   15  C6          0      25.931 113.744  -4.223  1.00  0.00     0.004 C 
HETATM   16  C7          0      27.030 112.985  -4.609  1.00  0.00     0.026 C 
HETATM   17  C8          0      27.342 111.781  -3.986  1.00  0.00     0.112 C 
HETATM   18  C10         0      26.272 111.163  -3.353  1.00  0.00     0.112 C 
HETATM   19  C12         0      25.224 111.956  -2.900  1.00  0.00     0.028 C 
BRANCH  17  20
HETATM   20  O9          0      28.657 111.375  -3.846  1.00  0.00    -0.357 OA
HETATM   21  H9          0      29.402 111.956  -3.943  1.00  0.00     0.218 HD
ENDBRANCH  17  20
BRANCH  18  22
HETATM   22  O11         0      26.481 109.875  -2.881  1.00  0.00    -0.357 OA
HETATM   23  H11         0      26.265 109.161  -3.469  1.00  0.00     0.218 HD
ENDBRANCH  18  22
ENDBRANCH   4  14
BRANCH   8  24
HETATM   24  O17         0      19.153 115.726  -1.402  1.00  0.00    -0.359 OA
HETATM   25  H17         0      18.864 116.415  -1.990  1.00  0.00     0.218 HD
ENDBRANCH   8  24
TORSDOF 5
ENDMDL
MODEL 7
REMARK VINA RESULT:      -2.7      4.243      6.364
REMARK  5 active torsions:
REMARK  status: ('A' for Active; 'I' for Inactive)
REMARK    1  A    between atoms: C4_4  and  C5_5 
REMARK    2  A    between atoms: C8_8  and  O9_9 
REMARK    3  A    between atoms: C10_11  and  O11_12 
REMARK    4  A    between atoms: C16_18  and  O17_19 
REMARK    5  A    between atoms: C19_22  and  O20_23 
ROOT
HETATM    1  O1          0      25.211 112.335  -6.519  1.00  0.00    -0.286 OA
HETATM    2  C2          0      25.449 111.522  -5.584  1.00  0.00     0.201 C 
HETATM    3  C3          0      24.448 110.906  -4.852  1.00  0.00     0.067 C 
HETATM    4  C4          0      24.737 110.094  -3.761  1.00  0.00     0.103 C 
HETATM    5  O13         0      26.002 109.895  -3.436  1.00  0.00    -0.307 OA
HETATM    6  C14         0      26.989 110.486  -4.073  1.00  0.00     0.107 C 
HETATM    7  C15         0      28.252 110.609  -3.512  1.00  0.00     0.049 C 
HETATM    8  C16         0      29.211 111.445  -4.070  1.00  0.00     0.093 C 
HETATM    9  C18         0      29.048 111.704  -5.425  1.00  0.00     0.048 C 
HETATM   10  C19         0      27.808 111.546  -6.029  1.00  0.00     0.096 C 
HETATM   11  C21         0      26.741 111.116  -5.288  1.00  0.00     0.084 C 
ENDROOT
BRANCH  10  12
HETATM   12  O20         0      27.547 112.202  -7.228  1.00  0.00    -0.359 OA
HETATM   13  H20         0      26.640 112.357  -7.463  1.00  0.00     0.218 HD
ENDBRANCH  10  12
BRANCH   4  14
HETATM   14  C5          0      23.715 109.984  -2.719  1.00  0.00     0.025 C 
HETATM   15  C6          0      24.024 109.875  -1.371  1.00  0.00     0.004 C 
HETATM   16  C7          0      23.208 110.546  -0.466  1.00  0.00     0.026 C 
HETATM   17  C8          0      22.046 111.193  -0.872  1.00  0.00     0.112 C 
HETATM   18  C10         0      21.506 110.722  -2.062  1.00  0.00     0.112 C 
HETATM   19  C12         0      22.360 110.132  -2.986  1.00  0.00     0.028 C 
BRANCH  17  20
HETATM   20  O9          0      21.615 112.342  -0.235  1.00  0.00    -0.357 OA
HETATM   21  H9          0      22.152 113.118  -0.123  1.00  0.00     0.218 HD
ENDBRANCH  17  20
BRANCH  18  22
HETATM   22  O11         0      20.252 111.200  -2.415  1.00  0.00    -0.357 OA
HETATM   23  H11         0      20.163 112.140  -2.519  1.00  0.00     0.218 HD
ENDBRANCH  18  22
ENDBRANCH   4  14
BRANCH   8  24
HETATM   24  O17         0      30.055 112.223  -3.269  1.00  0.00    -0.359 OA
HETATM   25  H17         0      30.156 112.054  -2.339  1.00  0.00     0.218 HD
ENDBRANCH   8  24
TORSDOF 5
ENDMDL
MODEL 8
REMARK VINA RESULT:      -2.7      2.473      3.041
REMARK  5 active torsions:
REMARK  status: ('A' for Active; 'I' for Inactive)
REMARK    1  A    between atoms: C4_4  and  C5_5 
REMARK    2  A    between atoms: C8_8  and  O9_9 
REMARK    3  A    between atoms: C10_11  and  O11_12 
REMARK    4  A    between atoms: C16_18  and  O17_19 
REMARK    5  A    between atoms: C19_22  and  O20_23 
ROOT
HETATM    1  O1          0      25.063 116.800  -5.441  1.00  0.00    -0.286 OA
HETATM    2  C2          0      25.146 116.216  -4.325  1.00  0.00     0.201 C 
HETATM    3  C3          0      25.078 114.839  -4.192  1.00  0.00     0.067 C 
HETATM    4  C4          0      25.068 114.228  -2.944  1.00  0.00     0.103 C 
HETATM    5  O13         0      25.145 114.987  -1.865  1.00  0.00    -0.307 OA
HETATM    6  C14         0      25.173 116.299  -1.934  1.00  0.00     0.107 C 
HETATM    7  C15         0      24.854 117.096  -0.843  1.00  0.00     0.049 C 
HETATM    8  C16         0      24.637 118.461  -0.986  1.00  0.00     0.093 C 
HETATM    9  C18         0      25.255 119.042  -2.086  1.00  0.00     0.048 C 
HETATM   10  C19         0      25.630 118.267  -3.175  1.00  0.00     0.096 C 
HETATM   11  C21         0      25.405 116.917  -3.158  1.00  0.00     0.084 C 
ENDROOT
BRANCH  10  12
HETATM   12  O20         0      25.832 118.879  -4.409  1.00  0.00    -0.359 OA
HETATM   13  H20         0      26.210 119.750  -4.417  1.00  0.00     0.218 HD
ENDBRANCH  10  12
BRANCH   4  14
HETATM   14  C5          0      24.412 112.923  -2.842  1.00  0.00     0.025 C 
HETATM   15  C6          0      25.035 111.738  -3.207  1.00  0.00     0.004 C 
HETATM   16  C7          0      24.793 110.615  -2.422  1.00  0.00     0.026 C 
HETATM   17  C8          0      23.860 110.633  -1.391  1.00  0.00     0.112 C 
HETATM   18  C10         0      22.877 111.606  -1.515  1.00  0.00     0.112 C 
HETATM   19  C12         0      23.175 112.757  -2.234  1.00  0.00     0.028 C 
BRANCH  17  20
HETATM   20  O9          0      24.051 109.875  -0.249  1.00  0.00    -0.357 OA
HETATM   21  H9          0      24.533 109.056  -0.233  1.00  0.00     0.218 HD
ENDBRANCH  17  20
BRANCH  18  22
HETATM   22  O11         0      21.818 111.547  -0.620  1.00  0.00    -0.357 OA
HETATM   23  H11         0      21.089 110.985  -0.853  1.00  0.00     0.218 HD
ENDBRANCH  18  22
ENDBRANCH   4  14
BRANCH   8  24
HETATM   24  O17         0      23.617 119.114  -0.284  1.00  0.00    -0.359 OA
HETATM   25  H17         0      22.903 118.636   0.119  1.00  0.00     0.218 HD
ENDBRANCH   8  24
TORSDOF 5
ENDMDL
MODEL 9
REMARK VINA RESULT:      -2.6      2.469      6.575
REMARK  5 active torsions:
REMARK  status: ('A' for Active; 'I' for Inactive)
REMARK    1  A    between atoms: C4_4  and  C5_5 
REMARK    2  A    between atoms: C8_8  and  O9_9 
REMARK    3  A    between atoms: C10_11  and  O11_12 
REMARK    4  A    between atoms: C16_18  and  O17_19 
REMARK    5  A    between atoms: C19_22  and  O20_23 
ROOT
HETATM    1  O1          0      26.710 112.847  -3.859  1.00  0.00    -0.286 OA
HETATM    2  C2          0      25.549 113.136  -3.459  1.00  0.00     0.201 C 
HETATM    3  C3          0      25.046 114.426  -3.486  1.00  0.00     0.067 C 
HETATM    4  C4          0      23.803 114.734  -2.945  1.00  0.00     0.103 C 
HETATM    5  O13         0      23.084 113.762  -2.412  1.00  0.00    -0.307 OA
HETATM    6  C14         0      23.530 112.528  -2.327  1.00  0.00     0.107 C 
HETATM    7  C15         0      22.983 111.613  -1.439  1.00  0.00     0.049 C 
HETATM    8  C16         0      23.613 110.403  -1.170  1.00  0.00     0.093 C 
HETATM    9  C18         0      24.460 109.947  -2.173  1.00  0.00     0.048 C 
HETATM   10  C19         0      24.988 110.829  -3.106  1.00  0.00     0.096 C 
HETATM   11  C21         0      24.659 112.156  -3.049  1.00  0.00     0.084 C 
ENDROOT
BRANCH  10  12
HETATM   12  O20         0      26.136 110.471  -3.807  1.00  0.00    -0.359 OA
HETATM   13  H20         0      26.728 109.848  -3.403  1.00  0.00     0.218 HD
ENDBRANCH  10  12
BRANCH   4  14
HETATM   14  C5          0      23.602 116.103  -2.467  1.00  0.00     0.025 C 
HETATM   15  C6          0      23.347 116.406  -1.137  1.00  0.00     0.004 C 
HETATM   16  C7          0      23.934 117.553  -0.613  1.00  0.00     0.026 C 
HETATM   17  C8          0      24.639 118.443  -1.415  1.00  0.00     0.112 C 
HETATM   18  C10         0      24.306 118.399  -2.762  1.00  0.00     0.112 C 
HETATM   19  C12         0      23.800 117.212  -3.279  1.00  0.00     0.028 C 
BRANCH  17  20
HETATM   20  O9          0      25.723 119.143  -0.915  1.00  0.00    -0.357 OA
HETATM   21  H9          0      26.312 118.801  -0.252  1.00  0.00     0.218 HD
ENDBRANCH  17  20
BRANCH  18  22
HETATM   22  O11         0      24.839 119.390  -3.575  1.00  0.00    -0.357 OA
HETATM   23  H11         0      25.532 119.131  -4.171  1.00  0.00     0.218 HD
ENDBRANCH  18  22
ENDBRANCH   4  14
BRANCH   8  24
HETATM   24  O17         0      23.655 109.875   0.125  1.00  0.00    -0.359 OA
HETATM   25  H17         0      22.878 109.829   0.670  1.00  0.00     0.218 HD
ENDBRANCH   8  24
TORSDOF 5
ENDMDL
