MODEL 1
REMARK VINA RESULT:      -7.3      0.000      0.000
REMARK  5 active torsions:
REMARK  status: ('A' for Active; 'I' for Inactive)
REMARK    1  A    between atoms: C4_4  and  C5_5 
REMARK    2  A    between atoms: C8_8  and  O9_9 
REMARK    3  A    between atoms: C10_11  and  O11_12 
REMARK    4  A    between atoms: C16_18  and  O17_19 
REMARK    5  A    between atoms: C19_22  and  O20_23 
ROOT
HETATM    1  O1          0      61.950  25.513  -3.596  1.00  0.00    -0.286 OA
HETATM    2  C2          0      61.714  24.313  -3.285  1.00  0.00     0.201 C 
HETATM    3  C3          0      61.341  23.357  -4.215  1.00  0.00     0.067 C 
HETATM    4  C4          0      60.988  22.068  -3.832  1.00  0.00     0.103 C 
HETATM    5  O13         0      61.032  21.752  -2.550  1.00  0.00    -0.307 OA
HETATM    6  C14         0      61.344  22.631  -1.623  1.00  0.00     0.107 C 
HETATM    7  C15         0      61.013  22.437  -0.290  1.00  0.00     0.049 C 
HETATM    8  C16         0      61.112  23.468   0.636  1.00  0.00     0.093 C 
HETATM    9  C18         0      62.018  24.469   0.305  1.00  0.00     0.048 C 
HETATM   10  C19         0      62.407  24.661  -1.013  1.00  0.00     0.096 C 
HETATM   11  C21         0      61.907  23.848  -1.994  1.00  0.00     0.084 C 
ENDROOT
BRANCH  10  12
HETATM   12  O20         0      62.942  25.888  -1.393  1.00  0.00    -0.359 OA
HETATM   13  H20         0      62.447  26.672  -1.189  1.00  0.00     0.218 HD
ENDBRANCH  10  12
BRANCH   4  14
HETATM   14  C5          0      60.068  21.339  -4.707  1.00  0.00     0.025 C 
HETATM   15  C6          0      58.738  21.114  -4.379  1.00  0.00     0.004 C 
HETATM   16  C7          0      57.801  21.190  -5.404  1.00  0.00     0.026 C 
HETATM   17  C8          0      58.183  21.349  -6.732  1.00  0.00     0.112 C 
HETATM   18  C10         0      59.476  20.933  -7.017  1.00  0.00     0.112 C 
HETATM   19  C12         0      60.415  20.948  -5.993  1.00  0.00     0.028 C 
BRANCH  17  20
HETATM   20  O9          0      57.393  22.062  -7.616  1.00  0.00    -0.357 OA
HETATM   21  H9          0      57.439  23.006  -7.723  1.00  0.00     0.218 HD
ENDBRANCH  17  20
BRANCH  18  22
HETATM   22  O11         0      59.843  20.893  -8.355  1.00  0.00    -0.357 OA
HETATM   23  H11         0      60.488  21.528  -8.643  1.00  0.00     0.218 HD
ENDBRANCH  18  22
ENDBRANCH   4  14
BRANCH   8  24
HETATM   24  O17         0      60.145  23.651   1.630  1.00  0.00    -0.359 OA
HETATM   25  H17         0      59.719  22.915   2.054  1.00  0.00     0.218 HD
ENDBRANCH   8  24
TORSDOF 5
ENDMDL
MODEL 2
REMARK VINA RESULT:      -7.0      1.768      3.167
REMARK  5 active torsions:
REMARK  status: ('A' for Active; 'I' for Inactive)
REMARK    1  A    between atoms: C4_4  and  C5_5 
REMARK    2  A    between atoms: C8_8  and  O9_9 
REMARK    3  A    between atoms: C10_11  and  O11_12 
REMARK    4  A    between atoms: C16_18  and  O17_19 
REMARK    5  A    between atoms: C19_22  and  O20_23 
ROOT
HETATM    1  O1          0      61.760  22.889   0.437  1.00  0.00    -0.286 OA
HETATM    2  C2          0      61.408  23.064  -0.762  1.00  0.00     0.201 C 
HETATM    3  C3          0      60.332  22.405  -1.333  1.00  0.00     0.067 C 
HETATM    4  C4          0      60.029  22.539  -2.683  1.00  0.00     0.103 C 
HETATM    5  O13         0      60.779  23.333  -3.427  1.00  0.00    -0.307 OA
HETATM    6  C14         0      61.834  23.952  -2.943  1.00  0.00     0.107 C 
HETATM    7  C15         0      62.833  24.446  -3.769  1.00  0.00     0.049 C 
HETATM    8  C16         0      64.053  24.867  -3.253  1.00  0.00     0.093 C 
HETATM    9  C18         0      64.023  25.262  -1.921  1.00  0.00     0.048 C 
HETATM   10  C19         0      63.010  24.824  -1.079  1.00  0.00     0.096 C 
HETATM   11  C21         0      62.025  24.010  -1.567  1.00  0.00     0.084 C 
ENDROOT
BRANCH  10  12
HETATM   12  O20         0      63.212  24.851   0.298  1.00  0.00    -0.359 OA
HETATM   13  H20         0      62.570  25.302   0.833  1.00  0.00     0.218 HD
ENDBRANCH  10  12
BRANCH   4  14
HETATM   14  C5          0      59.329  21.425  -3.326  1.00  0.00     0.025 C 
HETATM   15  C6          0      58.490  20.565  -2.633  1.00  0.00     0.004 C 
HETATM   16  C7          0      57.335  20.133  -3.278  1.00  0.00     0.026 C 
HETATM   17  C8          0      57.088  20.436  -4.613  1.00  0.00     0.112 C 
HETATM   18  C10         0      58.221  20.727  -5.360  1.00  0.00     0.112 C 
HETATM   19  C12         0      59.333  21.238  -4.702  1.00  0.00     0.028 C 
BRANCH  17  20
HETATM   20  O9          0      55.796  20.631  -5.068  1.00  0.00    -0.357 OA
HETATM   21  H9          0      55.109  21.033  -4.549  1.00  0.00     0.218 HD
ENDBRANCH  17  20
BRANCH  18  22
HETATM   22  O11         0      58.054  20.851  -6.732  1.00  0.00    -0.357 OA
HETATM   23  H11         0      58.004  20.045  -7.234  1.00  0.00     0.218 HD
ENDBRANCH  18  22
ENDBRANCH   4  14
BRANCH   8  24
HETATM   24  O17         0      65.257  24.591  -3.911  1.00  0.00    -0.359 OA
HETATM   25  H17         0      65.277  24.304  -4.817  1.00  0.00     0.218 HD
ENDBRANCH   8  24
TORSDOF 5
ENDMDL
MODEL 3
REMARK VINA RESULT:      -6.7      1.587      3.025
REMARK  5 active torsions:
REMARK  status: ('A' for Active; 'I' for Inactive)
REMARK    1  A    between atoms: C4_4  and  C5_5 
REMARK    2  A    between atoms: C8_8  and  O9_9 
REMARK    3  A    between atoms: C10_11  and  O11_12 
REMARK    4  A    between atoms: C16_18  and  O17_19 
REMARK    5  A    between atoms: C19_22  and  O20_23 
ROOT
HETATM    1  O1          0      59.130  20.566  -0.470  1.00  0.00    -0.286 OA
HETATM    2  C2          0      59.224  21.384  -1.425  1.00  0.00     0.201 C 
HETATM    3  C3          0      58.432  21.309  -2.558  1.00  0.00     0.067 C 
HETATM    4  C4          0      58.625  22.160  -3.641  1.00  0.00     0.103 C 
HETATM    5  O13         0      59.579  23.072  -3.568  1.00  0.00    -0.307 OA
HETATM    6  C14         0      60.383  23.162  -2.532  1.00  0.00     0.107 C 
HETATM    7  C15         0      61.603  23.818  -2.608  1.00  0.00     0.049 C 
HETATM    8  C16         0      62.554  23.694  -1.602  1.00  0.00     0.093 C 
HETATM    9  C18         0      62.046  23.358  -0.353  1.00  0.00     0.048 C 
HETATM   10  C19         0      60.807  22.743  -0.237  1.00  0.00     0.096 C 
HETATM   11  C21         0      60.072  22.479  -1.361  1.00  0.00     0.084 C 
ENDROOT
BRANCH  10  12
HETATM   12  O20         0      60.506  22.032   0.921  1.00  0.00    -0.359 OA
HETATM   13  H20         0      59.668  22.193   1.337  1.00  0.00     0.218 HD
ENDBRANCH  10  12
BRANCH   4  14
HETATM   14  C5          0      58.217  21.671  -4.959  1.00  0.00     0.025 C 
HETATM   15  C6          0      57.163  22.224  -5.672  1.00  0.00     0.004 C 
HETATM   16  C7          0      57.307  22.337  -7.051  1.00  0.00     0.026 C 
HETATM   17  C8          0      58.403  21.797  -7.716  1.00  0.00     0.112 C 
HETATM   18  C10         0      59.036  20.760  -7.045  1.00  0.00     0.112 C 
HETATM   19  C12         0      58.946  20.719  -5.658  1.00  0.00     0.028 C 
BRANCH  17  20
HETATM   20  O9          0      58.918  22.408  -8.846  1.00  0.00    -0.357 OA
HETATM   21  H9          0      58.678  22.166  -9.733  1.00  0.00     0.218 HD
ENDBRANCH  17  20
BRANCH  18  22
HETATM   22  O11         0      60.012  20.063  -7.742  1.00  0.00    -0.357 OA
HETATM   23  H11         0      60.136  20.294  -8.655  1.00  0.00     0.218 HD
ENDBRANCH  18  22
ENDBRANCH   4  14
BRANCH   8  24
HETATM   24  O17         0      63.917  23.580  -1.897  1.00  0.00    -0.359 OA
HETATM   25  H17         0      64.438  24.333  -2.148  1.00  0.00     0.218 HD
ENDBRANCH   8  24
TORSDOF 5
ENDMDL
MODEL 4
REMARK VINA RESULT:      -6.6      1.600      6.697
REMARK  5 active torsions:
REMARK  status: ('A' for Active; 'I' for Inactive)
REMARK    1  A    between atoms: C4_4  and  C5_5 
REMARK    2  A    between atoms: C8_8  and  O9_9 
REMARK    3  A    between atoms: C10_11  and  O11_12 
REMARK    4  A    between atoms: C16_18  and  O17_19 
REMARK    5  A    between atoms: C19_22  and  O20_23 
ROOT
HETATM    1  O1          0      57.767  22.205  -2.634  1.00  0.00    -0.286 OA
HETATM    2  C2          0      58.966  22.045  -2.992  1.00  0.00     0.201 C 
HETATM    3  C3          0      60.038  22.531  -2.262  1.00  0.00     0.067 C 
HETATM    4  C4          0      61.343  22.431  -2.730  1.00  0.00     0.103 C 
HETATM    5  O13         0      61.557  21.838  -3.892  1.00  0.00    -0.307 OA
HETATM    6  C14         0      60.573  21.393  -4.641  1.00  0.00     0.107 C 
HETATM    7  C15         0      60.740  21.145  -5.996  1.00  0.00     0.049 C 
HETATM    8  C16         0      59.650  20.923  -6.829  1.00  0.00     0.093 C 
HETATM    9  C18         0      58.512  20.444  -6.192  1.00  0.00     0.048 C 
HETATM   10  C19         0      58.334  20.634  -4.828  1.00  0.00     0.096 C 
HETATM   11  C21         0      59.295  21.283  -4.102  1.00  0.00     0.084 C 
ENDROOT
BRANCH  10  12
HETATM   12  O20         0      57.053  20.556  -4.292  1.00  0.00    -0.359 OA
HETATM   13  H20         0      56.547  19.770  -4.460  1.00  0.00     0.218 HD
ENDBRANCH  10  12
BRANCH   4  14
HETATM   14  C5          0      62.300  23.436  -2.265  1.00  0.00     0.025 C 
HETATM   15  C6          0      63.245  24.017  -3.099  1.00  0.00     0.004 C 
HETATM   16  C7          0      63.517  25.370  -2.920  1.00  0.00     0.026 C 
HETATM   17  C8          0      62.971  26.091  -1.864  1.00  0.00     0.112 C 
HETATM   18  C10         0      62.585  25.321  -0.775  1.00  0.00     0.112 C 
HETATM   19  C12         0      62.236  23.994  -0.995  1.00  0.00     0.028 C 
BRANCH  17  20
HETATM   20  O9          0      62.657  27.430  -2.007  1.00  0.00    -0.357 OA
HETATM   21  H9          0      61.770  27.757  -2.104  1.00  0.00     0.218 HD
ENDBRANCH  17  20
BRANCH  18  22
HETATM   22  O11         0      62.211  26.001   0.375  1.00  0.00    -0.357 OA
HETATM   23  H11         0      61.571  26.697   0.274  1.00  0.00     0.218 HD
ENDBRANCH  18  22
ENDBRANCH   4  14
BRANCH   8  24
HETATM   24  O17         0      59.600  21.457  -8.122  1.00  0.00    -0.359 OA
HETATM   25  H17         0      59.000  22.158  -8.350  1.00  0.00     0.218 HD
ENDBRANCH   8  24
TORSDOF 5
ENDMDL
MODEL 5
REMARK VINA RESULT:      -6.4      4.299      6.315
REMARK  5 active torsions:
REMARK  status: ('A' for Active; 'I' for Inactive)
REMARK    1  A    between atoms: C4_4  and  C5_5 
REMARK    2  A    between atoms: C8_8  and  O9_9 
REMARK    3  A    between atoms: C10_11  and  O11_12 
REMARK    4  A    between atoms: C16_18  and  O17_19 
REMARK    5  A    between atoms: C19_22  and  O20_23 
ROOT
HETATM    1  O1          0      65.797  23.726  -5.604  1.00  0.00    -0.286 OA
HETATM    2  C2          0      65.404  23.062  -4.606  1.00  0.00     0.201 C 
HETATM    3  C3          0      64.083  23.041  -4.191  1.00  0.00     0.067 C 
HETATM    4  C4          0      63.695  22.384  -3.029  1.00  0.00     0.103 C 
HETATM    5  O13         0      64.613  21.750  -2.321  1.00  0.00    -0.307 OA
HETATM    6  C14         0      65.886  21.770  -2.650  1.00  0.00     0.107 C 
HETATM    7  C15         0      66.882  21.466  -1.733  1.00  0.00     0.049 C 
HETATM    8  C16         0      68.219  21.733  -2.005  1.00  0.00     0.093 C 
HETATM    9  C18         0      68.542  21.796  -3.356  1.00  0.00     0.048 C 
HETATM   10  C19         0      67.561  22.052  -4.304  1.00  0.00     0.096 C 
HETATM   11  C21         0      66.263  22.226  -3.909  1.00  0.00     0.084 C 
ENDROOT
BRANCH  10  12
HETATM   12  O20         0      67.933  22.538  -5.554  1.00  0.00    -0.359 OA
HETATM   13  H20         0      67.397  23.217  -5.945  1.00  0.00     0.218 HD
ENDBRANCH  10  12
BRANCH   4  14
HETATM   14  C5          0      62.497  22.879  -2.348  1.00  0.00     0.025 C 
HETATM   15  C6          0      61.228  22.377  -2.597  1.00  0.00     0.004 C 
HETATM   16  C7          0      60.365  22.241  -1.514  1.00  0.00     0.026 C 
HETATM   17  C8          0      60.701  22.713  -0.250  1.00  0.00     0.112 C 
HETATM   18  C10         0      61.655  23.722  -0.242  1.00  0.00     0.112 C 
HETATM   19  C12         0      62.560  23.783  -1.295  1.00  0.00     0.028 C 
BRANCH  17  20
HETATM   20  O9          0      60.262  22.062   0.890  1.00  0.00    -0.357 OA
HETATM   21  H9          0      60.773  21.410   1.355  1.00  0.00     0.218 HD
ENDBRANCH  17  20
BRANCH  18  22
HETATM   22  O11         0      61.888  24.357   0.969  1.00  0.00    -0.357 OA
HETATM   23  H11         0      61.661  25.279   1.022  1.00  0.00     0.218 HD
ENDBRANCH  18  22
ENDBRANCH   4  14
BRANCH   8  24
HETATM   24  O17         0      69.079  22.228  -1.019  1.00  0.00    -0.359 OA
HETATM   25  H17         0      68.852  22.198  -0.097  1.00  0.00     0.218 HD
ENDBRANCH   8  24
TORSDOF 5
ENDMDL
MODEL 6
REMARK VINA RESULT:      -6.4      1.397      2.046
REMARK  5 active torsions:
REMARK  status: ('A' for Active; 'I' for Inactive)
REMARK    1  A    between atoms: C4_4  and  C5_5 
REMARK    2  A    between atoms: C8_8  and  O9_9 
REMARK    3  A    between atoms: C10_11  and  O11_12 
REMARK    4  A    between atoms: C16_18  and  O17_19 
REMARK    5  A    between atoms: C19_22  and  O20_23 
ROOT
HETATM    1  O1          0      62.503  26.317  -2.187  1.00  0.00    -0.286 OA
HETATM    2  C2          0      62.403  25.078  -2.403  1.00  0.00     0.201 C 
HETATM    3  C3          0      62.469  24.531  -3.673  1.00  0.00     0.067 C 
HETATM    4  C4          0      62.253  23.175  -3.894  1.00  0.00     0.103 C 
HETATM    5  O13         0      62.000  22.395  -2.857  1.00  0.00    -0.307 OA
HETATM    6  C14         0      61.890  22.870  -1.636  1.00  0.00     0.107 C 
HETATM    7  C15         0      61.246  22.162  -0.632  1.00  0.00     0.049 C 
HETATM    8  C16         0      60.909  22.764   0.574  1.00  0.00     0.093 C 
HETATM    9  C18         0      61.684  23.866   0.917  1.00  0.00     0.048 C 
HETATM   10  C19         0      62.379  24.570  -0.057  1.00  0.00     0.096 C 
HETATM   11  C21         0      62.314  24.166  -1.363  1.00  0.00     0.084 C 
ENDROOT
BRANCH  10  12
HETATM   12  O20         0      62.776  25.878   0.203  1.00  0.00    -0.359 OA
HETATM   13  H20         0      63.350  26.301  -0.425  1.00  0.00     0.218 HD
ENDBRANCH  10  12
BRANCH   4  14
HETATM   14  C5          0      61.747  22.783  -5.211  1.00  0.00     0.025 C 
HETATM   15  C6          0      62.427  21.911  -6.048  1.00  0.00     0.004 C 
HETATM   16  C7          0      61.672  21.001  -6.781  1.00  0.00     0.026 C 
HETATM   17  C8          0      60.282  21.043  -6.786  1.00  0.00     0.112 C 
HETATM   18  C10         0      59.738  22.279  -6.461  1.00  0.00     0.112 C 
HETATM   19  C12         0      60.480  23.135  -5.656  1.00  0.00     0.028 C 
BRANCH  17  20
HETATM   20  O9          0      59.538  19.882  -6.898  1.00  0.00    -0.357 OA
HETATM   21  H9          0      59.630  19.137  -6.315  1.00  0.00     0.218 HD
ENDBRANCH  17  20
BRANCH  18  22
HETATM   22  O11         0      58.370  22.428  -6.634  1.00  0.00    -0.357 OA
HETATM   23  H11         0      57.818  21.713  -6.337  1.00  0.00     0.218 HD
ENDBRANCH  18  22
ENDBRANCH   4  14
BRANCH   8  24
HETATM   24  O17         0      59.690  22.496   1.208  1.00  0.00    -0.359 OA
HETATM   25  H17         0      59.625  22.420   2.152  1.00  0.00     0.218 HD
ENDBRANCH   8  24
TORSDOF 5
ENDMDL
MODEL 7
REMARK VINA RESULT:      -6.4      1.467      1.623
REMARK  5 active torsions:
REMARK  status: ('A' for Active; 'I' for Inactive)
REMARK    1  A    between atoms: C4_4  and  C5_5 
REMARK    2  A    between atoms: C8_8  and  O9_9 
REMARK    3  A    between atoms: C10_11  and  O11_12 
REMARK    4  A    between atoms: C16_18  and  O17_19 
REMARK    5  A    between atoms: C19_22  and  O20_23 
ROOT
HETATM    1  O1          0      62.478  26.171  -2.748  1.00  0.00    -0.286 OA
HETATM    2  C2          0      62.287  24.925  -2.692  1.00  0.00     0.201 C 
HETATM    3  C3          0      62.197  24.128  -3.821  1.00  0.00     0.067 C 
HETATM    4  C4          0      61.885  22.776  -3.736  1.00  0.00     0.103 C 
HETATM    5  O13         0      61.691  22.244  -2.542  1.00  0.00    -0.307 OA
HETATM    6  C14         0      61.728  22.963  -1.441  1.00  0.00     0.107 C 
HETATM    7  C15         0      61.147  22.522  -0.261  1.00  0.00     0.049 C 
HETATM    8  C16         0      60.964  23.380   0.817  1.00  0.00     0.093 C 
HETATM    9  C18         0      61.830  24.467   0.856  1.00  0.00     0.048 C 
HETATM   10  C19         0      62.464  24.905  -0.298  1.00  0.00     0.096 C 
HETATM   11  C21         0      62.249  24.251  -1.481  1.00  0.00     0.084 C 
ENDROOT
BRANCH  10  12
HETATM   12  O20         0      62.958  26.204  -0.351  1.00  0.00    -0.359 OA
HETATM   13  H20         0      63.491  26.448  -1.099  1.00  0.00     0.218 HD
ENDBRANCH  10  12
BRANCH   4  14
HETATM   14  C5          0      61.231  22.165  -4.894  1.00  0.00     0.025 C 
HETATM   15  C6          0      59.919  22.442  -5.250  1.00  0.00     0.004 C 
HETATM   16  C7          0      59.626  22.540  -6.607  1.00  0.00     0.026 C 
HETATM   17  C8          0      60.573  22.240  -7.581  1.00  0.00     0.112 C 
HETATM   18  C10         0      61.590  21.394  -7.160  1.00  0.00     0.112 C 
HETATM   19  C12         0      61.920  21.380  -5.809  1.00  0.00     0.028 C 
BRANCH  17  20
HETATM   20  O9          0      60.585  22.915  -8.789  1.00  0.00    -0.357 OA
HETATM   21  H9          0      60.635  23.860  -8.865  1.00  0.00     0.218 HD
ENDBRANCH  17  20
BRANCH  18  22
HETATM   22  O11         0      62.452  20.913  -8.135  1.00  0.00    -0.357 OA
HETATM   23  H11         0      62.760  21.537  -8.783  1.00  0.00     0.218 HD
ENDBRANCH  18  22
ENDBRANCH   4  14
BRANCH   8  24
HETATM   24  O17         0      59.800  23.338   1.593  1.00  0.00    -0.359 OA
HETATM   25  H17         0      59.824  23.460   2.535  1.00  0.00     0.218 HD
ENDBRANCH   8  24
TORSDOF 5
ENDMDL
MODEL 8
REMARK VINA RESULT:      -6.3      1.388      1.668
REMARK  5 active torsions:
REMARK  status: ('A' for Active; 'I' for Inactive)
REMARK    1  A    between atoms: C4_4  and  C5_5 
REMARK    2  A    between atoms: C8_8  and  O9_9 
REMARK    3  A    between atoms: C10_11  and  O11_12 
REMARK    4  A    between atoms: C16_18  and  O17_19 
REMARK    5  A    between atoms: C19_22  and  O20_23 
ROOT
HETATM    1  O1          0      63.550  24.221  -5.135  1.00  0.00    -0.286 OA
HETATM    2  C2          0      62.819  23.490  -4.411  1.00  0.00     0.201 C 
HETATM    3  C3          0      61.939  22.558  -4.932  1.00  0.00     0.067 C 
HETATM    4  C4          0      61.072  21.839  -4.117  1.00  0.00     0.103 C 
HETATM    5  O13         0      61.111  22.044  -2.812  1.00  0.00    -0.307 OA
HETATM    6  C14         0      61.901  22.944  -2.269  1.00  0.00     0.107 C 
HETATM    7  C15         0      61.673  23.443  -0.995  1.00  0.00     0.049 C 
HETATM    8  C16         0      62.347  24.564  -0.528  1.00  0.00     0.093 C 
HETATM    9  C18         0      63.571  24.810  -1.139  1.00  0.00     0.048 C 
HETATM   10  C19         0      63.850  24.287  -2.394  1.00  0.00     0.096 C 
HETATM   11  C21         0      62.920  23.509  -3.028  1.00  0.00     0.084 C 
ENDROOT
BRANCH  10  12
HETATM   12  O20         0      64.848  24.872  -3.168  1.00  0.00    -0.359 OA
HETATM   13  H20         0      64.627  25.137  -4.053  1.00  0.00     0.218 HD
ENDBRANCH  10  12
BRANCH   4  14
HETATM   14  C5          0      59.824  21.366  -4.720  1.00  0.00     0.025 C 
HETATM   15  C6          0      58.694  21.068  -3.972  1.00  0.00     0.004 C 
HETATM   16  C7          0      57.457  21.412  -4.509  1.00  0.00     0.026 C 
HETATM   17  C8          0      57.336  21.911  -5.801  1.00  0.00     0.112 C 
HETATM   18  C10         0      58.383  21.579  -6.651  1.00  0.00     0.112 C 
HETATM   19  C12         0      59.630  21.323  -6.094  1.00  0.00     0.028 C 
BRANCH  17  20
HETATM   20  O9          0      56.354  22.833  -6.116  1.00  0.00    -0.357 OA
HETATM   21  H9          0      56.052  23.001  -7.001  1.00  0.00     0.218 HD
ENDBRANCH  17  20
BRANCH  18  22
HETATM   22  O11         0      58.224  21.888  -7.995  1.00  0.00    -0.357 OA
HETATM   23  H11         0      57.559  21.405  -8.471  1.00  0.00     0.218 HD
ENDBRANCH  18  22
ENDBRANCH   4  14
BRANCH   8  24
HETATM   24  O17         0      61.699  25.539   0.238  1.00  0.00    -0.359 OA
HETATM   25  H17         0      62.117  25.945   0.988  1.00  0.00     0.218 HD
ENDBRANCH   8  24
TORSDOF 5
ENDMDL
MODEL 9
REMARK VINA RESULT:      -6.2      1.985      6.728
REMARK  5 active torsions:
REMARK  status: ('A' for Active; 'I' for Inactive)
REMARK    1  A    between atoms: C4_4  and  C5_5 
REMARK    2  A    between atoms: C8_8  and  O9_9 
REMARK    3  A    between atoms: C10_11  and  O11_12 
REMARK    4  A    between atoms: C16_18  and  O17_19 
REMARK    5  A    between atoms: C19_22  and  O20_23 
ROOT
HETATM    1  O1          0      57.096  21.679  -4.100  1.00  0.00    -0.286 OA
HETATM    2  C2          0      58.302  22.040  -4.184  1.00  0.00     0.201 C 
HETATM    3  C3          0      59.220  21.834  -3.168  1.00  0.00     0.067 C 
HETATM    4  C4          0      60.515  22.333  -3.245  1.00  0.00     0.103 C 
HETATM    5  O13         0      60.875  23.003  -4.326  1.00  0.00    -0.307 OA
HETATM    6  C14         0      60.032  23.259  -5.302  1.00  0.00     0.107 C 
HETATM    7  C15         0      60.266  24.270  -6.222  1.00  0.00     0.049 C 
HETATM    8  C16         0      59.268  24.704  -7.087  1.00  0.00     0.093 C 
HETATM    9  C18         0      58.272  23.771  -7.349  1.00  0.00     0.048 C 
HETATM   10  C19         0      58.042  22.719  -6.472  1.00  0.00     0.096 C 
HETATM   11  C21         0      58.814  22.590  -5.350  1.00  0.00     0.084 C 
ENDROOT
BRANCH  10  12
HETATM   12  O20         0      56.812  22.069  -6.497  1.00  0.00    -0.359 OA
HETATM   13  H20         0      56.771  21.208  -6.895  1.00  0.00     0.218 HD
ENDBRANCH  10  12
BRANCH   4  14
HETATM   14  C5          0      61.200  22.614  -1.981  1.00  0.00     0.025 C 
HETATM   15  C6          0      62.425  23.262  -1.918  1.00  0.00     0.004 C 
HETATM   16  C7          0      62.624  24.164  -0.877  1.00  0.00     0.026 C 
HETATM   17  C8          0      61.691  24.318   0.142  1.00  0.00     0.112 C 
HETATM   18  C10         0      60.856  23.226   0.334  1.00  0.00     0.112 C 
HETATM   19  C12         0      60.606  22.388  -0.746  1.00  0.00     0.028 C 
BRANCH  17  20
HETATM   20  O9          0      61.500  25.547   0.748  1.00  0.00    -0.357 OA
HETATM   21  H9          0      61.262  26.337   0.277  1.00  0.00     0.218 HD
ENDBRANCH  17  20
BRANCH  18  22
HETATM   22  O11         0      60.037  23.250   1.454  1.00  0.00    -0.357 OA
HETATM   23  H11         0      59.291  22.662   1.454  1.00  0.00     0.218 HD
ENDBRANCH  18  22
ENDBRANCH   4  14
BRANCH   8  24
HETATM   24  O17         0      59.103  26.060  -7.388  1.00  0.00    -0.359 OA
HETATM   25  H17         0      58.295  26.520  -7.192  1.00  0.00     0.218 HD
ENDBRANCH   8  24
TORSDOF 5
ENDMDL
