MODEL 1
REMARK VINA RESULT:      -6.0      0.000      0.000
REMARK  5 active torsions:
REMARK  status: ('A' for Active; 'I' for Inactive)
REMARK    1  A    between atoms: C4_4  and  C5_5 
REMARK    2  A    between atoms: C8_8  and  O9_9 
REMARK    3  A    between atoms: C10_11  and  O11_12 
REMARK    4  A    between atoms: C16_18  and  O17_19 
REMARK    5  A    between atoms: C19_22  and  O20_23 
ROOT
HETATM    1  O1          0      38.464  54.456 -24.790  1.00  0.00    -0.286 OA
HETATM    2  C2          0      37.664  54.296 -23.828  1.00  0.00     0.201 C 
HETATM    3  C3          0      37.013  55.350 -23.211  1.00  0.00     0.067 C 
HETATM    4  C4          0      36.216  55.157 -22.088  1.00  0.00     0.103 C 
HETATM    5  O13         0      36.067  53.931 -21.618  1.00  0.00    -0.307 OA
HETATM    6  C14         0      36.692  52.900 -22.144  1.00  0.00     0.107 C 
HETATM    7  C15         0      36.865  51.715 -21.443  1.00  0.00     0.049 C 
HETATM    8  C16         0      37.736  50.731 -21.894  1.00  0.00     0.093 C 
HETATM    9  C18         0      37.984  50.748 -23.262  1.00  0.00     0.048 C 
HETATM   10  C19         0      37.777  51.904 -24.002  1.00  0.00     0.096 C 
HETATM   11  C21         0      37.309  53.031 -23.383  1.00  0.00     0.084 C 
ENDROOT
BRANCH  10  12
HETATM   12  O20         0      38.418  52.051 -25.228  1.00  0.00    -0.359 OA
HETATM   13  H20         0      39.298  51.706 -25.314  1.00  0.00     0.218 HD
ENDBRANCH  10  12
BRANCH   4  14
HETATM   14  C5          0      36.071  56.287 -21.168  1.00  0.00     0.025 C 
HETATM   15  C6          0      36.989  56.563 -20.165  1.00  0.00     0.004 C 
HETATM   16  C7          0      37.280  57.899 -19.907  1.00  0.00     0.026 C 
HETATM   17  C8          0      36.584  58.930 -20.530  1.00  0.00     0.112 C 
HETATM   18  C10         0      35.323  58.581 -20.993  1.00  0.00     0.112 C 
HETATM   19  C12         0      35.085  57.252 -21.324  1.00  0.00     0.028 C 
BRANCH  17  20
HETATM   20  O9          0      37.211  60.125 -20.834  1.00  0.00    -0.357 OA
HETATM   21  H9          0      37.563  60.718 -20.179  1.00  0.00     0.218 HD
ENDBRANCH  17  20
BRANCH  18  22
HETATM   22  O11         0      34.514  59.612 -21.451  1.00  0.00    -0.357 OA
HETATM   23  H11         0      34.905  60.477 -21.497  1.00  0.00     0.218 HD
ENDBRANCH  18  22
ENDBRANCH   4  14
BRANCH   8  24
HETATM   24  O17         0      38.548  50.014 -21.009  1.00  0.00    -0.359 OA
HETATM   25  H17         0      39.480  50.186 -20.934  1.00  0.00     0.218 HD
ENDBRANCH   8  24
TORSDOF 5
ENDMDL
MODEL 2
REMARK VINA RESULT:      -5.8      9.439     11.134
REMARK  5 active torsions:
REMARK  status: ('A' for Active; 'I' for Inactive)
REMARK    1  A    between atoms: C4_4  and  C5_5 
REMARK    2  A    between atoms: C8_8  and  O9_9 
REMARK    3  A    between atoms: C10_11  and  O11_12 
REMARK    4  A    between atoms: C16_18  and  O17_19 
REMARK    5  A    between atoms: C19_22  and  O20_23 
ROOT
HETATM    1  O1          0      30.764  59.075 -24.812  1.00  0.00    -0.286 OA
HETATM    2  C2          0      29.543  59.140 -25.123  1.00  0.00     0.201 C 
HETATM    3  C3          0      28.546  59.396 -24.197  1.00  0.00     0.067 C 
HETATM    4  C4          0      27.201  59.361 -24.547  1.00  0.00     0.103 C 
HETATM    5  O13         0      26.878  59.097 -25.800  1.00  0.00    -0.307 OA
HETATM    6  C14         0      27.783  58.810 -26.710  1.00  0.00     0.107 C 
HETATM    7  C15         0      27.454  58.155 -27.888  1.00  0.00     0.049 C 
HETATM    8  C16         0      28.435  57.631 -28.721  1.00  0.00     0.093 C 
HETATM    9  C18         0      29.682  58.235 -28.612  1.00  0.00     0.048 C 
HETATM   10  C19         0      30.027  58.939 -27.466  1.00  0.00     0.096 C 
HETATM   11  C21         0      29.126  59.053 -26.442  1.00  0.00     0.084 C 
ENDROOT
BRANCH  10  12
HETATM   12  O20         0      31.371  59.155 -27.179  1.00  0.00    -0.359 OA
HETATM   13  H20         0      31.684  60.052 -27.163  1.00  0.00     0.218 HD
ENDBRANCH  10  12
BRANCH   4  14
HETATM   14  C5          0      26.242  59.039 -23.489  1.00  0.00     0.025 C 
HETATM   15  C6          0      25.442  57.905 -23.518  1.00  0.00     0.004 C 
HETATM   16  C7          0      25.216  57.245 -22.315  1.00  0.00     0.026 C 
HETATM   17  C8          0      25.655  57.766 -21.103  1.00  0.00     0.112 C 
HETATM   18  C10         0      25.858  59.140 -21.102  1.00  0.00     0.112 C 
HETATM   19  C12         0      26.168  59.762 -22.305  1.00  0.00     0.028 C 
BRANCH  17  20
HETATM   20  O9          0      26.051  56.930 -20.073  1.00  0.00    -0.357 OA
HETATM   21  H9          0      25.448  56.411 -19.554  1.00  0.00     0.218 HD
ENDBRANCH  17  20
BRANCH  18  22
HETATM   22  O11         0      26.113  59.736 -19.875  1.00  0.00    -0.357 OA
HETATM   23  H11         0      25.529  60.437 -19.608  1.00  0.00     0.218 HD
ENDBRANCH  18  22
ENDBRANCH   4  14
BRANCH   8  24
HETATM   24  O17         0      28.270  56.394 -29.354  1.00  0.00    -0.359 OA
HETATM   25  H17         0      27.812  55.675 -28.934  1.00  0.00     0.218 HD
ENDBRANCH   8  24
TORSDOF 5
ENDMDL
MODEL 3
REMARK VINA RESULT:      -5.8      2.357      3.716
REMARK  5 active torsions:
REMARK  status: ('A' for Active; 'I' for Inactive)
REMARK    1  A    between atoms: C4_4  and  C5_5 
REMARK    2  A    between atoms: C8_8  and  O9_9 
REMARK    3  A    between atoms: C10_11  and  O11_12 
REMARK    4  A    between atoms: C16_18  and  O17_19 
REMARK    5  A    between atoms: C19_22  and  O20_23 
ROOT
HETATM    1  O1          0      37.601  50.871 -21.262  1.00  0.00    -0.286 OA
HETATM    2  C2          0      37.159  51.948 -21.749  1.00  0.00     0.201 C 
HETATM    3  C3          0      36.586  52.942 -20.976  1.00  0.00     0.067 C 
HETATM    4  C4          0      36.015  54.073 -21.549  1.00  0.00     0.103 C 
HETATM    5  O13         0      36.043  54.201 -22.863  1.00  0.00    -0.307 OA
HETATM    6  C14         0      36.542  53.270 -23.646  1.00  0.00     0.107 C 
HETATM    7  C15         0      36.225  53.202 -24.995  1.00  0.00     0.049 C 
HETATM    8  C16         0      36.543  52.083 -25.756  1.00  0.00     0.093 C 
HETATM    9  C18         0      37.606  51.329 -25.275  1.00  0.00     0.048 C 
HETATM   10  C19         0      37.980  51.408 -23.940  1.00  0.00     0.096 C 
HETATM   11  C21         0      37.307  52.247 -23.095  1.00  0.00     0.084 C 
ENDROOT
BRANCH  10  12
HETATM   12  O20         0      38.718  50.371 -23.378  1.00  0.00    -0.359 OA
HETATM   13  H20         0      38.383  49.962 -22.589  1.00  0.00     0.218 HD
ENDBRANCH  10  12
BRANCH   4  14
HETATM   14  C5          0      34.947  54.737 -20.798  1.00  0.00     0.025 C 
HETATM   15  C6          0      35.074  56.021 -20.288  1.00  0.00     0.004 C 
HETATM   16  C7          0      33.957  56.849 -20.339  1.00  0.00     0.026 C 
HETATM   17  C8          0      32.719  56.377 -20.759  1.00  0.00     0.112 C 
HETATM   18  C10         0      32.548  55.004 -20.635  1.00  0.00     0.112 C 
HETATM   19  C12         0      33.676  54.193 -20.672  1.00  0.00     0.028 C 
BRANCH  17  20
HETATM   20  O9          0      31.839  57.202 -21.437  1.00  0.00    -0.357 OA
HETATM   21  H9          0      31.846  58.150 -21.370  1.00  0.00     0.218 HD
ENDBRANCH  17  20
BRANCH  18  22
HETATM   22  O11         0      31.273  54.506 -20.860  1.00  0.00    -0.357 OA
HETATM   23  H11         0      30.896  53.964 -20.177  1.00  0.00     0.218 HD
ENDBRANCH  18  22
ENDBRANCH   4  14
BRANCH   8  24
HETATM   24  O17         0      35.660  51.580 -26.717  1.00  0.00    -0.359 OA
HETATM   25  H17         0      35.233  50.738 -26.611  1.00  0.00     0.218 HD
ENDBRANCH   8  24
TORSDOF 5
ENDMDL
MODEL 4
REMARK VINA RESULT:      -5.6      9.403     11.586
REMARK  5 active torsions:
REMARK  status: ('A' for Active; 'I' for Inactive)
REMARK    1  A    between atoms: C4_4  and  C5_5 
REMARK    2  A    between atoms: C8_8  and  O9_9 
REMARK    3  A    between atoms: C10_11  and  O11_12 
REMARK    4  A    between atoms: C16_18  and  O17_19 
REMARK    5  A    between atoms: C19_22  and  O20_23 
ROOT
HETATM    1  O1          0      25.506  60.125 -22.495  1.00  0.00    -0.286 OA
HETATM    2  C2          0      26.414  59.274 -22.700  1.00  0.00     0.201 C 
HETATM    3  C3          0      27.324  59.382 -23.739  1.00  0.00     0.067 C 
HETATM    4  C4          0      28.249  58.380 -24.004  1.00  0.00     0.103 C 
HETATM    5  O13         0      28.266  57.310 -23.228  1.00  0.00    -0.307 OA
HETATM    6  C14         0      27.401  57.140 -22.253  1.00  0.00     0.107 C 
HETATM    7  C15         0      27.150  55.889 -21.709  1.00  0.00     0.049 C 
HETATM    8  C16         0      26.065  55.673 -20.867  1.00  0.00     0.093 C 
HETATM    9  C18         0      25.605  56.802 -20.201  1.00  0.00     0.048 C 
HETATM   10  C19         0      25.878  58.071 -20.693  1.00  0.00     0.096 C 
HETATM   11  C21         0      26.621  58.212 -21.833  1.00  0.00     0.084 C 
ENDROOT
BRANCH  10  12
HETATM   12  O20         0      25.079  59.140 -20.299  1.00  0.00    -0.359 OA
HETATM   13  H20         0      24.842  59.784 -20.955  1.00  0.00     0.218 HD
ENDBRANCH  10  12
BRANCH   4  14
HETATM   14  C5          0      28.728  58.258 -25.382  1.00  0.00     0.025 C 
HETATM   15  C6          0      29.705  57.349 -25.762  1.00  0.00     0.004 C 
HETATM   16  C7          0      29.556  56.721 -26.994  1.00  0.00     0.026 C 
HETATM   17  C8          0      28.547  57.082 -27.880  1.00  0.00     0.112 C 
HETATM   18  C10         0      28.052  58.367 -27.703  1.00  0.00     0.112 C 
HETATM   19  C12         0      28.137  58.939 -26.439  1.00  0.00     0.028 C 
BRANCH  17  20
HETATM   20  O9          0      27.963  56.142 -28.711  1.00  0.00    -0.357 OA
HETATM   21  H9          0      28.425  55.390 -29.064  1.00  0.00     0.218 HD
ENDBRANCH  17  20
BRANCH  18  22
HETATM   22  O11         0      27.182  58.845 -28.672  1.00  0.00    -0.357 OA
HETATM   23  H11         0      27.458  59.616 -29.156  1.00  0.00     0.218 HD
ENDBRANCH  18  22
ENDBRANCH   4  14
BRANCH   8  24
HETATM   24  O17         0      25.301  54.503 -20.948  1.00  0.00    -0.359 OA
HETATM   25  H17         0      25.454  53.853 -21.623  1.00  0.00     0.218 HD
ENDBRANCH   8  24
TORSDOF 5
ENDMDL
MODEL 5
REMARK VINA RESULT:      -5.5      2.247      2.435
REMARK  5 active torsions:
REMARK  status: ('A' for Active; 'I' for Inactive)
REMARK    1  A    between atoms: C4_4  and  C5_5 
REMARK    2  A    between atoms: C8_8  and  O9_9 
REMARK    3  A    between atoms: C10_11  and  O11_12 
REMARK    4  A    between atoms: C16_18  and  O17_19 
REMARK    5  A    between atoms: C19_22  and  O20_23 
ROOT
HETATM    1  O1          0      37.604  53.998 -25.953  1.00  0.00    -0.286 OA
HETATM    2  C2          0      36.914  53.876 -24.904  1.00  0.00     0.201 C 
HETATM    3  C3          0      36.004  54.833 -24.489  1.00  0.00     0.067 C 
HETATM    4  C4          0      35.332  54.722 -23.277  1.00  0.00     0.103 C 
HETATM    5  O13         0      35.559  53.664 -22.519  1.00  0.00    -0.307 OA
HETATM    6  C14         0      36.441  52.746 -22.848  1.00  0.00     0.107 C 
HETATM    7  C15         0      36.971  51.872 -21.909  1.00  0.00     0.049 C 
HETATM    8  C16         0      38.077  51.083 -22.202  1.00  0.00     0.093 C 
HETATM    9  C18         0      38.267  50.817 -23.553  1.00  0.00     0.048 C 
HETATM   10  C19         0      37.711  51.644 -24.520  1.00  0.00     0.096 C 
HETATM   11  C21         0      36.955  52.720 -24.140  1.00  0.00     0.084 C 
ENDROOT
BRANCH  10  12
HETATM   12  O20         0      38.245  51.643 -25.804  1.00  0.00    -0.359 OA
HETATM   13  H20         0      37.658  51.467 -26.530  1.00  0.00     0.218 HD
ENDBRANCH  10  12
BRANCH   4  14
HETATM   14  C5          0      34.892  55.965 -22.639  1.00  0.00     0.025 C 
HETATM   15  C6          0      35.308  57.217 -23.067  1.00  0.00     0.004 C 
HETATM   16  C7          0      34.374  58.248 -23.047  1.00  0.00     0.026 C 
HETATM   17  C8          0      33.108  58.075 -22.495  1.00  0.00     0.112 C 
HETATM   18  C10         0      33.018  57.051 -21.562  1.00  0.00     0.112 C 
HETATM   19  C12         0      33.911  55.990 -21.657  1.00  0.00     0.028 C 
BRANCH  17  20
HETATM   20  O9          0      32.012  58.742 -23.013  1.00  0.00    -0.357 OA
HETATM   21  H9          0      32.050  59.306 -23.777  1.00  0.00     0.218 HD
ENDBRANCH  17  20
BRANCH  18  22
HETATM   22  O11         0      31.833  56.958 -20.845  1.00  0.00    -0.357 OA
HETATM   23  H11         0      31.133  57.550 -21.093  1.00  0.00     0.218 HD
ENDBRANCH  18  22
ENDBRANCH   4  14
BRANCH   8  24
HETATM   24  O17         0      39.088  50.866 -21.260  1.00  0.00    -0.359 OA
HETATM   25  H17         0      39.974  50.645 -21.521  1.00  0.00     0.218 HD
ENDBRANCH   8  24
TORSDOF 5
ENDMDL
MODEL 6
REMARK VINA RESULT:      -5.5      6.104      8.743
REMARK  5 active torsions:
REMARK  status: ('A' for Active; 'I' for Inactive)
REMARK    1  A    between atoms: C4_4  and  C5_5 
REMARK    2  A    between atoms: C8_8  and  O9_9 
REMARK    3  A    between atoms: C10_11  and  O11_12 
REMARK    4  A    between atoms: C16_18  and  O17_19 
REMARK    5  A    between atoms: C19_22  and  O20_23 
ROOT
HETATM    1  O1          0      30.631  57.713 -27.803  1.00  0.00    -0.286 OA
HETATM    2  C2          0      30.694  58.204 -26.643  1.00  0.00     0.201 C 
HETATM    3  C3          0      31.871  58.269 -25.918  1.00  0.00     0.067 C 
HETATM    4  C4          0      31.893  58.721 -24.603  1.00  0.00     0.103 C 
HETATM    5  O13         0      30.761  59.115 -24.048  1.00  0.00    -0.307 OA
HETATM    6  C14         0      29.610  59.038 -24.679  1.00  0.00     0.107 C 
HETATM    7  C15         0      28.400  59.062 -23.999  1.00  0.00     0.049 C 
HETATM    8  C16         0      27.210  58.727 -24.632  1.00  0.00     0.093 C 
HETATM    9  C18         0      27.211  58.898 -26.011  1.00  0.00     0.048 C 
HETATM   10  C19         0      28.405  58.926 -26.718  1.00  0.00     0.096 C 
HETATM   11  C21         0      29.592  58.803 -26.049  1.00  0.00     0.084 C 
ENDROOT
BRANCH  10  12
HETATM   12  O20         0      28.395  58.659 -28.084  1.00  0.00    -0.359 OA
HETATM   13  H20         0      27.857  57.940 -28.392  1.00  0.00     0.218 HD
ENDBRANCH  10  12
BRANCH   4  14
HETATM   14  C5          0      32.964  58.219 -23.740  1.00  0.00     0.025 C 
HETATM   15  C6          0      34.295  58.574 -23.908  1.00  0.00     0.004 C 
HETATM   16  C7          0      35.057  58.776 -22.762  1.00  0.00     0.026 C 
HETATM   17  C8          0      34.555  58.504 -21.494  1.00  0.00     0.112 C 
HETATM   18  C10         0      33.510  57.590 -21.469  1.00  0.00     0.112 C 
HETATM   19  C12         0      32.710  57.469 -22.599  1.00  0.00     0.028 C 
BRANCH  17  20
HETATM   20  O9          0      34.942  59.259 -20.401  1.00  0.00    -0.357 OA
HETATM   21  H9          0      35.406  58.903 -19.652  1.00  0.00     0.218 HD
ENDBRANCH  17  20
BRANCH  18  22
HETATM   22  O11         0      33.098  57.141 -20.222  1.00  0.00    -0.357 OA
HETATM   23  H11         0      33.235  57.727 -19.487  1.00  0.00     0.218 HD
ENDBRANCH  18  22
ENDBRANCH   4  14
BRANCH   8  24
HETATM   24  O17         0      26.227  57.970 -23.985  1.00  0.00    -0.359 OA
HETATM   25  H17         0      26.132  57.037 -24.141  1.00  0.00     0.218 HD
ENDBRANCH   8  24
TORSDOF 5
ENDMDL
MODEL 7
REMARK VINA RESULT:      -5.4      8.907     11.711
REMARK  5 active torsions:
REMARK  status: ('A' for Active; 'I' for Inactive)
REMARK    1  A    between atoms: C4_4  and  C5_5 
REMARK    2  A    between atoms: C8_8  and  O9_9 
REMARK    3  A    between atoms: C10_11  and  O11_12 
REMARK    4  A    between atoms: C16_18  and  O17_19 
REMARK    5  A    between atoms: C19_22  and  O20_23 
ROOT
HETATM    1  O1          0      29.952  56.833 -22.664  1.00  0.00    -0.286 OA
HETATM    2  C2          0      28.765  56.787 -23.087  1.00  0.00     0.201 C 
HETATM    3  C3          0      27.862  55.817 -22.687  1.00  0.00     0.067 C 
HETATM    4  C4          0      26.592  55.728 -23.247  1.00  0.00     0.103 C 
HETATM    5  O13         0      26.241  56.608 -24.167  1.00  0.00    -0.307 OA
HETATM    6  C14         0      27.072  57.526 -24.610  1.00  0.00     0.107 C 
HETATM    7  C15         0      26.868  58.175 -25.819  1.00  0.00     0.049 C 
HETATM    8  C16         0      27.866  58.948 -26.401  1.00  0.00     0.093 C 
HETATM    9  C18         0      28.807  59.457 -25.513  1.00  0.00     0.048 C 
HETATM   10  C19         0      29.004  58.860 -24.275  1.00  0.00     0.096 C 
HETATM   11  C21         0      28.254  57.772 -23.919  1.00  0.00     0.084 C 
ENDROOT
BRANCH  10  12
HETATM   12  O20         0      30.198  59.080 -23.596  1.00  0.00    -0.359 OA
HETATM   13  H20         0      30.888  58.434 -23.689  1.00  0.00     0.218 HD
ENDBRANCH  10  12
BRANCH   4  14
HETATM   14  C5          0      25.953  54.411 -23.251  1.00  0.00     0.025 C 
HETATM   15  C6          0      25.199  53.944 -24.317  1.00  0.00     0.004 C 
HETATM   16  C7          0      25.311  52.597 -24.646  1.00  0.00     0.026 C 
HETATM   17  C8          0      26.043  51.713 -23.861  1.00  0.00     0.112 C 
HETATM   18  C10         0      26.210  52.112 -22.541  1.00  0.00     0.112 C 
HETATM   19  C12         0      26.178  53.471 -22.253  1.00  0.00     0.028 C 
BRANCH  17  20
HETATM   20  O9          0      26.714  50.646 -24.431  1.00  0.00    -0.357 OA
HETATM   21  H9          0      26.942  50.598 -25.352  1.00  0.00     0.218 HD
ENDBRANCH  17  20
BRANCH  18  22
HETATM   22  O11         0      26.766  51.186 -21.670  1.00  0.00    -0.357 OA
HETATM   23  H11         0      27.451  50.626 -22.017  1.00  0.00     0.218 HD
ENDBRANCH  18  22
ENDBRANCH   4  14
BRANCH   8  24
HETATM   24  O17         0      28.093  58.928 -27.781  1.00  0.00    -0.359 OA
HETATM   25  H17         0      28.449  58.163 -28.217  1.00  0.00     0.218 HD
ENDBRANCH   8  24
TORSDOF 5
ENDMDL
MODEL 8
REMARK VINA RESULT:      -5.4     10.034     12.024
REMARK  5 active torsions:
REMARK  status: ('A' for Active; 'I' for Inactive)
REMARK    1  A    between atoms: C4_4  and  C5_5 
REMARK    2  A    between atoms: C8_8  and  O9_9 
REMARK    3  A    between atoms: C10_11  and  O11_12 
REMARK    4  A    between atoms: C16_18  and  O17_19 
REMARK    5  A    between atoms: C19_22  and  O20_23 
ROOT
HETATM    1  O1          0      26.533  55.368 -23.346  1.00  0.00    -0.286 OA
HETATM    2  C2          0      26.460  56.560 -23.752  1.00  0.00     0.201 C 
HETATM    3  C3          0      26.791  56.935 -25.043  1.00  0.00     0.067 C 
HETATM    4  C4          0      26.800  58.269 -25.435  1.00  0.00     0.103 C 
HETATM    5  O13         0      26.463  59.192 -24.552  1.00  0.00    -0.307 OA
HETATM    6  C14         0      26.176  58.894 -23.304  1.00  0.00     0.107 C 
HETATM    7  C15         0      26.216  59.847 -22.297  1.00  0.00     0.049 C 
HETATM    8  C16         0      26.165  59.483 -20.956  1.00  0.00     0.093 C 
HETATM    9  C18         0      25.555  58.261 -20.703  1.00  0.00     0.048 C 
HETATM   10  C19         0      25.456  57.301 -21.701  1.00  0.00     0.096 C 
HETATM   11  C21         0      25.947  57.568 -22.950  1.00  0.00     0.084 C 
ENDROOT
BRANCH  10  12
HETATM   12  O20         0      25.259  55.970 -21.348  1.00  0.00    -0.359 OA
HETATM   13  H20         0      25.362  55.731 -20.435  1.00  0.00     0.218 HD
ENDBRANCH  10  12
BRANCH   4  14
HETATM   14  C5          0      27.694  58.638 -26.534  1.00  0.00     0.025 C 
HETATM   15  C6          0      28.970  59.140 -26.329  1.00  0.00     0.004 C 
HETATM   16  C7          0      29.973  58.729 -27.202  1.00  0.00     0.026 C 
HETATM   17  C8          0      29.692  57.953 -28.321  1.00  0.00     0.112 C 
HETATM   18  C10         0      28.383  58.042 -28.776  1.00  0.00     0.112 C 
HETATM   19  C12         0      27.388  58.372 -27.863  1.00  0.00     0.028 C 
BRANCH  17  20
HETATM   20  O9          0      30.604  57.021 -28.784  1.00  0.00    -0.357 OA
HETATM   21  H9          0      30.568  56.095 -28.571  1.00  0.00     0.218 HD
ENDBRANCH  17  20
BRANCH  18  22
HETATM   22  O11         0      28.098  57.440 -29.993  1.00  0.00    -0.357 OA
HETATM   23  H11         0      27.181  57.300 -30.199  1.00  0.00     0.218 HD
ENDBRANCH  18  22
ENDBRANCH   4  14
BRANCH   8  24
HETATM   24  O17         0      26.955  60.125 -19.996  1.00  0.00    -0.359 OA
HETATM   25  H17         0      27.214  59.691 -19.192  1.00  0.00     0.218 HD
ENDBRANCH   8  24
TORSDOF 5
ENDMDL
MODEL 9
REMARK VINA RESULT:      -5.3     11.150     12.967
REMARK  5 active torsions:
REMARK  status: ('A' for Active; 'I' for Inactive)
REMARK    1  A    between atoms: C4_4  and  C5_5 
REMARK    2  A    between atoms: C8_8  and  O9_9 
REMARK    3  A    between atoms: C10_11  and  O11_12 
REMARK    4  A    between atoms: C16_18  and  O17_19 
REMARK    5  A    between atoms: C19_22  and  O20_23 
ROOT
HETATM    1  O1          0      25.652  55.059 -28.954  1.00  0.00    -0.286 OA
HETATM    2  C2          0      26.203  56.194 -28.950  1.00  0.00     0.201 C 
HETATM    3  C3          0      26.948  56.662 -27.881  1.00  0.00     0.067 C 
HETATM    4  C4          0      27.459  57.955 -27.859  1.00  0.00     0.103 C 
HETATM    5  O13         0      27.239  58.741 -28.899  1.00  0.00    -0.307 OA
HETATM    6  C14         0      26.508  58.359 -29.922  1.00  0.00     0.107 C 
HETATM    7  C15         0      25.947  59.274 -30.802  1.00  0.00     0.049 C 
HETATM    8  C16         0      24.977  58.891 -31.721  1.00  0.00     0.093 C 
HETATM    9  C18         0      24.998  57.546 -32.069  1.00  0.00     0.048 C 
HETATM   10  C19         0      25.592  56.609 -31.234  1.00  0.00     0.096 C 
HETATM   11  C21         0      26.177  57.016 -30.066  1.00  0.00     0.084 C 
ENDROOT
BRANCH  10  12
HETATM   12  O20         0      25.239  55.269 -31.355  1.00  0.00    -0.359 OA
HETATM   13  H20         0      24.486  54.961 -30.865  1.00  0.00     0.218 HD
ENDBRANCH  10  12
BRANCH   4  14
HETATM   14  C5          0      27.680  58.566 -26.548  1.00  0.00     0.025 C 
HETATM   15  C6          0      26.741  58.518 -25.527  1.00  0.00     0.004 C 
HETATM   16  C7          0      27.209  58.348 -24.228  1.00  0.00     0.026 C 
HETATM   17  C8          0      28.568  58.360 -23.935  1.00  0.00     0.112 C 
HETATM   18  C10         0      29.356  59.027 -24.864  1.00  0.00     0.112 C 
HETATM   19  C12         0      28.903  59.109 -26.176  1.00  0.00     0.028 C 
BRANCH  17  20
HETATM   20  O9          0      29.080  57.581 -22.912  1.00  0.00    -0.357 OA
HETATM   21  H9          0      29.632  57.920 -22.217  1.00  0.00     0.218 HD
ENDBRANCH  17  20
BRANCH  18  22
HETATM   22  O11         0      30.686  59.233 -24.528  1.00  0.00    -0.357 OA
HETATM   23  H11         0      30.878  59.398 -23.612  1.00  0.00     0.218 HD
ENDBRANCH  18  22
ENDBRANCH   4  14
BRANCH   8  24
HETATM   24  O17         0      23.875  59.706 -32.001  1.00  0.00    -0.359 OA
HETATM   25  H17         0      23.010  59.511 -31.660  1.00  0.00     0.218 HD
ENDBRANCH   8  24
TORSDOF 5
ENDMDL
