MODEL 1
REMARK VINA RESULT:      -0.7      0.000      0.000
REMARK  5 active torsions:
REMARK  status: ('A' for Active; 'I' for Inactive)
REMARK    1  A    between atoms: C4_4  and  C5_5 
REMARK    2  A    between atoms: C8_8  and  O9_9 
REMARK    3  A    between atoms: C10_11  and  O11_12 
REMARK    4  A    between atoms: C16_18  and  O17_19 
REMARK    5  A    between atoms: C19_22  and  O20_23 
ROOT
HETATM    1  O1          0      53.161  99.875 -25.670  1.00  0.00    -0.286 OA
HETATM    2  C2          0      53.293 100.133 -26.898  1.00  0.00     0.201 C 
HETATM    3  C3          0      54.486  99.958 -27.578  1.00  0.00     0.067 C 
HETATM    4  C4          0      54.632 100.347 -28.905  1.00  0.00     0.103 C 
HETATM    5  O13         0      53.595 100.876 -29.530  1.00  0.00    -0.307 OA
HETATM    6  C14         0      52.451 101.098 -28.920  1.00  0.00     0.107 C 
HETATM    7  C15         0      51.516 101.992 -29.423  1.00  0.00     0.049 C 
HETATM    8  C16         0      50.436 102.414 -28.657  1.00  0.00     0.093 C 
HETATM    9  C18         0      50.056 101.539 -27.647  1.00  0.00     0.048 C 
HETATM   10  C19         0      50.951 100.600 -27.153  1.00  0.00     0.096 C 
HETATM   11  C21         0      52.213 100.524 -27.676  1.00  0.00     0.084 C 
ENDROOT
BRANCH  10  12
HETATM   12  O20         0      50.733 100.048 -25.894  1.00  0.00    -0.359 OA
HETATM   13  H20         0      51.491  99.813 -25.373  1.00  0.00     0.218 HD
ENDBRANCH  10  12
BRANCH   4  14
HETATM   14  C5          0      55.980 100.697 -29.356  1.00  0.00     0.025 C 
HETATM   15  C6          0      56.254 101.845 -30.085  1.00  0.00     0.004 C 
HETATM   16  C7          0      57.436 102.522 -29.802  1.00  0.00     0.026 C 
HETATM   17  C8          0      58.380 102.005 -28.921  1.00  0.00     0.112 C 
HETATM   18  C10         0      58.322 100.627 -28.753  1.00  0.00     0.112 C 
HETATM   19  C12         0      57.106  99.987 -28.959  1.00  0.00     0.028 C 
BRANCH  17  20
HETATM   20  O9          0      59.151 102.843 -28.135  1.00  0.00    -0.357 OA
HETATM   21  H9          0      60.100 102.814 -28.107  1.00  0.00     0.218 HD
ENDBRANCH  17  20
BRANCH  18  22
HETATM   22  O11         0      59.354 100.038 -28.036  1.00  0.00    -0.357 OA
HETATM   23  H11         0      59.621  99.167 -28.304  1.00  0.00     0.218 HD
ENDBRANCH  18  22
ENDBRANCH   4  14
BRANCH   8  24
HETATM   24  O17         0      49.998 103.742 -28.683  1.00  0.00    -0.359 OA
HETATM   25  H17         0      50.426 104.419 -28.172  1.00  0.00     0.218 HD
ENDBRANCH   8  24
TORSDOF 5
ENDMDL
MODEL 2
REMARK VINA RESULT:      -0.6      1.436      1.656
REMARK  5 active torsions:
REMARK  status: ('A' for Active; 'I' for Inactive)
REMARK    1  A    between atoms: C4_4  and  C5_5 
REMARK    2  A    between atoms: C8_8  and  O9_9 
REMARK    3  A    between atoms: C10_11  and  O11_12 
REMARK    4  A    between atoms: C16_18  and  O17_19 
REMARK    5  A    between atoms: C19_22  and  O20_23 
ROOT
HETATM    1  O1          0      52.199  99.911 -25.991  1.00  0.00    -0.286 OA
HETATM    2  C2          0      52.802 100.201 -27.061  1.00  0.00     0.201 C 
HETATM    3  C3          0      54.179 100.137 -27.187  1.00  0.00     0.067 C 
HETATM    4  C4          0      54.825 100.560 -28.343  1.00  0.00     0.103 C 
HETATM    5  O13         0      54.096 101.013 -29.348  1.00  0.00    -0.307 OA
HETATM    6  C14         0      52.789 101.129 -29.267  1.00  0.00     0.107 C 
HETATM    7  C15         0      52.074 101.952 -30.125  1.00  0.00     0.049 C 
HETATM    8  C16         0      50.744 102.270 -29.879  1.00  0.00     0.093 C 
HETATM    9  C18         0      50.055 101.348 -29.099  1.00  0.00     0.048 C 
HETATM   10  C19         0      50.742 100.477 -28.264  1.00  0.00     0.096 C 
HETATM   11  C21         0      52.109 100.515 -28.221  1.00  0.00     0.084 C 
ENDROOT
BRANCH  10  12
HETATM   12  O20         0      50.072  99.887 -27.197  1.00  0.00    -0.359 OA
HETATM   13  H20         0      50.573  99.339 -26.605  1.00  0.00     0.218 HD
ENDBRANCH  10  12
BRANCH   4  14
HETATM   14  C5          0      56.205 101.028 -28.206  1.00  0.00     0.025 C 
HETATM   15  C6          0      57.194 100.739 -29.135  1.00  0.00     0.004 C 
HETATM   16  C7          0      58.118 101.738 -29.425  1.00  0.00     0.026 C 
HETATM   17  C8          0      58.143 102.936 -28.720  1.00  0.00     0.112 C 
HETATM   18  C10         0      57.576 102.875 -27.454  1.00  0.00     0.112 C 
HETATM   19  C12         0      56.593 101.922 -27.215  1.00  0.00     0.028 C 
BRANCH  17  20
HETATM   20  O9          0      58.513 104.116 -29.339  1.00  0.00    -0.357 OA
HETATM   21  H9          0      58.695 104.923 -28.872  1.00  0.00     0.218 HD
ENDBRANCH  17  20
BRANCH  18  22
HETATM   22  O11         0      57.742 103.984 -26.637  1.00  0.00    -0.357 OA
HETATM   23  H11         0      57.565 103.867 -25.710  1.00  0.00     0.218 HD
ENDBRANCH  18  22
ENDBRANCH   4  14
BRANCH   8  24
HETATM   24  O17         0      50.247 103.558 -30.106  1.00  0.00    -0.359 OA
HETATM   25  H17         0      50.216 104.210 -29.416  1.00  0.00     0.218 HD
ENDBRANCH   8  24
TORSDOF 5
ENDMDL
MODEL 3
REMARK VINA RESULT:      -0.6      1.725      2.216
REMARK  5 active torsions:
REMARK  status: ('A' for Active; 'I' for Inactive)
REMARK    1  A    between atoms: C4_4  and  C5_5 
REMARK    2  A    between atoms: C8_8  and  O9_9 
REMARK    3  A    between atoms: C10_11  and  O11_12 
REMARK    4  A    between atoms: C16_18  and  O17_19 
REMARK    5  A    between atoms: C19_22  and  O20_23 
ROOT
HETATM    1  O1          0      53.832 100.626 -23.860  1.00  0.00    -0.286 OA
HETATM    2  C2          0      54.146 100.368 -25.055  1.00  0.00     0.201 C 
HETATM    3  C3          0      55.459 100.327 -25.493  1.00  0.00     0.067 C 
HETATM    4  C4          0      55.774 100.143 -26.834  1.00  0.00     0.103 C 
HETATM    5  O13         0      54.789  99.984 -27.701  1.00  0.00    -0.307 OA
HETATM    6  C14         0      53.526 100.052 -27.344  1.00  0.00     0.107 C 
HETATM    7  C15         0      52.517 100.287 -28.267  1.00  0.00     0.049 C 
HETATM    8  C16         0      51.228 100.610 -27.861  1.00  0.00     0.093 C 
HETATM    9  C18         0      50.887 100.172 -26.587  1.00  0.00     0.048 C 
HETATM   10  C19         0      51.873  99.883 -25.653  1.00  0.00     0.096 C 
HETATM   11  C21         0      53.191 100.014 -25.995  1.00  0.00     0.084 C 
ENDROOT
BRANCH  10  12
HETATM   12  O20         0      51.547  99.875 -24.300  1.00  0.00    -0.359 OA
HETATM   13  H20         0      51.235 100.684 -23.913  1.00  0.00     0.218 HD
ENDBRANCH  10  12
BRANCH   4  14
HETATM   14  C5          0      57.046 100.694 -27.305  1.00  0.00     0.025 C 
HETATM   15  C6          0      57.346 100.848 -28.651  1.00  0.00     0.004 C 
HETATM   16  C7          0      58.054 101.985 -29.027  1.00  0.00     0.026 C 
HETATM   17  C8          0      58.564 102.872 -28.085  1.00  0.00     0.112 C 
HETATM   18  C10         0      58.766 102.326 -26.824  1.00  0.00     0.112 C 
HETATM   19  C12         0      57.985 101.242 -26.441  1.00  0.00     0.028 C 
BRANCH  17  20
HETATM   20  O9          0      58.646 104.226 -28.358  1.00  0.00    -0.357 OA
HETATM   21  H9          0      59.200 104.595 -29.036  1.00  0.00     0.218 HD
ENDBRANCH  17  20
BRANCH  18  22
HETATM   22  O11         0      59.445 103.109 -25.902  1.00  0.00    -0.357 OA
HETATM   23  H11         0      58.938 103.461 -25.180  1.00  0.00     0.218 HD
ENDBRANCH  18  22
ENDBRANCH   4  14
BRANCH   8  24
HETATM   24  O17         0      50.472 101.576 -28.534  1.00  0.00    -0.359 OA
HETATM   25  H17         0      50.704 101.874 -29.406  1.00  0.00     0.218 HD
ENDBRANCH   8  24
TORSDOF 5
ENDMDL
MODEL 4
REMARK VINA RESULT:      -0.5      3.977      6.062
REMARK  5 active torsions:
REMARK  status: ('A' for Active; 'I' for Inactive)
REMARK    1  A    between atoms: C4_4  and  C5_5 
REMARK    2  A    between atoms: C8_8  and  O9_9 
REMARK    3  A    between atoms: C10_11  and  O11_12 
REMARK    4  A    between atoms: C16_18  and  O17_19 
REMARK    5  A    between atoms: C19_22  and  O20_23 
ROOT
HETATM    1  O1          0      56.101 104.548 -26.866  1.00  0.00    -0.286 OA
HETATM    2  C2          0      55.108 104.022 -26.292  1.00  0.00     0.201 C 
HETATM    3  C3          0      54.753 102.696 -26.471  1.00  0.00     0.067 C 
HETATM    4  C4          0      53.596 102.169 -25.908  1.00  0.00     0.103 C 
HETATM    5  O13         0      52.835 102.955 -25.168  1.00  0.00    -0.307 OA
HETATM    6  C14         0      53.106 104.230 -24.996  1.00  0.00     0.107 C 
HETATM    7  C15         0      52.140 105.133 -24.578  1.00  0.00     0.049 C 
HETATM    8  C16         0      52.357 106.505 -24.642  1.00  0.00     0.093 C 
HETATM    9  C18         0      53.692 106.889 -24.622  1.00  0.00     0.048 C 
HETATM   10  C19         0      54.689 105.996 -24.991  1.00  0.00     0.096 C 
HETATM   11  C21         0      54.356 104.721 -25.360  1.00  0.00     0.084 C 
ENDROOT
BRANCH  10  12
HETATM   12  O20         0      55.930 106.486 -25.385  1.00  0.00    -0.359 OA
HETATM   13  H20         0      56.003 107.414 -25.572  1.00  0.00     0.218 HD
ENDBRANCH  10  12
BRANCH   4  14
HETATM   14  C5          0      52.980 101.028 -26.589  1.00  0.00     0.025 C 
HETATM   15  C6          0      51.854 100.381 -26.101  1.00  0.00     0.004 C 
HETATM   16  C7          0      50.908  99.949 -27.025  1.00  0.00     0.026 C 
HETATM   17  C8          0      51.133 100.037 -28.395  1.00  0.00     0.112 C 
HETATM   18  C10         0      52.471 100.090 -28.760  1.00  0.00     0.112 C 
HETATM   19  C12         0      53.385 100.605 -27.848  1.00  0.00     0.028 C 
BRANCH  17  20
HETATM   20  O9          0      50.088 100.266 -29.272  1.00  0.00    -0.357 OA
HETATM   21  H9          0      50.198 100.643 -30.137  1.00  0.00     0.218 HD
ENDBRANCH  17  20
BRANCH  18  22
HETATM   22  O11         0      52.758  99.987 -30.114  1.00  0.00    -0.357 OA
HETATM   23  H11         0      52.102 100.315 -30.718  1.00  0.00     0.218 HD
ENDBRANCH  18  22
ENDBRANCH   4  14
BRANCH   8  24
HETATM   24  O17         0      51.343 107.386 -25.035  1.00  0.00    -0.359 OA
HETATM   25  H17         0      50.857 107.901 -24.403  1.00  0.00     0.218 HD
ENDBRANCH   8  24
TORSDOF 5
ENDMDL
MODEL 5
REMARK VINA RESULT:      -0.5      4.146      6.847
REMARK  5 active torsions:
REMARK  status: ('A' for Active; 'I' for Inactive)
REMARK    1  A    between atoms: C4_4  and  C5_5 
REMARK    2  A    between atoms: C8_8  and  O9_9 
REMARK    3  A    between atoms: C10_11  and  O11_12 
REMARK    4  A    between atoms: C16_18  and  O17_19 
REMARK    5  A    between atoms: C19_22  and  O20_23 
ROOT
HETATM    1  O1          0      55.605 104.684 -25.719  1.00  0.00    -0.286 OA
HETATM    2  C2          0      55.452 103.517 -25.265  1.00  0.00     0.201 C 
HETATM    3  C3          0      54.956 102.474 -26.028  1.00  0.00     0.067 C 
HETATM    4  C4          0      54.699 101.224 -25.476  1.00  0.00     0.103 C 
HETATM    5  O13         0      54.958 101.031 -24.195  1.00  0.00    -0.307 OA
HETATM    6  C14         0      55.394 101.997 -23.416  1.00  0.00     0.107 C 
HETATM    7  C15         0      55.288 101.928 -22.035  1.00  0.00     0.049 C 
HETATM    8  C16         0      55.511 103.043 -21.237  1.00  0.00     0.093 C 
HETATM    9  C18         0      56.328 104.015 -21.801  1.00  0.00     0.048 C 
HETATM   10  C19         0      56.494 104.084 -23.178  1.00  0.00     0.096 C 
HETATM   11  C21         0      55.862 103.177 -23.984  1.00  0.00     0.084 C 
ENDROOT
BRANCH  10  12
HETATM   12  O20         0      56.932 105.274 -23.752  1.00  0.00    -0.359 OA
HETATM   13  H20         0      56.416 105.643 -24.458  1.00  0.00     0.218 HD
ENDBRANCH  10  12
BRANCH   4  14
HETATM   14  C5          0      53.668 100.407 -26.117  1.00  0.00     0.025 C 
HETATM   15  C6          0      52.574  99.901 -25.430  1.00  0.00     0.004 C 
HETATM   16  C7          0      51.350  99.880 -26.091  1.00  0.00     0.026 C 
HETATM   17  C8          0      51.241 100.224 -27.435  1.00  0.00     0.112 C 
HETATM   18  C10         0      52.415 100.093 -28.164  1.00  0.00     0.112 C 
HETATM   19  C12         0      53.626 100.203 -27.491  1.00  0.00     0.028 C 
BRANCH  17  20
HETATM   20  O9          0      50.102 100.843 -27.918  1.00  0.00    -0.357 OA
HETATM   21  H9          0      49.872 100.881 -28.839  1.00  0.00     0.218 HD
ENDBRANCH  17  20
BRANCH  18  22
HETATM   22  O11         0      52.320 100.240 -29.540  1.00  0.00    -0.357 OA
HETATM   23  H11         0      51.726  99.655 -29.995  1.00  0.00     0.218 HD
ENDBRANCH  18  22
ENDBRANCH   4  14
BRANCH   8  24
HETATM   24  O17         0      54.713 103.312 -20.119  1.00  0.00    -0.359 OA
HETATM   25  H17         0      54.574 102.664 -19.438  1.00  0.00     0.218 HD
ENDBRANCH   8  24
TORSDOF 5
ENDMDL
MODEL 6
REMARK VINA RESULT:      -0.4      2.912      3.400
REMARK  5 active torsions:
REMARK  status: ('A' for Active; 'I' for Inactive)
REMARK    1  A    between atoms: C4_4  and  C5_5 
REMARK    2  A    between atoms: C8_8  and  O9_9 
REMARK    3  A    between atoms: C10_11  and  O11_12 
REMARK    4  A    between atoms: C16_18  and  O17_19 
REMARK    5  A    between atoms: C19_22  and  O20_23 
ROOT
HETATM    1  O1          0      51.523 102.623 -24.538  1.00  0.00    -0.286 OA
HETATM    2  C2          0      52.348 102.188 -25.388  1.00  0.00     0.201 C 
HETATM    3  C3          0      53.682 102.558 -25.397  1.00  0.00     0.067 C 
HETATM    4  C4          0      54.546 102.146 -26.405  1.00  0.00     0.103 C 
HETATM    5  O13         0      54.077 101.365 -27.362  1.00  0.00    -0.307 OA
HETATM    6  C14         0      52.811 101.015 -27.422  1.00  0.00     0.107 C 
HETATM    7  C15         0      52.235 100.550 -28.595  1.00  0.00     0.049 C 
HETATM    8  C16         0      50.857 100.426 -28.723  1.00  0.00     0.093 C 
HETATM    9  C18         0      50.169 100.267 -27.526  1.00  0.00     0.048 C 
HETATM   10  C19         0      50.735 100.678 -26.327  1.00  0.00     0.096 C 
HETATM   11  C21         0      51.988 101.228 -26.321  1.00  0.00     0.084 C 
ENDROOT
BRANCH  10  12
HETATM   12  O20         0      49.910 100.923 -25.234  1.00  0.00    -0.359 OA
HETATM   13  H20         0      49.754 101.827 -24.987  1.00  0.00     0.218 HD
ENDBRANCH  10  12
BRANCH   4  14
HETATM   14  C5          0      55.695 103.005 -26.696  1.00  0.00     0.025 C 
HETATM   15  C6          0      56.212 103.163 -27.973  1.00  0.00     0.004 C 
HETATM   16  C7          0      56.654 104.431 -28.338  1.00  0.00     0.026 C 
HETATM   17  C8          0      56.707 105.476 -27.422  1.00  0.00     0.112 C 
HETATM   18  C10         0      56.785 105.080 -26.094  1.00  0.00     0.112 C 
HETATM   19  C12         0      56.258 103.843 -25.742  1.00  0.00     0.028 C 
BRANCH  17  20
HETATM   20  O9          0      56.482 106.781 -27.823  1.00  0.00    -0.357 OA
HETATM   21  H9          0      55.985 107.411 -27.314  1.00  0.00     0.218 HD
ENDBRANCH  17  20
BRANCH  18  22
HETATM   22  O11         0      57.030 106.072 -25.156  1.00  0.00    -0.357 OA
HETATM   23  H11         0      57.824 106.582 -25.266  1.00  0.00     0.218 HD
ENDBRANCH  18  22
ENDBRANCH   4  14
BRANCH   8  24
HETATM   24  O17         0      50.201 100.771 -29.910  1.00  0.00    -0.359 OA
HETATM   25  H17         0      50.094 100.149 -30.620  1.00  0.00     0.218 HD
ENDBRANCH   8  24
TORSDOF 5
ENDMDL
MODEL 7
REMARK VINA RESULT:      -0.4      2.314      3.616
REMARK  5 active torsions:
REMARK  status: ('A' for Active; 'I' for Inactive)
REMARK    1  A    between atoms: C4_4  and  C5_5 
REMARK    2  A    between atoms: C8_8  and  O9_9 
REMARK    3  A    between atoms: C10_11  and  O11_12 
REMARK    4  A    between atoms: C16_18  and  O17_19 
REMARK    5  A    between atoms: C19_22  and  O20_23 
ROOT
HETATM    1  O1          0      56.687 101.226 -25.443  1.00  0.00    -0.286 OA
HETATM    2  C2          0      56.867 100.800 -26.617  1.00  0.00     0.201 C 
HETATM    3  C3          0      58.098 100.837 -27.249  1.00  0.00     0.067 C 
HETATM    4  C4          0      58.247 100.456 -28.577  1.00  0.00     0.103 C 
HETATM    5  O13         0      57.185 100.031 -29.239  1.00  0.00    -0.307 OA
HETATM    6  C14         0      55.987 100.011 -28.698  1.00  0.00     0.107 C 
HETATM    7  C15         0      54.836  99.958 -29.472  1.00  0.00     0.049 C 
HETATM    8  C16         0      53.583 100.193 -28.920  1.00  0.00     0.093 C 
HETATM    9  C18         0      53.489  99.951 -27.555  1.00  0.00     0.048 C 
HETATM   10  C19         0      54.625  99.951 -26.758  1.00  0.00     0.096 C 
HETATM   11  C21         0      55.851 100.174 -27.324  1.00  0.00     0.084 C 
ENDROOT
BRANCH  10  12
HETATM   12  O20         0      54.495 100.145 -25.386  1.00  0.00    -0.359 OA
HETATM   13  H20         0      53.654  99.955 -24.988  1.00  0.00     0.218 HD
ENDBRANCH  10  12
BRANCH   4  14
HETATM   14  C5          0      59.349 101.060 -29.328  1.00  0.00     0.025 C 
HETATM   15  C6          0      59.191 102.188 -30.120  1.00  0.00     0.004 C 
HETATM   16  C7          0      60.221 103.123 -30.124  1.00  0.00     0.026 C 
HETATM   17  C8          0      61.425 102.885 -29.470  1.00  0.00     0.112 C 
HETATM   18  C10         0      61.720 101.543 -29.270  1.00  0.00     0.112 C 
HETATM   19  C12         0      60.666 100.641 -29.185  1.00  0.00     0.028 C 
BRANCH  17  20
HETATM   20  O9          0      62.137 103.922 -28.894  1.00  0.00    -0.357 OA
HETATM   21  H9          0      62.207 104.057 -27.956  1.00  0.00     0.218 HD
ENDBRANCH  17  20
BRANCH  18  22
HETATM   22  O11         0      62.989 101.242 -28.796  1.00  0.00    -0.357 OA
HETATM   23  H11         0      63.478 101.952 -28.396  1.00  0.00     0.218 HD
ENDBRANCH  18  22
ENDBRANCH   4  14
BRANCH   8  24
HETATM   24  O17         0      52.610 100.929 -29.606  1.00  0.00    -0.359 OA
HETATM   25  H17         0      52.842 101.652 -30.177  1.00  0.00     0.218 HD
ENDBRANCH   8  24
TORSDOF 5
ENDMDL
MODEL 8
REMARK VINA RESULT:      -0.4      4.230      7.516
REMARK  5 active torsions:
REMARK  status: ('A' for Active; 'I' for Inactive)
REMARK    1  A    between atoms: C4_4  and  C5_5 
REMARK    2  A    between atoms: C8_8  and  O9_9 
REMARK    3  A    between atoms: C10_11  and  O11_12 
REMARK    4  A    between atoms: C16_18  and  O17_19 
REMARK    5  A    between atoms: C19_22  and  O20_23 
ROOT
HETATM    1  O1          0      51.652 104.711 -25.606  1.00  0.00    -0.286 OA
HETATM    2  C2          0      51.196 103.552 -25.407  1.00  0.00     0.201 C 
HETATM    3  C3          0      50.648 103.159 -24.198  1.00  0.00     0.067 C 
HETATM    4  C4          0      50.246 101.847 -23.972  1.00  0.00     0.103 C 
HETATM    5  O13         0      50.375 100.967 -24.949  1.00  0.00    -0.307 OA
HETATM    6  C14         0      50.923 101.278 -26.103  1.00  0.00     0.107 C 
HETATM    7  C15         0      51.422 100.309 -26.961  1.00  0.00     0.049 C 
HETATM    8  C16         0      52.221 100.648 -28.047  1.00  0.00     0.093 C 
HETATM    9  C18         0      52.048 101.943 -28.521  1.00  0.00     0.048 C 
HETATM   10  C19         0      51.508 102.927 -27.704  1.00  0.00     0.096 C 
HETATM   11  C21         0      51.127 102.615 -26.427  1.00  0.00     0.084 C 
ENDROOT
BRANCH  10  12
HETATM   12  O20         0      51.737 104.265 -28.009  1.00  0.00    -0.359 OA
HETATM   13  H20         0      51.316 104.923 -27.468  1.00  0.00     0.218 HD
ENDBRANCH  10  12
BRANCH   4  14
HETATM   14  C5          0      50.260 101.371 -22.588  1.00  0.00     0.025 C 
HETATM   15  C6          0      50.633 100.081 -22.240  1.00  0.00     0.004 C 
HETATM   16  C7          0      51.373  99.917 -21.073  1.00  0.00     0.026 C 
HETATM   17  C8          0      51.619 100.979 -20.210  1.00  0.00     0.112 C 
HETATM   18  C10         0      50.709 102.024 -20.302  1.00  0.00     0.112 C 
HETATM   19  C12         0      50.046 102.217 -21.508  1.00  0.00     0.028 C 
BRANCH  17  20
HETATM   20  O9          0      52.799 101.049 -19.490  1.00  0.00    -0.357 OA
HETATM   21  H9          0      53.372 100.305 -19.343  1.00  0.00     0.218 HD
ENDBRANCH  17  20
BRANCH  18  22
HETATM   22  O11         0      50.795 103.019 -19.339  1.00  0.00    -0.357 OA
HETATM   23  H11         0      50.137 103.703 -19.367  1.00  0.00     0.218 HD
ENDBRANCH  18  22
ENDBRANCH   4  14
BRANCH   8  24
HETATM   24  O17         0      53.331  99.875 -28.405  1.00  0.00    -0.359 OA
HETATM   25  H17         0      53.439  99.535 -29.285  1.00  0.00     0.218 HD
ENDBRANCH   8  24
TORSDOF 5
ENDMDL
MODEL 9
REMARK VINA RESULT:      -0.3      4.492      6.599
REMARK  5 active torsions:
REMARK  status: ('A' for Active; 'I' for Inactive)
REMARK    1  A    between atoms: C4_4  and  C5_5 
REMARK    2  A    between atoms: C8_8  and  O9_9 
REMARK    3  A    between atoms: C10_11  and  O11_12 
REMARK    4  A    between atoms: C16_18  and  O17_19 
REMARK    5  A    between atoms: C19_22  and  O20_23 
ROOT
HETATM    1  O1          0      56.218 104.787 -23.852  1.00  0.00    -0.286 OA
HETATM    2  C2          0      55.122 104.629 -24.458  1.00  0.00     0.201 C 
HETATM    3  C3          0      54.384 103.461 -24.381  1.00  0.00     0.067 C 
HETATM    4  C4          0      53.233 103.275 -25.139  1.00  0.00     0.103 C 
HETATM    5  O13         0      52.832 104.252 -25.934  1.00  0.00    -0.307 OA
HETATM    6  C14         0      53.516 105.366 -26.072  1.00  0.00     0.107 C 
HETATM    7  C15         0      53.339 106.202 -27.165  1.00  0.00     0.049 C 
HETATM    8  C16         0      54.230 107.232 -27.438  1.00  0.00     0.093 C 
HETATM    9  C18         0      54.939 107.701 -26.339  1.00  0.00     0.048 C 
HETATM   10  C19         0      55.096 106.909 -25.210  1.00  0.00     0.096 C 
HETATM   11  C21         0      54.535 105.662 -25.172  1.00  0.00     0.084 C 
ENDROOT
BRANCH  10  12
HETATM   12  O20         0      56.134 107.184 -24.325  1.00  0.00    -0.359 OA
HETATM   13  H20         0      56.792 106.513 -24.187  1.00  0.00     0.218 HD
ENDBRANCH  10  12
BRANCH   4  14
HETATM   14  C5          0      52.867 101.898 -25.475  1.00  0.00     0.025 C 
HETATM   15  C6          0      52.051 101.118 -24.668  1.00  0.00     0.004 C 
HETATM   16  C7          0      51.138 100.277 -25.295  1.00  0.00     0.026 C 
HETATM   17  C8          0      51.127 100.114 -26.676  1.00  0.00     0.112 C 
HETATM   18  C10         0      52.329 100.410 -27.305  1.00  0.00     0.112 C 
HETATM   19  C12         0      53.185 101.320 -26.697  1.00  0.00     0.028 C 
BRANCH  17  20
HETATM   20  O9          0      49.942  99.882 -27.353  1.00  0.00    -0.357 OA
HETATM   21  H9          0      49.871  99.318 -28.114  1.00  0.00     0.218 HD
ENDBRANCH  17  20
BRANCH  18  22
HETATM   22  O11         0      52.431 100.086 -28.651  1.00  0.00    -0.357 OA
HETATM   23  H11         0      53.273  99.765 -28.953  1.00  0.00     0.218 HD
ENDBRANCH  18  22
ENDBRANCH   4  14
BRANCH   8  24
HETATM   24  O17         0      54.623 107.529 -28.748  1.00  0.00    -0.359 OA
HETATM   25  H17         0      55.536 107.527 -29.008  1.00  0.00     0.218 HD
ENDBRANCH   8  24
TORSDOF 5
ENDMDL
