MODEL 1
REMARK VINA RESULT:      -6.5      0.000      0.000
REMARK  5 active torsions:
REMARK  status: ('A' for Active; 'I' for Inactive)
REMARK    1  A    between atoms: C4_4  and  C5_5 
REMARK    2  A    between atoms: C8_8  and  O9_9 
REMARK    3  A    between atoms: C10_11  and  O11_12 
REMARK    4  A    between atoms: C16_18  and  O17_19 
REMARK    5  A    between atoms: C19_22  and  O20_23 
ROOT
HETATM    1  O1          0      61.750  22.949   0.125  1.00  0.00    -0.286 OA
HETATM    2  C2          0      61.457  23.141  -1.087  1.00  0.00     0.201 C 
HETATM    3  C3          0      60.354  22.564  -1.693  1.00  0.00     0.067 C 
HETATM    4  C4          0      60.112  22.709  -3.054  1.00  0.00     0.103 C 
HETATM    5  O13         0      60.950  23.433  -3.775  1.00  0.00    -0.307 OA
HETATM    6  C14         0      62.033  23.971  -3.257  1.00  0.00     0.107 C 
HETATM    7  C15         0      63.098  24.376  -4.048  1.00  0.00     0.049 C 
HETATM    8  C16         0      64.328  24.702  -3.490  1.00  0.00     0.093 C 
HETATM    9  C18         0      64.281  25.111  -2.162  1.00  0.00     0.048 C 
HETATM   10  C19         0      63.206  24.763  -1.355  1.00  0.00     0.096 C 
HETATM   11  C21         0      62.177  24.026  -1.875  1.00  0.00     0.084 C 
ENDROOT
BRANCH  10  12
HETATM   12  O20         0      63.359  24.787   0.028  1.00  0.00    -0.359 OA
HETATM   13  H20         0      63.908  25.464   0.404  1.00  0.00     0.218 HD
ENDBRANCH  10  12
BRANCH   4  14
HETATM   14  C5          0      59.349  21.649  -3.716  1.00  0.00     0.025 C 
HETATM   15  C6          0      58.594  20.718  -3.017  1.00  0.00     0.004 C 
HETATM   16  C7          0      57.377  20.331  -3.568  1.00  0.00     0.026 C 
HETATM   17  C8          0      56.983  20.750  -4.834  1.00  0.00     0.112 C 
HETATM   18  C10         0      58.026  21.123  -5.672  1.00  0.00     0.112 C 
HETATM   19  C12         0      59.202  21.587  -5.095  1.00  0.00     0.028 C 
BRANCH  17  20
HETATM   20  O9          0      55.648  20.968  -5.125  1.00  0.00    -0.357 OA
HETATM   21  H9          0      55.096  21.577  -4.648  1.00  0.00     0.218 HD
ENDBRANCH  17  20
BRANCH  18  22
HETATM   22  O11         0      57.708  21.368  -7.000  1.00  0.00    -0.357 OA
HETATM   23  H11         0      56.974  21.948  -7.167  1.00  0.00     0.218 HD
ENDBRANCH  18  22
ENDBRANCH   4  14
BRANCH   8  24
HETATM   24  O17         0      65.529  24.326  -4.101  1.00  0.00    -0.359 OA
HETATM   25  H17         0      65.735  24.577  -4.993  1.00  0.00     0.218 HD
ENDBRANCH   8  24
TORSDOF 5
ENDMDL
MODEL 2
REMARK VINA RESULT:      -6.5      2.214      3.681
REMARK  5 active torsions:
REMARK  status: ('A' for Active; 'I' for Inactive)
REMARK    1  A    between atoms: C4_4  and  C5_5 
REMARK    2  A    between atoms: C8_8  and  O9_9 
REMARK    3  A    between atoms: C10_11  and  O11_12 
REMARK    4  A    between atoms: C16_18  and  O17_19 
REMARK    5  A    between atoms: C19_22  and  O20_23 
ROOT
HETATM    1  O1          0      58.207  20.269  -1.570  1.00  0.00    -0.286 OA
HETATM    2  C2          0      58.540  21.171  -2.387  1.00  0.00     0.201 C 
HETATM    3  C3          0      57.871  21.387  -3.580  1.00  0.00     0.067 C 
HETATM    4  C4          0      58.321  22.318  -4.509  1.00  0.00     0.103 C 
HETATM    5  O13         0      59.403  23.023  -4.229  1.00  0.00    -0.307 OA
HETATM    6  C14         0      60.097  22.831  -3.128  1.00  0.00     0.107 C 
HETATM    7  C15         0      61.412  23.256  -3.010  1.00  0.00     0.049 C 
HETATM    8  C16         0      62.215  22.833  -1.958  1.00  0.00     0.093 C 
HETATM    9  C18         0      61.528  22.441  -0.816  1.00  0.00     0.048 C 
HETATM   10  C19         0      60.197  22.053  -0.891  1.00  0.00     0.096 C 
HETATM   11  C21         0      59.551  22.074  -2.097  1.00  0.00     0.084 C 
ENDROOT
BRANCH  10  12
HETATM   12  O20         0      59.658  21.269   0.124  1.00  0.00    -0.359 OA
HETATM   13  H20         0      58.844  21.554   0.522  1.00  0.00     0.218 HD
ENDBRANCH  10  12
BRANCH   4  14
HETATM   14  C5          0      57.977  22.084  -5.913  1.00  0.00     0.025 C 
HETATM   15  C6          0      56.926  22.730  -6.547  1.00  0.00     0.004 C 
HETATM   16  C7          0      57.112  23.116  -7.871  1.00  0.00     0.026 C 
HETATM   17  C8          0      58.250  22.753  -8.584  1.00  0.00     0.112 C 
HETATM   18  C10         0      58.901  21.626  -8.101  1.00  0.00     0.112 C 
HETATM   19  C12         0      58.767  21.311  -6.754  1.00  0.00     0.028 C 
BRANCH  17  20
HETATM   20  O9          0      58.777  23.590  -9.551  1.00  0.00    -0.357 OA
HETATM   21  H9          0      59.578  24.090  -9.437  1.00  0.00     0.218 HD
ENDBRANCH  17  20
BRANCH  18  22
HETATM   22  O11         0      59.927  21.111  -8.881  1.00  0.00    -0.357 OA
HETATM   23  H11         0      60.715  21.638  -8.957  1.00  0.00     0.218 HD
ENDBRANCH  18  22
ENDBRANCH   4  14
BRANCH   8  24
HETATM   24  O17         0      63.562  22.509  -2.154  1.00  0.00    -0.359 OA
HETATM   25  H17         0      63.832  21.861  -2.795  1.00  0.00     0.218 HD
ENDBRANCH   8  24
TORSDOF 5
ENDMDL
MODEL 3
REMARK VINA RESULT:      -6.5      9.618     10.967
REMARK  5 active torsions:
REMARK  status: ('A' for Active; 'I' for Inactive)
REMARK    1  A    between atoms: C4_4  and  C5_5 
REMARK    2  A    between atoms: C8_8  and  O9_9 
REMARK    3  A    between atoms: C10_11  and  O11_12 
REMARK    4  A    between atoms: C16_18  and  O17_19 
REMARK    5  A    between atoms: C19_22  and  O20_23 
ROOT
HETATM    1  O1          0      59.316  29.403  -5.511  1.00  0.00    -0.286 OA
HETATM    2  C2          0      58.472  29.549  -6.437  1.00  0.00     0.201 C 
HETATM    3  C3          0      58.138  30.786  -6.960  1.00  0.00     0.067 C 
HETATM    4  C4          0      57.131  30.929  -7.908  1.00  0.00     0.103 C 
HETATM    5  O13         0      56.497  29.849  -8.328  1.00  0.00    -0.307 OA
HETATM    6  C14         0      56.749  28.655  -7.837  1.00  0.00     0.107 C 
HETATM    7  C15         0      55.847  27.608  -7.963  1.00  0.00     0.049 C 
HETATM    8  C16         0      55.997  26.435  -7.233  1.00  0.00     0.093 C 
HETATM    9  C18         0      57.296  26.161  -6.823  1.00  0.00     0.048 C 
HETATM   10  C19         0      58.236  27.178  -6.730  1.00  0.00     0.096 C 
HETATM   11  C21         0      57.886  28.458  -7.062  1.00  0.00     0.084 C 
ENDROOT
BRANCH  10  12
HETATM   12  O20         0      59.359  26.995  -5.930  1.00  0.00    -0.359 OA
HETATM   13  H20         0      60.055  27.639  -5.985  1.00  0.00     0.218 HD
ENDBRANCH  10  12
BRANCH   4  14
HETATM   14  C5          0      56.439  32.218  -7.961  1.00  0.00     0.025 C 
HETATM   15  C6          0      57.100  33.432  -7.844  1.00  0.00     0.004 C 
HETATM   16  C7          0      56.661  34.485  -8.640  1.00  0.00     0.026 C 
HETATM   17  C8          0      55.519  34.377  -9.427  1.00  0.00     0.112 C 
HETATM   18  C10         0      54.613  33.414  -9.004  1.00  0.00     0.112 C 
HETATM   19  C12         0      55.092  32.327  -8.283  1.00  0.00     0.028 C 
BRANCH  17  20
HETATM   20  O9          0      55.428  35.039 -10.638  1.00  0.00    -0.357 OA
HETATM   21  H9          0      56.162  35.159 -11.231  1.00  0.00     0.218 HD
ENDBRANCH  17  20
BRANCH  18  22
HETATM   22  O11         0      53.378  33.393  -9.637  1.00  0.00    -0.357 OA
HETATM   23  H11         0      52.836  34.168  -9.547  1.00  0.00     0.218 HD
ENDBRANCH  18  22
ENDBRANCH   4  14
BRANCH   8  24
HETATM   24  O17         0      54.894  25.779  -6.674  1.00  0.00    -0.359 OA
HETATM   25  H17         0      54.558  24.969  -7.040  1.00  0.00     0.218 HD
ENDBRANCH   8  24
TORSDOF 5
ENDMDL
MODEL 4
REMARK VINA RESULT:      -6.4      1.949      6.547
REMARK  5 active torsions:
REMARK  status: ('A' for Active; 'I' for Inactive)
REMARK    1  A    between atoms: C4_4  and  C5_5 
REMARK    2  A    between atoms: C8_8  and  O9_9 
REMARK    3  A    between atoms: C10_11  and  O11_12 
REMARK    4  A    between atoms: C16_18  and  O17_19 
REMARK    5  A    between atoms: C19_22  and  O20_23 
ROOT
HETATM    1  O1          0      58.099  23.060  -4.647  1.00  0.00    -0.286 OA
HETATM    2  C2          0      59.227  22.531  -4.450  1.00  0.00     0.201 C 
HETATM    3  C3          0      60.069  22.922  -3.422  1.00  0.00     0.067 C 
HETATM    4  C4          0      61.349  22.395  -3.289  1.00  0.00     0.103 C 
HETATM    5  O13         0      61.754  21.485  -4.157  1.00  0.00    -0.307 OA
HETATM    6  C14         0      61.009  21.106  -5.172  1.00  0.00     0.107 C 
HETATM    7  C15         0      61.553  20.480  -6.284  1.00  0.00     0.049 C 
HETATM    8  C16         0      60.817  20.313  -7.451  1.00  0.00     0.093 C 
HETATM    9  C18         0      59.438  20.303  -7.278  1.00  0.00     0.048 C 
HETATM   10  C19         0      58.863  20.880  -6.154  1.00  0.00     0.096 C 
HETATM   11  C21         0      59.662  21.449  -5.200  1.00  0.00     0.084 C 
ENDROOT
BRANCH  10  12
HETATM   12  O20         0      57.523  21.253  -6.190  1.00  0.00    -0.359 OA
HETATM   13  H20         0      56.955  20.810  -6.808  1.00  0.00     0.218 HD
ENDBRANCH  10  12
BRANCH   4  14
HETATM   14  C5          0      62.350  23.229  -2.622  1.00  0.00     0.025 C 
HETATM   15  C6          0      63.512  23.656  -3.250  1.00  0.00     0.004 C 
HETATM   16  C7          0      63.956  24.946  -2.976  1.00  0.00     0.026 C 
HETATM   17  C8          0      63.345  25.738  -2.010  1.00  0.00     0.112 C 
HETATM   18  C10         0      62.650  25.032  -1.037  1.00  0.00     0.112 C 
HETATM   19  C12         0      62.143  23.781  -1.365  1.00  0.00     0.028 C 
BRANCH  17  20
HETATM   20  O9          0      63.278  27.112  -2.159  1.00  0.00    -0.357 OA
HETATM   21  H9          0      62.655  27.551  -2.727  1.00  0.00     0.218 HD
ENDBRANCH  17  20
BRANCH  18  22
HETATM   22  O11         0      62.183  25.757   0.051  1.00  0.00    -0.357 OA
HETATM   23  H11         0      62.807  25.944   0.742  1.00  0.00     0.218 HD
ENDBRANCH  18  22
ENDBRANCH   4  14
BRANCH   8  24
HETATM   24  O17         0      61.400  20.485  -8.711  1.00  0.00    -0.359 OA
HETATM   25  H17         0      61.102  21.159  -9.311  1.00  0.00     0.218 HD
ENDBRANCH   8  24
TORSDOF 5
ENDMDL
MODEL 5
REMARK VINA RESULT:      -6.3      1.333      2.727
REMARK  5 active torsions:
REMARK  status: ('A' for Active; 'I' for Inactive)
REMARK    1  A    between atoms: C4_4  and  C5_5 
REMARK    2  A    between atoms: C8_8  and  O9_9 
REMARK    3  A    between atoms: C10_11  and  O11_12 
REMARK    4  A    between atoms: C16_18  and  O17_19 
REMARK    5  A    between atoms: C19_22  and  O20_23 
ROOT
HETATM    1  O1          0      63.410  24.138  -5.399  1.00  0.00    -0.286 OA
HETATM    2  C2          0      62.732  23.431  -4.603  1.00  0.00     0.201 C 
HETATM    3  C3          0      61.820  22.483  -5.033  1.00  0.00     0.067 C 
HETATM    4  C4          0      61.012  21.791  -4.137  1.00  0.00     0.103 C 
HETATM    5  O13         0      61.140  22.038  -2.845  1.00  0.00    -0.307 OA
HETATM    6  C14         0      61.964  22.955  -2.387  1.00  0.00     0.107 C 
HETATM    7  C15         0      61.823  23.496  -1.117  1.00  0.00     0.049 C 
HETATM    8  C16         0      62.526  24.631  -0.734  1.00  0.00     0.093 C 
HETATM    9  C18         0      63.705  24.857  -1.436  1.00  0.00     0.048 C 
HETATM   10  C19         0      63.898  24.293  -2.689  1.00  0.00     0.096 C 
HETATM   11  C21         0      62.928  23.495  -3.232  1.00  0.00     0.084 C 
ENDROOT
BRANCH  10  12
HETATM   12  O20         0      64.840  24.851  -3.548  1.00  0.00    -0.359 OA
HETATM   13  H20         0      64.826  25.793  -3.672  1.00  0.00     0.218 HD
ENDBRANCH  10  12
BRANCH   4  14
HETATM   14  C5          0      59.727  21.300  -4.637  1.00  0.00     0.025 C 
HETATM   15  C6          0      58.640  21.059  -3.808  1.00  0.00     0.004 C 
HETATM   16  C7          0      57.377  21.386  -4.290  1.00  0.00     0.026 C 
HETATM   17  C8          0      57.184  21.812  -5.599  1.00  0.00     0.112 C 
HETATM   18  C10         0      58.175  21.420  -6.489  1.00  0.00     0.112 C 
HETATM   19  C12         0      59.451  21.182  -5.993  1.00  0.00     0.028 C 
BRANCH  17  20
HETATM   20  O9          0      56.192  22.727  -5.908  1.00  0.00    -0.357 OA
HETATM   21  H9          0      56.018  23.509  -5.398  1.00  0.00     0.218 HD
ENDBRANCH  17  20
BRANCH  18  22
HETATM   22  O11         0      57.939  21.655  -7.836  1.00  0.00    -0.357 OA
HETATM   23  H11         0      58.691  21.626  -8.416  1.00  0.00     0.218 HD
ENDBRANCH  18  22
ENDBRANCH   4  14
BRANCH   8  24
HETATM   24  O17         0      61.930  25.631   0.043  1.00  0.00    -0.359 OA
HETATM   25  H17         0      61.929  26.541  -0.230  1.00  0.00     0.218 HD
ENDBRANCH   8  24
TORSDOF 5
ENDMDL
MODEL 6
REMARK VINA RESULT:      -6.3     10.877     12.174
REMARK  5 active torsions:
REMARK  status: ('A' for Active; 'I' for Inactive)
REMARK    1  A    between atoms: C4_4  and  C5_5 
REMARK    2  A    between atoms: C8_8  and  O9_9 
REMARK    3  A    between atoms: C10_11  and  O11_12 
REMARK    4  A    between atoms: C16_18  and  O17_19 
REMARK    5  A    between atoms: C19_22  and  O20_23 
ROOT
HETATM    1  O1          0      55.241  28.742  -9.283  1.00  0.00    -0.286 OA
HETATM    2  C2          0      55.803  29.700  -8.686  1.00  0.00     0.201 C 
HETATM    3  C3          0      55.538  31.027  -8.979  1.00  0.00     0.067 C 
HETATM    4  C4          0      56.246  32.061  -8.378  1.00  0.00     0.103 C 
HETATM    5  O13         0      57.179  31.761  -7.492  1.00  0.00    -0.307 OA
HETATM    6  C14         0      57.496  30.518  -7.205  1.00  0.00     0.107 C 
HETATM    7  C15         0      58.704  30.191  -6.606  1.00  0.00     0.049 C 
HETATM    8  C16         0      59.144  28.874  -6.537  1.00  0.00     0.093 C 
HETATM    9  C18         0      58.138  27.917  -6.592  1.00  0.00     0.048 C 
HETATM   10  C19         0      56.901  28.224  -7.143  1.00  0.00     0.096 C 
HETATM   11  C21         0      56.664  29.484  -7.620  1.00  0.00     0.084 C 
ENDROOT
BRANCH  10  12
HETATM   12  O20         0      56.080  27.192  -7.588  1.00  0.00    -0.359 OA
HETATM   13  H20         0      56.463  26.329  -7.686  1.00  0.00     0.218 HD
ENDBRANCH  10  12
BRANCH   4  14
HETATM   14  C5          0      56.360  33.316  -9.124  1.00  0.00     0.025 C 
HETATM   15  C6          0      55.519  33.643 -10.178  1.00  0.00     0.004 C 
HETATM   16  C7          0      55.115  34.969 -10.292  1.00  0.00     0.026 C 
HETATM   17  C8          0      55.633  35.964  -9.469  1.00  0.00     0.112 C 
HETATM   18  C10         0      56.873  35.672  -8.917  1.00  0.00     0.112 C 
HETATM   19  C12         0      57.217  34.338  -8.736  1.00  0.00     0.028 C 
BRANCH  17  20
HETATM   20  O9          0      54.856  37.042  -9.086  1.00  0.00    -0.357 OA
HETATM   21  H9          0      54.775  37.341  -8.187  1.00  0.00     0.218 HD
ENDBRANCH  17  20
BRANCH  18  22
HETATM   22  O11         0      57.519  36.699  -8.245  1.00  0.00    -0.357 OA
HETATM   23  H11         0      58.212  37.151  -8.712  1.00  0.00     0.218 HD
ENDBRANCH  18  22
ENDBRANCH   4  14
BRANCH   8  24
HETATM   24  O17         0      60.488  28.543  -6.740  1.00  0.00    -0.359 OA
HETATM   25  H17         0      61.141  29.204  -6.936  1.00  0.00     0.218 HD
ENDBRANCH   8  24
TORSDOF 5
ENDMDL
MODEL 7
REMARK VINA RESULT:      -6.2      4.724      6.634
REMARK  5 active torsions:
REMARK  status: ('A' for Active; 'I' for Inactive)
REMARK    1  A    between atoms: C4_4  and  C5_5 
REMARK    2  A    between atoms: C8_8  and  O9_9 
REMARK    3  A    between atoms: C10_11  and  O11_12 
REMARK    4  A    between atoms: C16_18  and  O17_19 
REMARK    5  A    between atoms: C19_22  and  O20_23 
ROOT
HETATM    1  O1          0      56.261  25.446  -7.243  1.00  0.00    -0.286 OA
HETATM    2  C2          0      57.471  25.660  -6.955  1.00  0.00     0.201 C 
HETATM    3  C3          0      58.338  24.654  -6.563  1.00  0.00     0.067 C 
HETATM    4  C4          0      59.637  24.931  -6.152  1.00  0.00     0.103 C 
HETATM    5  O13         0      60.051  26.185  -6.159  1.00  0.00    -0.307 OA
HETATM    6  C14         0      59.257  27.182  -6.486  1.00  0.00     0.107 C 
HETATM    7  C15         0      59.538  28.490  -6.121  1.00  0.00     0.049 C 
HETATM    8  C16         0      58.585  29.494  -6.242  1.00  0.00     0.093 C 
HETATM    9  C18         0      57.600  29.256  -7.193  1.00  0.00     0.048 C 
HETATM   10  C19         0      57.325  27.963  -7.615  1.00  0.00     0.096 C 
HETATM   11  C21         0      58.040  26.915  -7.104  1.00  0.00     0.084 C 
ENDROOT
BRANCH  10  12
HETATM   12  O20         0      56.095  27.687  -8.205  1.00  0.00    -0.359 OA
HETATM   13  H20         0      55.775  28.287  -8.869  1.00  0.00     0.218 HD
ENDBRANCH  10  12
BRANCH   4  14
HETATM   14  C5          0      60.260  23.988  -5.222  1.00  0.00     0.025 C 
HETATM   15  C6          0      61.392  24.299  -4.482  1.00  0.00     0.004 C 
HETATM   16  C7          0      61.458  23.824  -3.176  1.00  0.00     0.026 C 
HETATM   17  C8          0      60.497  22.958  -2.665  1.00  0.00     0.112 C 
HETATM   18  C10         0      59.804  22.230  -3.623  1.00  0.00     0.112 C 
HETATM   19  C12         0      59.681  22.768  -4.898  1.00  0.00     0.028 C 
BRANCH  17  20
HETATM   20  O9          0      60.142  23.003  -1.328  1.00  0.00    -0.357 OA
HETATM   21  H9          0      60.733  23.267  -0.633  1.00  0.00     0.218 HD
ENDBRANCH  17  20
BRANCH  18  22
HETATM   22  O11         0      58.972  21.219  -3.164  1.00  0.00    -0.357 OA
HETATM   23  H11         0      59.370  20.369  -3.013  1.00  0.00     0.218 HD
ENDBRANCH  18  22
ENDBRANCH   4  14
BRANCH   8  24
HETATM   24  O17         0      58.439  30.483  -5.263  1.00  0.00    -0.359 OA
HETATM   25  H17         0      59.125  30.665  -4.631  1.00  0.00     0.218 HD
ENDBRANCH   8  24
TORSDOF 5
ENDMDL
MODEL 8
REMARK VINA RESULT:      -6.2     10.979     11.951
REMARK  5 active torsions:
REMARK  status: ('A' for Active; 'I' for Inactive)
REMARK    1  A    between atoms: C4_4  and  C5_5 
REMARK    2  A    between atoms: C8_8  and  O9_9 
REMARK    3  A    between atoms: C10_11  and  O11_12 
REMARK    4  A    between atoms: C16_18  and  O17_19 
REMARK    5  A    between atoms: C19_22  and  O20_23 
ROOT
HETATM    1  O1          0      54.225  32.967  -7.963  1.00  0.00    -0.286 OA
HETATM    2  C2          0      55.401  32.770  -8.374  1.00  0.00     0.201 C 
HETATM    3  C3          0      56.061  31.564  -8.211  1.00  0.00     0.067 C 
HETATM    4  C4          0      57.392  31.406  -8.581  1.00  0.00     0.103 C 
HETATM    5  O13         0      58.028  32.432  -9.119  1.00  0.00    -0.307 OA
HETATM    6  C14         0      57.460  33.609  -9.261  1.00  0.00     0.107 C 
HETATM    7  C15         0      58.207  34.764  -9.439  1.00  0.00     0.049 C 
HETATM    8  C16         0      57.627  36.023  -9.334  1.00  0.00     0.093 C 
HETATM    9  C18         0      56.259  36.061  -9.578  1.00  0.00     0.048 C 
HETATM   10  C19         0      55.488  34.912  -9.454  1.00  0.00     0.096 C 
HETATM   11  C21         0      56.083  33.730  -9.107  1.00  0.00     0.084 C 
ENDROOT
BRANCH  10  12
HETATM   12  O20         0      54.115  35.032  -9.268  1.00  0.00    -0.359 OA
HETATM   13  H20         0      53.809  35.544  -8.529  1.00  0.00     0.218 HD
ENDBRANCH  10  12
BRANCH   4  14
HETATM   14  C5          0      58.169  30.390  -7.868  1.00  0.00     0.025 C 
HETATM   15  C6          0      58.196  30.299  -6.484  1.00  0.00     0.004 C 
HETATM   16  C7          0      58.210  29.026  -5.922  1.00  0.00     0.026 C 
HETATM   17  C8          0      58.329  27.884  -6.706  1.00  0.00     0.112 C 
HETATM   18  C10         0      58.919  28.091  -7.946  1.00  0.00     0.112 C 
HETATM   19  C12         0      58.816  29.351  -8.524  1.00  0.00     0.028 C 
BRANCH  17  20
HETATM   20  O9          0      57.709  26.703  -6.338  1.00  0.00    -0.357 OA
HETATM   21  H9          0      57.962  26.188  -5.581  1.00  0.00     0.218 HD
ENDBRANCH  17  20
BRANCH  18  22
HETATM   22  O11         0      59.233  26.962  -8.689  1.00  0.00    -0.357 OA
HETATM   23  H11         0      58.791  26.860  -9.524  1.00  0.00     0.218 HD
ENDBRANCH  18  22
ENDBRANCH   4  14
BRANCH   8  24
HETATM   24  O17         0      58.292  37.083  -8.708  1.00  0.00    -0.359 OA
HETATM   25  H17         0      58.694  37.784  -9.208  1.00  0.00     0.218 HD
ENDBRANCH   8  24
TORSDOF 5
ENDMDL
MODEL 9
REMARK VINA RESULT:      -6.1     11.928     13.040
REMARK  5 active torsions:
REMARK  status: ('A' for Active; 'I' for Inactive)
REMARK    1  A    between atoms: C4_4  and  C5_5 
REMARK    2  A    between atoms: C8_8  and  O9_9 
REMARK    3  A    between atoms: C10_11  and  O11_12 
REMARK    4  A    between atoms: C16_18  and  O17_19 
REMARK    5  A    between atoms: C19_22  and  O20_23 
ROOT
HETATM    1  O1          0      57.367  35.588  -8.498  1.00  0.00    -0.286 OA
HETATM    2  C2          0      56.623  34.569  -8.529  1.00  0.00     0.201 C 
HETATM    3  C3          0      56.975  33.364  -7.946  1.00  0.00     0.067 C 
HETATM    4  C4          0      56.184  32.230  -8.083  1.00  0.00     0.103 C 
HETATM    5  O13         0      55.060  32.319  -8.772  1.00  0.00    -0.307 OA
HETATM    6  C14         0      54.698  33.429  -9.377  1.00  0.00     0.107 C 
HETATM    7  C15         0      53.765  33.430 -10.405  1.00  0.00     0.049 C 
HETATM    8  C16         0      53.575  34.550 -11.206  1.00  0.00     0.093 C 
HETATM    9  C18         0      53.935  35.758 -10.620  1.00  0.00     0.048 C 
HETATM   10  C19         0      54.830  35.789  -9.560  1.00  0.00     0.096 C 
HETATM   11  C21         0      55.349  34.619  -9.075  1.00  0.00     0.084 C 
ENDROOT
BRANCH  10  12
HETATM   12  O20         0      55.507  36.971  -9.276  1.00  0.00    -0.359 OA
HETATM   13  H20         0      56.417  36.910  -9.011  1.00  0.00     0.218 HD
ENDBRANCH  10  12
BRANCH   4  14
HETATM   14  C5          0      56.854  30.931  -7.993  1.00  0.00     0.025 C 
HETATM   15  C6          0      58.057  30.750  -7.325  1.00  0.00     0.004 C 
HETATM   16  C7          0      58.222  29.574  -6.601  1.00  0.00     0.026 C 
HETATM   17  C8          0      57.280  28.551  -6.647  1.00  0.00     0.112 C 
HETATM   18  C10         0      56.480  28.550  -7.782  1.00  0.00     0.112 C 
HETATM   19  C12         0      56.262  29.756  -8.438  1.00  0.00     0.028 C 
BRANCH  17  20
HETATM   20  O9          0      57.046  27.753  -5.541  1.00  0.00    -0.357 OA
HETATM   21  H9          0      57.713  27.219  -5.125  1.00  0.00     0.218 HD
ENDBRANCH  17  20
BRANCH  18  22
HETATM   22  O11         0      55.656  27.449  -7.969  1.00  0.00    -0.357 OA
HETATM   23  H11         0      55.318  27.027  -7.187  1.00  0.00     0.218 HD
ENDBRANCH  18  22
ENDBRANCH   4  14
BRANCH   8  24
HETATM   24  O17         0      53.366  34.433 -12.584  1.00  0.00    -0.359 OA
HETATM   25  H17         0      53.151  33.600 -12.988  1.00  0.00     0.218 HD
ENDBRANCH   8  24
TORSDOF 5
ENDMDL
