MODEL 1
REMARK VINA RESULT:      -6.6      0.000      0.000
REMARK  5 active torsions:
REMARK  status: ('A' for Active; 'I' for Inactive)
REMARK    1  A    between atoms: C4_4  and  C5_5 
REMARK    2  A    between atoms: C8_8  and  O9_9 
REMARK    3  A    between atoms: C10_11  and  O11_12 
REMARK    4  A    between atoms: C16_18  and  O17_19 
REMARK    5  A    between atoms: C19_22  and  O20_23 
ROOT
HETATM    1  O1          0      55.770  93.363 -20.659  1.00  0.00    -0.286 OA
HETATM    2  C2          0      54.861  92.730 -21.262  1.00  0.00     0.201 C 
HETATM    3  C3          0      54.954  91.381 -21.558  1.00  0.00     0.067 C 
HETATM    4  C4          0      53.984  90.732 -22.313  1.00  0.00     0.103 C 
HETATM    5  O13         0      52.941  91.424 -22.737  1.00  0.00    -0.307 OA
HETATM    6  C14         0      52.822  92.715 -22.516  1.00  0.00     0.107 C 
HETATM    7  C15         0      51.974  93.510 -23.272  1.00  0.00     0.049 C 
HETATM    8  C16         0      52.039  94.897 -23.210  1.00  0.00     0.093 C 
HETATM    9  C18         0      52.569  95.408 -22.031  1.00  0.00     0.048 C 
HETATM   10  C19         0      53.384  94.623 -21.227  1.00  0.00     0.096 C 
HETATM   11  C21         0      53.655  93.332 -21.589  1.00  0.00     0.084 C 
ENDROOT
BRANCH  10  12
HETATM   12  O20         0      54.241  95.240 -20.320  1.00  0.00    -0.359 OA
HETATM   13  H20         0      54.827  94.689 -19.816  1.00  0.00     0.218 HD
ENDBRANCH  10  12
BRANCH   4  14
HETATM   14  C5          0      54.405  89.554 -23.074  1.00  0.00     0.025 C 
HETATM   15  C6          0      55.705  89.373 -23.521  1.00  0.00     0.004 C 
HETATM   16  C7          0      56.229  88.085 -23.477  1.00  0.00     0.026 C 
HETATM   17  C8          0      55.446  86.991 -23.126  1.00  0.00     0.112 C 
HETATM   18  C10         0      54.082  87.168 -23.319  1.00  0.00     0.112 C 
HETATM   19  C12         0      53.572  88.460 -23.274  1.00  0.00     0.028 C 
BRANCH  17  20
HETATM   20  O9          0      55.992  85.916 -22.447  1.00  0.00    -0.357 OA
HETATM   21  H9          0      56.925  85.738 -22.403  1.00  0.00     0.218 HD
ENDBRANCH  17  20
BRANCH  18  22
HETATM   22  O11         0      53.275  86.050 -23.165  1.00  0.00    -0.357 OA
HETATM   23  H11         0      52.490  86.010 -23.700  1.00  0.00     0.218 HD
ENDBRANCH  18  22
ENDBRANCH   4  14
BRANCH   8  24
HETATM   24  O17         0      51.903  95.686 -24.358  1.00  0.00    -0.359 OA
HETATM   25  H17         0      52.498  96.403 -24.544  1.00  0.00     0.218 HD
ENDBRANCH   8  24
TORSDOF 5
ENDMDL
MODEL 2
REMARK VINA RESULT:      -6.6      1.934      6.983
REMARK  5 active torsions:
REMARK  status: ('A' for Active; 'I' for Inactive)
REMARK    1  A    between atoms: C4_4  and  C5_5 
REMARK    2  A    between atoms: C8_8  and  O9_9 
REMARK    3  A    between atoms: C10_11  and  O11_12 
REMARK    4  A    between atoms: C16_18  and  O17_19 
REMARK    5  A    between atoms: C19_22  and  O20_23 
ROOT
HETATM    1  O1          0      50.997  90.465 -24.267  1.00  0.00    -0.286 OA
HETATM    2  C2          0      51.816  90.965 -23.448  1.00  0.00     0.201 C 
HETATM    3  C3          0      51.565  92.137 -22.755  1.00  0.00     0.067 C 
HETATM    4  C4          0      52.526  92.720 -21.938  1.00  0.00     0.103 C 
HETATM    5  O13         0      53.698  92.123 -21.810  1.00  0.00    -0.307 OA
HETATM    6  C14         0      54.001  91.030 -22.474  1.00  0.00     0.107 C 
HETATM    7  C15         0      55.316  90.630 -22.661  1.00  0.00     0.049 C 
HETATM    8  C16         0      55.644  89.629 -23.568  1.00  0.00     0.093 C 
HETATM    9  C18         0      54.621  88.732 -23.847  1.00  0.00     0.048 C 
HETATM   10  C19         0      53.296  89.082 -23.628  1.00  0.00     0.096 C 
HETATM   11  C21         0      52.996  90.315 -23.116  1.00  0.00     0.084 C 
ENDROOT
BRANCH  10  12
HETATM   12  O20         0      52.289  88.390 -24.294  1.00  0.00    -0.359 OA
HETATM   13  H20         0      51.430  88.790 -24.341  1.00  0.00     0.218 HD
ENDBRANCH  10  12
BRANCH   4  14
HETATM   14  C5          0      52.447  94.169 -21.741  1.00  0.00     0.025 C 
HETATM   15  C6          0      53.495  94.915 -21.221  1.00  0.00     0.004 C 
HETATM   16  C7          0      53.719  96.177 -21.763  1.00  0.00     0.026 C 
HETATM   17  C8          0      52.851  96.735 -22.696  1.00  0.00     0.112 C 
HETATM   18  C10         0      51.561  96.221 -22.667  1.00  0.00     0.112 C 
HETATM   19  C12         0      51.376  94.926 -22.199  1.00  0.00     0.028 C 
BRANCH  17  20
HETATM   20  O9          0      53.323  97.571 -23.691  1.00  0.00    -0.357 OA
HETATM   21  H9          0      52.770  98.160 -24.192  1.00  0.00     0.218 HD
ENDBRANCH  17  20
BRANCH  18  22
HETATM   22  O11         0      50.609  96.869 -23.441  1.00  0.00    -0.357 OA
HETATM   23  H11         0      50.142  96.342 -24.078  1.00  0.00     0.218 HD
ENDBRANCH  18  22
ENDBRANCH   4  14
BRANCH   8  24
HETATM   24  O17         0      56.782  89.723 -24.377  1.00  0.00    -0.359 OA
HETATM   25  H17         0      57.625  89.389 -24.094  1.00  0.00     0.218 HD
ENDBRANCH   8  24
TORSDOF 5
ENDMDL
MODEL 3
REMARK VINA RESULT:      -6.3      1.619      6.525
REMARK  5 active torsions:
REMARK  status: ('A' for Active; 'I' for Inactive)
REMARK    1  A    between atoms: C4_4  and  C5_5 
REMARK    2  A    between atoms: C8_8  and  O9_9 
REMARK    3  A    between atoms: C10_11  and  O11_12 
REMARK    4  A    between atoms: C16_18  and  O17_19 
REMARK    5  A    between atoms: C19_22  and  O20_23 
ROOT
HETATM    1  O1          0      57.067  89.367 -20.927  1.00  0.00    -0.286 OA
HETATM    2  C2          0      56.155  89.737 -21.716  1.00  0.00     0.201 C 
HETATM    3  C3          0      55.702  91.044 -21.780  1.00  0.00     0.067 C 
HETATM    4  C4          0      54.626  91.404 -22.583  1.00  0.00     0.103 C 
HETATM    5  O13         0      54.042  90.473 -23.317  1.00  0.00    -0.307 OA
HETATM    6  C14         0      54.408  89.211 -23.266  1.00  0.00     0.107 C 
HETATM    7  C15         0      53.575  88.190 -23.701  1.00  0.00     0.049 C 
HETATM    8  C16         0      53.855  86.859 -23.414  1.00  0.00     0.093 C 
HETATM    9  C18         0      55.194  86.579 -23.172  1.00  0.00     0.048 C 
HETATM   10  C19         0      56.066  87.587 -22.780  1.00  0.00     0.096 C 
HETATM   11  C21         0      55.606  88.868 -22.648  1.00  0.00     0.084 C 
ENDROOT
BRANCH  10  12
HETATM   12  O20         0      57.250  87.248 -22.133  1.00  0.00    -0.359 OA
HETATM   13  H20         0      57.678  86.438 -22.383  1.00  0.00     0.218 HD
ENDBRANCH  10  12
BRANCH   4  14
HETATM   14  C5          0      53.844  92.571 -22.172  1.00  0.00     0.025 C 
HETATM   15  C6          0      54.380  93.848 -22.099  1.00  0.00     0.004 C 
HETATM   16  C7          0      53.575  94.910 -22.500  1.00  0.00     0.026 C 
HETATM   17  C8          0      52.238  94.725 -22.835  1.00  0.00     0.112 C 
HETATM   18  C10         0      51.653  93.593 -22.283  1.00  0.00     0.112 C 
HETATM   19  C12         0      52.471  92.513 -21.970  1.00  0.00     0.028 C 
BRANCH  17  20
HETATM   20  O9          0      51.636  95.504 -23.807  1.00  0.00    -0.357 OA
HETATM   21  H9          0      51.248  96.354 -23.637  1.00  0.00     0.218 HD
ENDBRANCH  17  20
BRANCH  18  22
HETATM   22  O11         0      50.280  93.461 -22.427  1.00  0.00    -0.357 OA
HETATM   23  H11         0      49.968  93.074 -23.237  1.00  0.00     0.218 HD
ENDBRANCH  18  22
ENDBRANCH   4  14
BRANCH   8  24
HETATM   24  O17         0      52.841  85.960 -23.065  1.00  0.00    -0.359 OA
HETATM   25  H17         0      52.350  85.481 -23.723  1.00  0.00     0.218 HD
ENDBRANCH   8  24
TORSDOF 5
ENDMDL
MODEL 4
REMARK VINA RESULT:      -6.3      1.684      6.902
REMARK  5 active torsions:
REMARK  status: ('A' for Active; 'I' for Inactive)
REMARK    1  A    between atoms: C4_4  and  C5_5 
REMARK    2  A    between atoms: C8_8  and  O9_9 
REMARK    3  A    between atoms: C10_11  and  O11_12 
REMARK    4  A    between atoms: C16_18  and  O17_19 
REMARK    5  A    between atoms: C19_22  and  O20_23 
ROOT
HETATM    1  O1          0      52.263  88.736 -24.374  1.00  0.00    -0.286 OA
HETATM    2  C2          0      52.929  89.362 -23.505  1.00  0.00     0.201 C 
HETATM    3  C3          0      52.607  90.644 -23.093  1.00  0.00     0.067 C 
HETATM    4  C4          0      53.417  91.351 -22.210  1.00  0.00     0.103 C 
HETATM    5  O13         0      54.507  90.768 -21.743  1.00  0.00    -0.307 OA
HETATM    6  C14         0      54.878  89.567 -22.130  1.00  0.00     0.107 C 
HETATM    7  C15         0      56.181  89.118 -21.971  1.00  0.00     0.049 C 
HETATM    8  C16         0      56.629  87.965 -22.604  1.00  0.00     0.093 C 
HETATM    9  C18         0      55.635  87.049 -22.926  1.00  0.00     0.048 C 
HETATM   10  C19         0      54.314  87.455 -23.047  1.00  0.00     0.096 C 
HETATM   11  C21         0      53.983  88.765 -22.830  1.00  0.00     0.084 C 
ENDROOT
BRANCH  10  12
HETATM   12  O20         0      53.424  86.670 -23.774  1.00  0.00    -0.359 OA
HETATM   13  H20         0      52.839  87.106 -24.382  1.00  0.00     0.218 HD
ENDBRANCH  10  12
BRANCH   4  14
HETATM   14  C5          0      53.377  92.812 -22.289  1.00  0.00     0.025 C 
HETATM   15  C6          0      54.377  93.560 -22.895  1.00  0.00     0.004 C 
HETATM   16  C7          0      53.991  94.675 -23.630  1.00  0.00     0.026 C 
HETATM   17  C8          0      52.671  95.113 -23.654  1.00  0.00     0.112 C 
HETATM   18  C10         0      51.909  94.715 -22.563  1.00  0.00     0.112 C 
HETATM   19  C12         0      52.267  93.549 -21.898  1.00  0.00     0.028 C 
BRANCH  17  20
HETATM   20  O9          0      52.142  95.708 -24.785  1.00  0.00    -0.357 OA
HETATM   21  H9          0      51.856  95.224 -25.552  1.00  0.00     0.218 HD
ENDBRANCH  17  20
BRANCH  18  22
HETATM   22  O11         0      50.646  95.277 -22.441  1.00  0.00    -0.357 OA
HETATM   23  H11         0      50.606  96.213 -22.277  1.00  0.00     0.218 HD
ENDBRANCH  18  22
ENDBRANCH   4  14
BRANCH   8  24
HETATM   24  O17         0      57.908  87.892 -23.166  1.00  0.00    -0.359 OA
HETATM   25  H17         0      58.571  88.548 -22.986  1.00  0.00     0.218 HD
ENDBRANCH   8  24
TORSDOF 5
ENDMDL
MODEL 5
REMARK VINA RESULT:      -6.2      1.613      7.034
REMARK  5 active torsions:
REMARK  status: ('A' for Active; 'I' for Inactive)
REMARK    1  A    between atoms: C4_4  and  C5_5 
REMARK    2  A    between atoms: C8_8  and  O9_9 
REMARK    3  A    between atoms: C10_11  and  O11_12 
REMARK    4  A    between atoms: C16_18  and  O17_19 
REMARK    5  A    between atoms: C19_22  and  O20_23 
ROOT
HETATM    1  O1          0      52.266  88.391 -24.406  1.00  0.00    -0.286 OA
HETATM    2  C2          0      52.847  89.093 -23.534  1.00  0.00     0.201 C 
HETATM    3  C3          0      52.401  90.350 -23.163  1.00  0.00     0.067 C 
HETATM    4  C4          0      53.117  91.145 -22.276  1.00  0.00     0.103 C 
HETATM    5  O13         0      54.239  90.671 -21.763  1.00  0.00    -0.307 OA
HETATM    6  C14         0      54.727  89.500 -22.110  1.00  0.00     0.107 C 
HETATM    7  C15         0      56.059  89.172 -21.903  1.00  0.00     0.049 C 
HETATM    8  C16         0      56.626  88.049 -22.494  1.00  0.00     0.093 C 
HETATM    9  C18         0      55.727  87.042 -22.822  1.00  0.00     0.048 C 
HETATM   10  C19         0      54.379  87.326 -22.990  1.00  0.00     0.096 C 
HETATM   11  C21         0      53.928  88.606 -22.816  1.00  0.00     0.084 C 
ENDROOT
BRANCH  10  12
HETATM   12  O20         0      53.585  86.449 -23.723  1.00  0.00    -0.359 OA
HETATM   13  H20         0      53.051  86.809 -24.421  1.00  0.00     0.218 HD
ENDBRANCH  10  12
BRANCH   4  14
HETATM   14  C5          0      52.952  92.595 -22.391  1.00  0.00     0.025 C 
HETATM   15  C6          0      51.711  93.203 -22.512  1.00  0.00     0.004 C 
HETATM   16  C7          0      51.516  94.409 -21.846  1.00  0.00     0.026 C 
HETATM   17  C8          0      52.559  95.057 -21.193  1.00  0.00     0.112 C 
HETATM   18  C10         0      53.826  94.726 -21.652  1.00  0.00     0.112 C 
HETATM   19  C12         0      54.012  93.479 -22.238  1.00  0.00     0.028 C 
BRANCH  17  20
HETATM   20  O9          0      52.326  95.798 -20.047  1.00  0.00    -0.357 OA
HETATM   21  H9          0      51.777  95.502 -19.330  1.00  0.00     0.218 HD
ENDBRANCH  17  20
BRANCH  18  22
HETATM   22  O11         0      54.887  95.479 -21.169  1.00  0.00    -0.357 OA
HETATM   23  H11         0      55.013  95.490 -20.227  1.00  0.00     0.218 HD
ENDBRANCH  18  22
ENDBRANCH   4  14
BRANCH   8  24
HETATM   24  O17         0      57.923  88.078 -23.018  1.00  0.00    -0.359 OA
HETATM   25  H17         0      58.661  87.715 -22.542  1.00  0.00     0.218 HD
ENDBRANCH   8  24
TORSDOF 5
ENDMDL
MODEL 6
REMARK VINA RESULT:      -6.0      1.608      2.890
REMARK  5 active torsions:
REMARK  status: ('A' for Active; 'I' for Inactive)
REMARK    1  A    between atoms: C4_4  and  C5_5 
REMARK    2  A    between atoms: C8_8  and  O9_9 
REMARK    3  A    between atoms: C10_11  and  O11_12 
REMARK    4  A    between atoms: C16_18  and  O17_19 
REMARK    5  A    between atoms: C19_22  and  O20_23 
ROOT
HETATM    1  O1          0      50.265  93.088 -22.125  1.00  0.00    -0.286 OA
HETATM    2  C2          0      51.457  92.797 -22.418  1.00  0.00     0.201 C 
HETATM    3  C3          0      51.875  91.500 -22.662  1.00  0.00     0.067 C 
HETATM    4  C4          0      53.214  91.195 -22.882  1.00  0.00     0.103 C 
HETATM    5  O13         0      54.098  92.177 -22.875  1.00  0.00    -0.307 OA
HETATM    6  C14         0      53.760  93.420 -22.611  1.00  0.00     0.107 C 
HETATM    7  C15         0      54.696  94.363 -22.211  1.00  0.00     0.049 C 
HETATM    8  C16         0      54.306  95.592 -21.692  1.00  0.00     0.093 C 
HETATM    9  C18         0      53.043  96.019 -22.082  1.00  0.00     0.048 C 
HETATM   10  C19         0      52.097  95.108 -22.532  1.00  0.00     0.096 C 
HETATM   11  C21         0      52.417  93.780 -22.608  1.00  0.00     0.084 C 
ENDROOT
BRANCH  10  12
HETATM   12  O20         0      50.750  95.454 -22.500  1.00  0.00    -0.359 OA
HETATM   13  H20         0      50.491  96.274 -22.905  1.00  0.00     0.218 HD
ENDBRANCH  10  12
BRANCH   4  14
HETATM   14  C5          0      53.658  89.844 -22.535  1.00  0.00     0.025 C 
HETATM   15  C6          0      53.375  88.735 -23.319  1.00  0.00     0.004 C 
HETATM   16  C7          0      54.366  87.767 -23.448  1.00  0.00     0.026 C 
HETATM   17  C8          0      55.547  87.830 -22.717  1.00  0.00     0.112 C 
HETATM   18  C10         0      55.466  88.575 -21.548  1.00  0.00     0.112 C 
HETATM   19  C12         0      54.522  89.593 -21.477  1.00  0.00     0.028 C 
BRANCH  17  20
HETATM   20  O9          0      56.735  87.360 -23.247  1.00  0.00    -0.357 OA
HETATM   21  H9          0      56.896  87.263 -24.179  1.00  0.00     0.218 HD
ENDBRANCH  17  20
BRANCH  18  22
HETATM   22  O11         0      56.554  88.516 -20.688  1.00  0.00    -0.357 OA
HETATM   23  H11         0      57.364  88.908 -20.992  1.00  0.00     0.218 HD
ENDBRANCH  18  22
ENDBRANCH   4  14
BRANCH   8  24
HETATM   24  O17         0      54.980  96.173 -20.612  1.00  0.00    -0.359 OA
HETATM   25  H17         0      55.928  96.227 -20.586  1.00  0.00     0.218 HD
ENDBRANCH   8  24
TORSDOF 5
ENDMDL
MODEL 7
REMARK VINA RESULT:      -5.9      1.879      6.804
REMARK  5 active torsions:
REMARK  status: ('A' for Active; 'I' for Inactive)
REMARK    1  A    between atoms: C4_4  and  C5_5 
REMARK    2  A    between atoms: C8_8  and  O9_9 
REMARK    3  A    between atoms: C10_11  and  O11_12 
REMARK    4  A    between atoms: C16_18  and  O17_19 
REMARK    5  A    between atoms: C19_22  and  O20_23 
ROOT
HETATM    1  O1          0      53.480  87.802 -23.232  1.00  0.00    -0.286 OA
HETATM    2  C2          0      53.920  88.966 -23.022  1.00  0.00     0.201 C 
HETATM    3  C3          0      53.094  90.040 -22.737  1.00  0.00     0.067 C 
HETATM    4  C4          0      53.595  91.331 -22.612  1.00  0.00     0.103 C 
HETATM    5  O13         0      54.894  91.524 -22.751  1.00  0.00    -0.307 OA
HETATM    6  C14         0      55.717  90.546 -23.058  1.00  0.00     0.107 C 
HETATM    7  C15         0      56.976  90.789 -23.590  1.00  0.00     0.049 C 
HETATM    8  C16         0      57.734  89.766 -24.146  1.00  0.00     0.093 C 
HETATM    9  C18         0      57.435  88.492 -23.679  1.00  0.00     0.048 C 
HETATM   10  C19         0      56.202  88.225 -23.099  1.00  0.00     0.096 C 
HETATM   11  C21         0      55.280  89.228 -22.971  1.00  0.00     0.084 C 
ENDROOT
BRANCH  10  12
HETATM   12  O20         0      55.748  86.911 -23.039  1.00  0.00    -0.359 OA
HETATM   13  H20         0      56.212  86.305 -22.474  1.00  0.00     0.218 HD
ENDBRANCH  10  12
BRANCH   4  14
HETATM   14  C5          0      52.682  92.436 -22.914  1.00  0.00     0.025 C 
HETATM   15  C6          0      51.350  92.438 -22.525  1.00  0.00     0.004 C 
HETATM   16  C7          0      50.805  93.646 -22.102  1.00  0.00     0.026 C 
HETATM   17  C8          0      51.516  94.838 -22.188  1.00  0.00     0.112 C 
HETATM   18  C10         0      52.531  94.840 -23.136  1.00  0.00     0.112 C 
HETATM   19  C12         0      53.117  93.628 -23.478  1.00  0.00     0.028 C 
BRANCH  17  20
HETATM   20  O9          0      51.342  95.837 -21.247  1.00  0.00    -0.357 OA
HETATM   21  H9          0      51.924  95.975 -20.509  1.00  0.00     0.218 HD
ENDBRANCH  17  20
BRANCH  18  22
HETATM   22  O11         0      53.146  96.057 -23.395  1.00  0.00    -0.357 OA
HETATM   23  H11         0      52.635  96.704 -23.868  1.00  0.00     0.218 HD
ENDBRANCH  18  22
ENDBRANCH   4  14
BRANCH   8  24
HETATM   24  O17         0      58.484  89.965 -25.311  1.00  0.00    -0.359 OA
HETATM   25  H17         0      58.774  90.830 -25.576  1.00  0.00     0.218 HD
ENDBRANCH   8  24
TORSDOF 5
ENDMDL
MODEL 8
REMARK VINA RESULT:      -5.4      3.157      4.304
REMARK  5 active torsions:
REMARK  status: ('A' for Active; 'I' for Inactive)
REMARK    1  A    between atoms: C4_4  and  C5_5 
REMARK    2  A    between atoms: C8_8  and  O9_9 
REMARK    3  A    between atoms: C10_11  and  O11_12 
REMARK    4  A    between atoms: C16_18  and  O17_19 
REMARK    5  A    between atoms: C19_22  and  O20_23 
ROOT
HETATM    1  O1          0      55.441  93.978 -22.136  1.00  0.00    -0.286 OA
HETATM    2  C2          0      55.507  92.733 -22.332  1.00  0.00     0.201 C 
HETATM    3  C3          0      56.701  92.072 -22.564  1.00  0.00     0.067 C 
HETATM    4  C4          0      56.736  90.719 -22.879  1.00  0.00     0.103 C 
HETATM    5  O13         0      55.597  90.051 -22.936  1.00  0.00    -0.307 OA
HETATM    6  C14         0      54.433  90.638 -22.762  1.00  0.00     0.107 C 
HETATM    7  C15         0      53.251  90.062 -23.204  1.00  0.00     0.049 C 
HETATM    8  C16         0      52.067  90.788 -23.249  1.00  0.00     0.093 C 
HETATM    9  C18         0      52.006  91.865 -22.373  1.00  0.00     0.048 C 
HETATM   10  C19         0      53.169  92.436 -21.874  1.00  0.00     0.096 C 
HETATM   11  C21         0      54.385  91.924 -22.235  1.00  0.00     0.084 C 
ENDROOT
BRANCH  10  12
HETATM   12  O20         0      53.130  93.735 -21.376  1.00  0.00    -0.359 OA
HETATM   13  H20         0      53.689  94.385 -21.783  1.00  0.00     0.218 HD
ENDBRANCH  10  12
BRANCH   4  14
HETATM   14  C5          0      57.872  90.244 -23.671  1.00  0.00     0.025 C 
HETATM   15  C6          0      58.020  88.919 -24.055  1.00  0.00     0.004 C 
HETATM   16  C7          0      58.529  88.670 -25.326  1.00  0.00     0.026 C 
HETATM   17  C8          0      59.002  89.696 -26.137  1.00  0.00     0.112 C 
HETATM   18  C10         0      59.395  90.840 -25.455  1.00  0.00     0.112 C 
HETATM   19  C12         0      58.807  91.110 -24.225  1.00  0.00     0.028 C 
BRANCH  17  20
HETATM   20  O9          0      58.875  89.627 -27.513  1.00  0.00    -0.357 OA
HETATM   21  H9          0      58.047  89.709 -27.972  1.00  0.00     0.218 HD
ENDBRANCH  17  20
BRANCH  18  22
HETATM   22  O11         0      60.047  91.818 -26.192  1.00  0.00    -0.357 OA
HETATM   23  H11         0      59.962  91.772 -27.137  1.00  0.00     0.218 HD
ENDBRANCH  18  22
ENDBRANCH   4  14
BRANCH   8  24
HETATM   24  O17         0      51.169  90.654 -24.313  1.00  0.00    -0.359 OA
HETATM   25  H17         0      51.468  90.548 -25.209  1.00  0.00     0.218 HD
ENDBRANCH   8  24
TORSDOF 5
ENDMDL
MODEL 9
REMARK VINA RESULT:      -5.4      2.577      3.524
REMARK  5 active torsions:
REMARK  status: ('A' for Active; 'I' for Inactive)
REMARK    1  A    between atoms: C4_4  and  C5_5 
REMARK    2  A    between atoms: C8_8  and  O9_9 
REMARK    3  A    between atoms: C10_11  and  O11_12 
REMARK    4  A    between atoms: C16_18  and  O17_19 
REMARK    5  A    between atoms: C19_22  and  O20_23 
ROOT
HETATM    1  O1          0      56.328  94.923 -22.779  1.00  0.00    -0.286 OA
HETATM    2  C2          0      55.107  94.708 -23.011  1.00  0.00     0.201 C 
HETATM    3  C3          0      54.416  93.639 -22.467  1.00  0.00     0.067 C 
HETATM    4  C4          0      53.099  93.366 -22.820  1.00  0.00     0.103 C 
HETATM    5  O13         0      52.495  94.166 -23.682  1.00  0.00    -0.307 OA
HETATM    6  C14         0      53.116  95.172 -24.256  1.00  0.00     0.107 C 
HETATM    7  C15         0      52.643  95.753 -25.423  1.00  0.00     0.049 C 
HETATM    8  C16         0      53.425  96.635 -26.160  1.00  0.00     0.093 C 
HETATM    9  C18         0      54.414  97.289 -25.434  1.00  0.00     0.048 C 
HETATM   10  C19         0      54.878  96.759 -24.238  1.00  0.00     0.096 C 
HETATM   11  C21         0      54.346  95.593 -23.760  1.00  0.00     0.084 C 
ENDROOT
BRANCH  10  12
HETATM   12  O20         0      56.122  97.154 -23.756  1.00  0.00    -0.359 OA
HETATM   13  H20         0      56.666  97.692 -24.318  1.00  0.00     0.218 HD
ENDBRANCH  10  12
BRANCH   4  14
HETATM   14  C5          0      52.651  91.976 -22.714  1.00  0.00     0.025 C 
HETATM   15  C6          0      51.567  91.480 -23.422  1.00  0.00     0.004 C 
HETATM   16  C7          0      51.662  90.185 -23.923  1.00  0.00     0.026 C 
HETATM   17  C8          0      52.740  89.362 -23.617  1.00  0.00     0.112 C 
HETATM   18  C10         0      53.409  89.694 -22.446  1.00  0.00     0.112 C 
HETATM   19  C12         0      53.368  91.015 -22.014  1.00  0.00     0.028 C 
BRANCH  17  20
HETATM   20  O9          0      53.208  88.437 -24.532  1.00  0.00    -0.357 OA
HETATM   21  H9          0      53.976  87.896 -24.391  1.00  0.00     0.218 HD
ENDBRANCH  17  20
BRANCH  18  22
HETATM   22  O11         0      54.369  88.800 -21.995  1.00  0.00    -0.357 OA
HETATM   23  H11         0      54.954  88.432 -22.647  1.00  0.00     0.218 HD
ENDBRANCH  18  22
ENDBRANCH   4  14
BRANCH   8  24
HETATM   24  O17         0      53.437  96.605 -27.559  1.00  0.00    -0.359 OA
HETATM   25  H17         0      52.668  96.830 -28.069  1.00  0.00     0.218 HD
ENDBRANCH   8  24
TORSDOF 5
ENDMDL
