MODEL 1
REMARK VINA RESULT:      -5.0      0.000      0.000
REMARK  5 active torsions:
REMARK  status: ('A' for Active; 'I' for Inactive)
REMARK    1  A    between atoms: C4_4  and  C5_5 
REMARK    2  A    between atoms: C8_8  and  O9_9 
REMARK    3  A    between atoms: C10_11  and  O11_12 
REMARK    4  A    between atoms: C16_18  and  O17_19 
REMARK    5  A    between atoms: C19_22  and  O20_23 
ROOT
HETATM    1  O1          0      50.471  71.552 -24.111  1.00  0.00    -0.286 OA
HETATM    2  C2          0      49.237  71.639 -23.865  1.00  0.00     0.201 C 
HETATM    3  C3          0      48.263  71.210 -24.751  1.00  0.00     0.067 C 
HETATM    4  C4          0      46.910  71.412 -24.501  1.00  0.00     0.103 C 
HETATM    5  O13         0      46.555  72.011 -23.377  1.00  0.00    -0.307 OA
HETATM    6  C14         0      47.440  72.470 -22.520  1.00  0.00     0.107 C 
HETATM    7  C15         0      47.110  73.426 -21.571  1.00  0.00     0.049 C 
HETATM    8  C16         0      48.090  74.091 -20.844  1.00  0.00     0.093 C 
HETATM    9  C18         0      49.294  73.408 -20.722  1.00  0.00     0.048 C 
HETATM   10  C19         0      49.636  72.413 -21.628  1.00  0.00     0.096 C 
HETATM   11  C21         0      48.772  72.090 -22.639  1.00  0.00     0.084 C 
ENDROOT
BRANCH  10  12
HETATM   12  O20         0      50.972  72.052 -21.771  1.00  0.00    -0.359 OA
HETATM   13  H20         0      51.516  72.580 -22.343  1.00  0.00     0.218 HD
ENDBRANCH  10  12
BRANCH   4  14
HETATM   14  C5          0      46.021  71.504 -25.660  1.00  0.00     0.025 C 
HETATM   15  C6          0      45.022  72.460 -25.767  1.00  0.00     0.004 C 
HETATM   16  C7          0      44.798  73.021 -27.020  1.00  0.00     0.026 C 
HETATM   17  C8          0      45.450  72.554 -28.156  1.00  0.00     0.112 C 
HETATM   18  C10         0      45.910  71.247 -28.063  1.00  0.00     0.112 C 
HETATM   19  C12         0      46.208  70.739 -26.804  1.00  0.00     0.028 C 
BRANCH  17  20
HETATM   20  O9          0      45.783  73.414 -29.187  1.00  0.00    -0.357 OA
HETATM   21  H9          0      45.253  74.160 -29.444  1.00  0.00     0.218 HD
ENDBRANCH  17  20
BRANCH  18  22
HETATM   22  O11         0      46.399  70.668 -29.226  1.00  0.00    -0.357 OA
HETATM   23  H11         0      46.057  69.812 -29.457  1.00  0.00     0.218 HD
ENDBRANCH  18  22
ENDBRANCH   4  14
BRANCH   8  24
HETATM   24  O17         0      47.987  75.457 -20.559  1.00  0.00    -0.359 OA
HETATM   25  H17         0      48.555  76.097 -20.971  1.00  0.00     0.218 HD
ENDBRANCH   8  24
TORSDOF 5
ENDMDL
MODEL 2
REMARK VINA RESULT:      -5.0      7.306      9.245
REMARK  5 active torsions:
REMARK  status: ('A' for Active; 'I' for Inactive)
REMARK    1  A    between atoms: C4_4  and  C5_5 
REMARK    2  A    between atoms: C8_8  and  O9_9 
REMARK    3  A    between atoms: C10_11  and  O11_12 
REMARK    4  A    between atoms: C16_18  and  O17_19 
REMARK    5  A    between atoms: C19_22  and  O20_23 
ROOT
HETATM    1  O1          0      58.349  74.507 -25.133  1.00  0.00    -0.286 OA
HETATM    2  C2          0      57.665  74.470 -24.073  1.00  0.00     0.201 C 
HETATM    3  C3          0      56.540  73.674 -23.933  1.00  0.00     0.067 C 
HETATM    4  C4          0      55.746  73.729 -22.794  1.00  0.00     0.103 C 
HETATM    5  O13         0      56.092  74.550 -21.818  1.00  0.00    -0.307 OA
HETATM    6  C14         0      57.128  75.354 -21.915  1.00  0.00     0.107 C 
HETATM    7  C15         0      57.265  76.471 -21.103  1.00  0.00     0.049 C 
HETATM    8  C16         0      58.215  77.448 -21.375  1.00  0.00     0.093 C 
HETATM    9  C18         0      59.308  77.015 -22.115  1.00  0.00     0.048 C 
HETATM   10  C19         0      59.220  75.874 -22.902  1.00  0.00     0.096 C 
HETATM   11  C21         0      58.053  75.161 -22.936  1.00  0.00     0.084 C 
ENDROOT
BRANCH  10  12
HETATM   12  O20         0      60.124  75.695 -23.944  1.00  0.00    -0.359 OA
HETATM   13  H20         0      60.876  76.274 -23.986  1.00  0.00     0.218 HD
ENDBRANCH  10  12
BRANCH   4  14
HETATM   14  C5          0      54.335  73.367 -22.943  1.00  0.00     0.025 C 
HETATM   15  C6          0      53.339  73.865 -22.115  1.00  0.00     0.004 C 
HETATM   16  C7          0      52.113  74.174 -22.696  1.00  0.00     0.026 C 
HETATM   17  C8          0      51.840  73.874 -24.026  1.00  0.00     0.112 C 
HETATM   18  C10         0      52.611  72.849 -24.559  1.00  0.00     0.112 C 
HETATM   19  C12         0      53.868  72.617 -24.015  1.00  0.00     0.028 C 
BRANCH  17  20
HETATM   20  O9          0      51.016  74.688 -24.782  1.00  0.00    -0.357 OA
HETATM   21  H9          0      50.402  74.363 -25.430  1.00  0.00     0.218 HD
ENDBRANCH  17  20
BRANCH  18  22
HETATM   22  O11         0      52.253  72.382 -25.816  1.00  0.00    -0.357 OA
HETATM   23  H11         0      52.742  71.642 -26.155  1.00  0.00     0.218 HD
ENDBRANCH  18  22
ENDBRANCH   4  14
BRANCH   8  24
HETATM   24  O17         0      57.928  78.808 -21.214  1.00  0.00    -0.359 OA
HETATM   25  H17         0      57.109  79.185 -21.514  1.00  0.00     0.218 HD
ENDBRANCH   8  24
TORSDOF 5
ENDMDL
MODEL 3
REMARK VINA RESULT:      -5.0     13.643     15.797
REMARK  5 active torsions:
REMARK  status: ('A' for Active; 'I' for Inactive)
REMARK    1  A    between atoms: C4_4  and  C5_5 
REMARK    2  A    between atoms: C8_8  and  O9_9 
REMARK    3  A    between atoms: C10_11  and  O11_12 
REMARK    4  A    between atoms: C16_18  and  O17_19 
REMARK    5  A    between atoms: C19_22  and  O20_23 
ROOT
HETATM    1  O1          0      56.168  77.766 -38.451  1.00  0.00    -0.286 OA
HETATM    2  C2          0      56.108  76.524 -38.234  1.00  0.00     0.201 C 
HETATM    3  C3          0      54.926  75.806 -38.304  1.00  0.00     0.067 C 
HETATM    4  C4          0      54.870  74.460 -37.961  1.00  0.00     0.103 C 
HETATM    5  O13         0      55.982  73.855 -37.580  1.00  0.00    -0.307 OA
HETATM    6  C14         0      57.122  74.499 -37.461  1.00  0.00     0.107 C 
HETATM    7  C15         0      58.169  73.997 -36.701  1.00  0.00     0.049 C 
HETATM    8  C16         0      59.264  74.786 -36.370  1.00  0.00     0.093 C 
HETATM    9  C18         0      59.507  75.845 -37.237  1.00  0.00     0.048 C 
HETATM   10  C19         0      58.494  76.341 -38.046  1.00  0.00     0.096 C 
HETATM   11  C21         0      57.250  75.773 -38.003  1.00  0.00     0.084 C 
ENDROOT
BRANCH  10  12
HETATM   12  O20         0      58.606  77.628 -38.563  1.00  0.00    -0.359 OA
HETATM   13  H20         0      59.448  77.897 -38.911  1.00  0.00     0.218 HD
ENDBRANCH  10  12
BRANCH   4  14
HETATM   14  C5          0      53.587  73.944 -37.481  1.00  0.00     0.025 C 
HETATM   15  C6          0      53.473  72.764 -36.760  1.00  0.00     0.004 C 
HETATM   16  C7          0      52.548  72.730 -35.722  1.00  0.00     0.026 C 
HETATM   17  C8          0      51.670  73.784 -35.492  1.00  0.00     0.112 C 
HETATM   18  C10         0      51.429  74.589 -36.597  1.00  0.00     0.112 C 
HETATM   19  C12         0      52.408  74.672 -37.580  1.00  0.00     0.028 C 
BRANCH  17  20
HETATM   20  O9          0      51.260  74.098 -34.208  1.00  0.00    -0.357 OA
HETATM   21  H9          0      50.452  74.557 -34.010  1.00  0.00     0.218 HD
ENDBRANCH  17  20
BRANCH  18  22
HETATM   22  O11         0      50.422  75.536 -36.477  1.00  0.00    -0.357 OA
HETATM   23  H11         0      50.520  76.184 -35.788  1.00  0.00     0.218 HD
ENDBRANCH  18  22
ENDBRANCH   4  14
BRANCH   8  24
HETATM   24  O17         0      59.851  74.723 -35.102  1.00  0.00    -0.359 OA
HETATM   25  H17         0      59.772  75.436 -34.479  1.00  0.00     0.218 HD
ENDBRANCH   8  24
TORSDOF 5
ENDMDL
MODEL 4
REMARK VINA RESULT:      -4.8     11.202     15.010
REMARK  5 active torsions:
REMARK  status: ('A' for Active; 'I' for Inactive)
REMARK    1  A    between atoms: C4_4  and  C5_5 
REMARK    2  A    between atoms: C8_8  and  O9_9 
REMARK    3  A    between atoms: C10_11  and  O11_12 
REMARK    4  A    between atoms: C16_18  and  O17_19 
REMARK    5  A    between atoms: C19_22  and  O20_23 
ROOT
HETATM    1  O1          0      51.799  78.133 -39.872  1.00  0.00    -0.286 OA
HETATM    2  C2          0      51.079  77.746 -38.912  1.00  0.00     0.201 C 
HETATM    3  C3          0      51.452  76.720 -38.060  1.00  0.00     0.067 C 
HETATM    4  C4          0      50.596  76.245 -37.074  1.00  0.00     0.103 C 
HETATM    5  O13         0      49.407  76.806 -36.941  1.00  0.00    -0.307 OA
HETATM    6  C14         0      48.989  77.757 -37.746  1.00  0.00     0.107 C 
HETATM    7  C15         0      47.642  78.065 -37.877  1.00  0.00     0.049 C 
HETATM    8  C16         0      47.185  78.883 -38.904  1.00  0.00     0.093 C 
HETATM    9  C18         0      48.131  79.761 -39.419  1.00  0.00     0.048 C 
HETATM   10  C19         0      49.487  79.508 -39.265  1.00  0.00     0.096 C 
HETATM   11  C21         0      49.897  78.393 -38.586  1.00  0.00     0.084 C 
ENDROOT
BRANCH  10  12
HETATM   12  O20         0      50.395  80.119 -40.125  1.00  0.00    -0.359 OA
HETATM   13  H20         0      50.414  81.068 -40.151  1.00  0.00     0.218 HD
ENDBRANCH  10  12
BRANCH   4  14
HETATM   14  C5          0      50.771  74.855 -36.648  1.00  0.00     0.025 C 
HETATM   15  C6          0      51.941  74.143 -36.867  1.00  0.00     0.004 C 
HETATM   16  C7          0      52.367  73.278 -35.864  1.00  0.00     0.026 C 
HETATM   17  C8          0      51.589  73.026 -34.740  1.00  0.00     0.112 C 
HETATM   18  C10         0      50.231  73.261 -34.910  1.00  0.00     0.112 C 
HETATM   19  C12         0      49.836  74.194 -35.861  1.00  0.00     0.028 C 
BRANCH  17  20
HETATM   20  O9          0      52.176  72.770 -33.513  1.00  0.00    -0.357 OA
HETATM   21  H9          0      51.864  73.133 -32.692  1.00  0.00     0.218 HD
ENDBRANCH  17  20
BRANCH  18  22
HETATM   22  O11         0      49.389  72.848 -33.887  1.00  0.00    -0.357 OA
HETATM   23  H11         0      48.605  73.366 -33.740  1.00  0.00     0.218 HD
ENDBRANCH  18  22
ENDBRANCH   4  14
BRANCH   8  24
HETATM   24  O17         0      45.992  78.607 -39.580  1.00  0.00    -0.359 OA
HETATM   25  H17         0      45.192  79.084 -39.395  1.00  0.00     0.218 HD
ENDBRANCH   8  24
TORSDOF 5
ENDMDL
MODEL 5
REMARK VINA RESULT:      -4.7     12.218     15.091
REMARK  5 active torsions:
REMARK  status: ('A' for Active; 'I' for Inactive)
REMARK    1  A    between atoms: C4_4  and  C5_5 
REMARK    2  A    between atoms: C8_8  and  O9_9 
REMARK    3  A    between atoms: C10_11  and  O11_12 
REMARK    4  A    between atoms: C16_18  and  O17_19 
REMARK    5  A    between atoms: C19_22  and  O20_23 
ROOT
HETATM    1  O1          0      52.324  77.336 -38.542  1.00  0.00    -0.286 OA
HETATM    2  C2          0      52.855  76.206 -38.362  1.00  0.00     0.201 C 
HETATM    3  C3          0      52.126  75.079 -38.020  1.00  0.00     0.067 C 
HETATM    4  C4          0      52.747  73.871 -37.727  1.00  0.00     0.103 C 
HETATM    5  O13         0      54.065  73.800 -37.799  1.00  0.00    -0.307 OA
HETATM    6  C14         0      54.807  74.848 -38.082  1.00  0.00     0.107 C 
HETATM    7  C15         0      56.159  74.892 -37.774  1.00  0.00     0.049 C 
HETATM    8  C16         0      56.876  76.080 -37.838  1.00  0.00     0.093 C 
HETATM    9  C18         0      56.349  77.038 -38.697  1.00  0.00     0.048 C 
HETATM   10  C19         0      55.011  76.997 -39.063  1.00  0.00     0.096 C 
HETATM   11  C21         0      54.207  75.996 -38.589  1.00  0.00     0.084 C 
ENDROOT
BRANCH  10  12
HETATM   12  O20         0      54.401  78.153 -39.541  1.00  0.00    -0.359 OA
HETATM   13  H20         0      54.942  78.786 -39.996  1.00  0.00     0.218 HD
ENDBRANCH  10  12
BRANCH   4  14
HETATM   14  C5          0      52.040  72.955 -36.830  1.00  0.00     0.025 C 
HETATM   15  C6          0      52.544  71.711 -36.476  1.00  0.00     0.004 C 
HETATM   16  C7          0      52.347  71.286 -35.166  1.00  0.00     0.026 C 
HETATM   17  C8          0      51.562  72.008 -34.274  1.00  0.00     0.112 C 
HETATM   18  C10         0      50.626  72.842 -34.871  1.00  0.00     0.112 C 
HETATM   19  C12         0      50.887  73.322 -36.148  1.00  0.00     0.028 C 
BRANCH  17  20
HETATM   20  O9          0      51.861  72.031 -32.924  1.00  0.00    -0.357 OA
HETATM   21  H9          0      51.704  71.301 -32.336  1.00  0.00     0.218 HD
ENDBRANCH  17  20
BRANCH  18  22
HETATM   22  O11         0      49.694  73.440 -34.034  1.00  0.00    -0.357 OA
HETATM   23  H11         0      48.963  73.882 -34.451  1.00  0.00     0.218 HD
ENDBRANCH  18  22
ENDBRANCH   4  14
BRANCH   8  24
HETATM   24  O17         0      57.837  76.406 -36.874  1.00  0.00    -0.359 OA
HETATM   25  H17         0      58.700  76.009 -36.877  1.00  0.00     0.218 HD
ENDBRANCH   8  24
TORSDOF 5
ENDMDL
MODEL 6
REMARK VINA RESULT:      -4.5     13.276     16.026
REMARK  5 active torsions:
REMARK  status: ('A' for Active; 'I' for Inactive)
REMARK    1  A    between atoms: C4_4  and  C5_5 
REMARK    2  A    between atoms: C8_8  and  O9_9 
REMARK    3  A    between atoms: C10_11  and  O11_12 
REMARK    4  A    between atoms: C16_18  and  O17_19 
REMARK    5  A    between atoms: C19_22  and  O20_23 
ROOT
HETATM    1  O1          0      52.785  73.016 -35.760  1.00  0.00    -0.286 OA
HETATM    2  C2          0      52.953  73.763 -36.763  1.00  0.00     0.201 C 
HETATM    3  C3          0      54.130  73.789 -37.491  1.00  0.00     0.067 C 
HETATM    4  C4          0      54.325  74.694 -38.528  1.00  0.00     0.103 C 
HETATM    5  O13         0      53.349  75.531 -38.832  1.00  0.00    -0.307 OA
HETATM    6  C14         0      52.226  75.574 -38.149  1.00  0.00     0.107 C 
HETATM    7  C15         0      51.387  76.677 -38.191  1.00  0.00     0.049 C 
HETATM    8  C16         0      50.345  76.826 -37.283  1.00  0.00     0.093 C 
HETATM    9  C18         0      49.873  75.641 -36.733  1.00  0.00     0.048 C 
HETATM   10  C19         0      50.669  74.504 -36.717  1.00  0.00     0.096 C 
HETATM   11  C21         0      51.923  74.545 -37.263  1.00  0.00     0.084 C 
ENDROOT
BRANCH  10  12
HETATM   12  O20         0      50.387  73.488 -35.809  1.00  0.00    -0.359 OA
HETATM   13  H20         0      51.107  73.126 -35.308  1.00  0.00     0.218 HD
ENDBRANCH  10  12
BRANCH   4  14
HETATM   14  C5          0      55.705  75.080 -38.829  1.00  0.00     0.025 C 
HETATM   15  C6          0      56.081  75.644 -40.040  1.00  0.00     0.004 C 
HETATM   16  C7          0      57.040  76.652 -40.011  1.00  0.00     0.026 C 
HETATM   17  C8          0      57.702  76.995 -38.837  1.00  0.00     0.112 C 
HETATM   18  C10         0      57.730  75.996 -37.874  1.00  0.00     0.112 C 
HETATM   19  C12         0      56.712  75.050 -37.873  1.00  0.00     0.028 C 
BRANCH  17  20
HETATM   20  O9          0      58.098  78.300 -38.602  1.00  0.00    -0.357 OA
HETATM   21  H9          0      58.108  78.977 -39.269  1.00  0.00     0.218 HD
ENDBRANCH  17  20
BRANCH  18  22
HETATM   22  O11         0      58.535  76.214 -36.765  1.00  0.00    -0.357 OA
HETATM   23  H11         0      58.332  76.972 -36.229  1.00  0.00     0.218 HD
ENDBRANCH  18  22
ENDBRANCH   4  14
BRANCH   8  24
HETATM   24  O17         0      50.037  78.071 -36.724  1.00  0.00    -0.359 OA
HETATM   25  H17         0      50.714  78.694 -36.489  1.00  0.00     0.218 HD
ENDBRANCH   8  24
TORSDOF 5
ENDMDL
MODEL 7
REMARK VINA RESULT:      -4.5      4.845      7.542
REMARK  5 active torsions:
REMARK  status: ('A' for Active; 'I' for Inactive)
REMARK    1  A    between atoms: C4_4  and  C5_5 
REMARK    2  A    between atoms: C8_8  and  O9_9 
REMARK    3  A    between atoms: C10_11  and  O11_12 
REMARK    4  A    between atoms: C16_18  and  O17_19 
REMARK    5  A    between atoms: C19_22  and  O20_23 
ROOT
HETATM    1  O1          0      54.258  72.883 -24.167  1.00  0.00    -0.286 OA
HETATM    2  C2          0      54.048  73.388 -23.030  1.00  0.00     0.201 C 
HETATM    3  C3          0      52.873  73.190 -22.325  1.00  0.00     0.067 C 
HETATM    4  C4          0      52.626  73.841 -21.122  1.00  0.00     0.103 C 
HETATM    5  O13         0      53.551  74.651 -20.638  1.00  0.00    -0.307 OA
HETATM    6  C14         0      54.668  74.903 -21.284  1.00  0.00     0.107 C 
HETATM    7  C15         0      55.440  76.021 -21.001  1.00  0.00     0.049 C 
HETATM    8  C16         0      56.469  76.420 -21.846  1.00  0.00     0.093 C 
HETATM    9  C18         0      57.010  75.408 -22.630  1.00  0.00     0.048 C 
HETATM   10  C19         0      56.283  74.255 -22.894  1.00  0.00     0.096 C 
HETATM   11  C21         0      55.030  74.106 -22.365  1.00  0.00     0.084 C 
ENDROOT
BRANCH  10  12
HETATM   12  O20         0      56.624  73.473 -23.993  1.00  0.00    -0.359 OA
HETATM   13  H20         0      56.485  73.837 -24.859  1.00  0.00     0.218 HD
ENDBRANCH  10  12
BRANCH   4  14
HETATM   14  C5          0      51.227  74.072 -20.761  1.00  0.00     0.025 C 
HETATM   15  C6          0      50.832  75.072 -19.883  1.00  0.00     0.004 C 
HETATM   16  C7          0      49.654  75.753 -20.170  1.00  0.00     0.026 C 
HETATM   17  C8          0      48.824  75.367 -21.217  1.00  0.00     0.112 C 
HETATM   18  C10         0      48.960  74.041 -21.605  1.00  0.00     0.112 C 
HETATM   19  C12         0      50.177  73.409 -21.384  1.00  0.00     0.028 C 
BRANCH  17  20
HETATM   20  O9          0      48.096  76.305 -21.927  1.00  0.00    -0.357 OA
HETATM   21  H9          0      47.170  76.467 -21.792  1.00  0.00     0.218 HD
ENDBRANCH  17  20
BRANCH  18  22
HETATM   22  O11         0      48.030  73.554 -22.513  1.00  0.00    -0.357 OA
HETATM   23  H11         0      48.368  73.193 -23.324  1.00  0.00     0.218 HD
ENDBRANCH  18  22
ENDBRANCH   4  14
BRANCH   8  24
HETATM   24  O17         0      56.701  77.771 -22.125  1.00  0.00    -0.359 OA
HETATM   25  H17         0      57.358  78.272 -21.656  1.00  0.00     0.218 HD
ENDBRANCH   8  24
TORSDOF 5
ENDMDL
MODEL 8
REMARK VINA RESULT:      -4.5     13.188     16.907
REMARK  5 active torsions:
REMARK  status: ('A' for Active; 'I' for Inactive)
REMARK    1  A    between atoms: C4_4  and  C5_5 
REMARK    2  A    between atoms: C8_8  and  O9_9 
REMARK    3  A    between atoms: C10_11  and  O11_12 
REMARK    4  A    between atoms: C16_18  and  O17_19 
REMARK    5  A    between atoms: C19_22  and  O20_23 
ROOT
HETATM    1  O1          0      43.619  85.668 -33.278  1.00  0.00    -0.286 OA
HETATM    2  C2          0      42.476  85.205 -33.544  1.00  0.00     0.201 C 
HETATM    3  C3          0      41.743  84.453 -32.642  1.00  0.00     0.067 C 
HETATM    4  C4          0      40.532  83.868 -32.995  1.00  0.00     0.103 C 
HETATM    5  O13         0      40.068  84.058 -34.218  1.00  0.00    -0.307 OA
HETATM    6  C14         0      40.742  84.731 -35.124  1.00  0.00     0.107 C 
HETATM    7  C15         0      40.476  84.601 -36.480  1.00  0.00     0.049 C 
HETATM    8  C16         0      41.345  85.109 -37.438  1.00  0.00     0.093 C 
HETATM    9  C18         0      42.145  86.160 -37.006  1.00  0.00     0.048 C 
HETATM   10  C19         0      42.394  86.347 -35.654  1.00  0.00     0.096 C 
HETATM   11  C21         0      41.834  85.501 -34.736  1.00  0.00     0.084 C 
ENDROOT
BRANCH  10  12
HETATM   12  O20         0      43.503  87.091 -35.263  1.00  0.00    -0.359 OA
HETATM   13  H20         0      44.352  86.840 -35.608  1.00  0.00     0.218 HD
ENDBRANCH  10  12
BRANCH   4  14
HETATM   14  C5          0      40.135  82.660 -32.270  1.00  0.00     0.025 C 
HETATM   15  C6          0      40.133  81.400 -32.852  1.00  0.00     0.004 C 
HETATM   16  C7          0      40.542  80.327 -32.067  1.00  0.00     0.026 C 
HETATM   17  C8          0      40.815  80.477 -30.712  1.00  0.00     0.112 C 
HETATM   18  C10         0      40.196  81.566 -30.113  1.00  0.00     0.112 C 
HETATM   19  C12         0      39.875  82.662 -30.906  1.00  0.00     0.028 C 
BRANCH  17  20
HETATM   20  O9          0      41.792  79.714 -30.097  1.00  0.00    -0.357 OA
HETATM   21  H9          0      41.915  78.786 -30.256  1.00  0.00     0.218 HD
ENDBRANCH  17  20
BRANCH  18  22
HETATM   22  O11         0      40.280  81.655 -28.731  1.00  0.00    -0.357 OA
HETATM   23  H11         0      40.825  81.013 -28.291  1.00  0.00     0.218 HD
ENDBRANCH  18  22
ENDBRANCH   4  14
BRANCH   8  24
HETATM   24  O17         0      41.627  84.404 -38.614  1.00  0.00    -0.359 OA
HETATM   25  H17         0      42.024  83.542 -38.596  1.00  0.00     0.218 HD
ENDBRANCH   8  24
TORSDOF 5
ENDMDL
MODEL 9
REMARK VINA RESULT:      -4.4     15.704     18.993
REMARK  5 active torsions:
REMARK  status: ('A' for Active; 'I' for Inactive)
REMARK    1  A    between atoms: C4_4  and  C5_5 
REMARK    2  A    between atoms: C8_8  and  O9_9 
REMARK    3  A    between atoms: C10_11  and  O11_12 
REMARK    4  A    between atoms: C16_18  and  O17_19 
REMARK    5  A    between atoms: C19_22  and  O20_23 
ROOT
HETATM    1  O1          0      45.664  85.802 -36.461  1.00  0.00    -0.286 OA
HETATM    2  C2          0      44.593  86.292 -36.008  1.00  0.00     0.201 C 
HETATM    3  C3          0      43.838  85.670 -35.028  1.00  0.00     0.067 C 
HETATM    4  C4          0      42.611  86.180 -34.620  1.00  0.00     0.103 C 
HETATM    5  O13         0      42.172  87.297 -35.173  1.00  0.00    -0.307 OA
HETATM    6  C14         0      42.831  87.907 -36.134  1.00  0.00     0.107 C 
HETATM    7  C15         0      42.215  88.819 -36.978  1.00  0.00     0.049 C 
HETATM    8  C16         0      42.838  89.265 -38.138  1.00  0.00     0.093 C 
HETATM    9  C18         0      44.226  89.190 -38.124  1.00  0.00     0.048 C 
HETATM   10  C19         0      44.877  88.322 -37.259  1.00  0.00     0.096 C 
HETATM   11  C21         0      44.148  87.545 -36.400  1.00  0.00     0.084 C 
ENDROOT
BRANCH  10  12
HETATM   12  O20         0      46.183  87.933 -37.540  1.00  0.00    -0.359 OA
HETATM   13  H20         0      46.797  87.881 -36.818  1.00  0.00     0.218 HD
ENDBRANCH  10  12
BRANCH   4  14
HETATM   14  C5          0      41.636  85.230 -34.083  1.00  0.00     0.025 C 
HETATM   15  C6          0      40.437  84.942 -34.720  1.00  0.00     0.004 C 
HETATM   16  C7          0      39.991  83.624 -34.690  1.00  0.00     0.026 C 
HETATM   17  C8          0      40.642  82.651 -33.940  1.00  0.00     0.112 C 
HETATM   18  C10         0      41.398  83.142 -32.884  1.00  0.00     0.112 C 
HETATM   19  C12         0      41.903  84.433 -32.977  1.00  0.00     0.028 C 
BRANCH  17  20
HETATM   20  O9          0      40.684  81.336 -34.368  1.00  0.00    -0.357 OA
HETATM   21  H9          0      41.400  80.967 -34.872  1.00  0.00     0.218 HD
ENDBRANCH  17  20
BRANCH  18  22
HETATM   22  O11         0      41.913  82.211 -31.993  1.00  0.00    -0.357 OA
HETATM   23  H11         0      41.761  81.294 -32.194  1.00  0.00     0.218 HD
ENDBRANCH  18  22
ENDBRANCH   4  14
BRANCH   8  24
HETATM   24  O17         0      42.122  89.446 -39.327  1.00  0.00    -0.359 OA
HETATM   25  H17         0      41.173  89.454 -39.341  1.00  0.00     0.218 HD
ENDBRANCH   8  24
TORSDOF 5
ENDMDL
