MODEL 1
REMARK VINA RESULT:      -4.1      0.000      0.000
REMARK  5 active torsions:
REMARK  status: ('A' for Active; 'I' for Inactive)
REMARK    1  A    between atoms: C4_4  and  C5_5 
REMARK    2  A    between atoms: C8_8  and  O9_9 
REMARK    3  A    between atoms: C10_11  and  O11_12 
REMARK    4  A    between atoms: C16_18  and  O17_19 
REMARK    5  A    between atoms: C19_22  and  O20_23 
ROOT
HETATM    1  O1          0      61.765  95.493 -34.408  1.00  0.00    -0.286 OA
HETATM    2  C2          0      62.917  95.049 -34.669  1.00  0.00     0.201 C 
HETATM    3  C3          0      63.414  94.963 -35.958  1.00  0.00     0.067 C 
HETATM    4  C4          0      64.645  94.376 -36.226  1.00  0.00     0.103 C 
HETATM    5  O13         0      65.360  93.911 -35.217  1.00  0.00    -0.307 OA
HETATM    6  C14         0      64.919  93.934 -33.978  1.00  0.00     0.107 C 
HETATM    7  C15         0      65.455  93.114 -32.996  1.00  0.00     0.049 C 
HETATM    8  C16         0      64.826  92.956 -31.766  1.00  0.00     0.093 C 
HETATM    9  C18         0      64.000  94.008 -31.390  1.00  0.00     0.048 C 
HETATM   10  C19         0      63.484  94.875 -32.342  1.00  0.00     0.096 C 
HETATM   11  C21         0      63.805  94.704 -33.661  1.00  0.00     0.084 C 
ENDROOT
BRANCH  10  12
HETATM   12  O20         0      62.351  95.624 -32.038  1.00  0.00    -0.359 OA
HETATM   13  H20         0      61.508  95.187 -32.066  1.00  0.00     0.218 HD
ENDBRANCH  10  12
BRANCH   4  14
HETATM   14  C5          0      64.831  93.784 -37.553  1.00  0.00     0.025 C 
HETATM   15  C6          0      66.028  93.217 -37.962  1.00  0.00     0.004 C 
HETATM   16  C7          0      65.963  92.067 -38.743  1.00  0.00     0.026 C 
HETATM   17  C8          0      64.751  91.574 -39.215  1.00  0.00     0.112 C 
HETATM   18  C10         0      63.734  92.516 -39.297  1.00  0.00     0.112 C 
HETATM   19  C12         0      63.780  93.613 -38.445  1.00  0.00     0.028 C 
BRANCH  17  20
HETATM   20  O9          0      64.554  90.214 -39.375  1.00  0.00    -0.357 OA
HETATM   21  H9          0      65.226  89.561 -39.219  1.00  0.00     0.218 HD
ENDBRANCH  17  20
BRANCH  18  22
HETATM   22  O11         0      62.566  92.125 -39.935  1.00  0.00    -0.357 OA
HETATM   23  H11         0      61.877  92.776 -40.008  1.00  0.00     0.218 HD
ENDBRANCH  18  22
ENDBRANCH   4  14
BRANCH   8  24
HETATM   24  O17         0      64.765  91.709 -31.134  1.00  0.00    -0.359 OA
HETATM   25  H17         0      63.941  91.251 -31.012  1.00  0.00     0.218 HD
ENDBRANCH   8  24
TORSDOF 5
ENDMDL
MODEL 2
REMARK VINA RESULT:      -4.1      4.398      6.091
REMARK  5 active torsions:
REMARK  status: ('A' for Active; 'I' for Inactive)
REMARK    1  A    between atoms: C4_4  and  C5_5 
REMARK    2  A    between atoms: C8_8  and  O9_9 
REMARK    3  A    between atoms: C10_11  and  O11_12 
REMARK    4  A    between atoms: C16_18  and  O17_19 
REMARK    5  A    between atoms: C19_22  and  O20_23 
ROOT
HETATM    1  O1          0      69.546  91.382 -34.377  1.00  0.00    -0.286 OA
HETATM    2  C2          0      69.315  92.327 -35.181  1.00  0.00     0.201 C 
HETATM    3  C3          0      68.160  92.402 -35.939  1.00  0.00     0.067 C 
HETATM    4  C4          0      67.976  93.398 -36.891  1.00  0.00     0.103 C 
HETATM    5  O13         0      68.925  94.303 -37.054  1.00  0.00    -0.307 OA
HETATM    6  C14         0      70.058  94.256 -36.387  1.00  0.00     0.107 C 
HETATM    7  C15         0      71.190  94.931 -36.820  1.00  0.00     0.049 C 
HETATM    8  C16         0      72.438  94.679 -36.264  1.00  0.00     0.093 C 
HETATM    9  C18         0      72.412  94.165 -34.972  1.00  0.00     0.048 C 
HETATM   10  C19         0      71.278  93.525 -34.491  1.00  0.00     0.096 C 
HETATM   11  C21         0      70.172  93.412 -35.288  1.00  0.00     0.084 C 
ENDROOT
BRANCH  10  12
HETATM   12  O20         0      71.396  92.655 -33.411  1.00  0.00    -0.359 OA
HETATM   13  H20         0      71.686  91.768 -33.583  1.00  0.00     0.218 HD
ENDBRANCH  10  12
BRANCH   4  14
HETATM   14  C5          0      67.092  93.093 -38.018  1.00  0.00     0.025 C 
HETATM   15  C6          0      67.509  92.373 -39.127  1.00  0.00     0.004 C 
HETATM   16  C7          0      66.606  91.475 -39.689  1.00  0.00     0.026 C 
HETATM   17  C8          0      65.290  91.392 -39.248  1.00  0.00     0.112 C 
HETATM   18  C10         0      64.816  92.535 -38.619  1.00  0.00     0.112 C 
HETATM   19  C12         0      65.731  93.372 -37.992  1.00  0.00     0.028 C 
BRANCH  17  20
HETATM   20  O9          0      64.614  90.185 -39.260  1.00  0.00    -0.357 OA
HETATM   21  H9          0      64.767  89.487 -38.633  1.00  0.00     0.218 HD
ENDBRANCH  17  20
BRANCH  18  22
HETATM   22  O11         0      63.459  92.576 -38.330  1.00  0.00    -0.357 OA
HETATM   23  H11         0      62.980  91.758 -38.397  1.00  0.00     0.218 HD
ENDBRANCH  18  22
ENDBRANCH   4  14
BRANCH   8  24
HETATM   24  O17         0      73.591  94.624 -37.054  1.00  0.00    -0.359 OA
HETATM   25  H17         0      73.939  93.799 -37.373  1.00  0.00     0.218 HD
ENDBRANCH   8  24
TORSDOF 5
ENDMDL
MODEL 3
REMARK VINA RESULT:      -4.1      2.917      5.339
REMARK  5 active torsions:
REMARK  status: ('A' for Active; 'I' for Inactive)
REMARK    1  A    between atoms: C4_4  and  C5_5 
REMARK    2  A    between atoms: C8_8  and  O9_9 
REMARK    3  A    between atoms: C10_11  and  O11_12 
REMARK    4  A    between atoms: C16_18  and  O17_19 
REMARK    5  A    between atoms: C19_22  and  O20_23 
ROOT
HETATM    1  O1          0      62.777  97.277 -37.691  1.00  0.00    -0.286 OA
HETATM    2  C2          0      62.719  96.297 -36.899  1.00  0.00     0.201 C 
HETATM    3  C3          0      63.662  96.074 -35.911  1.00  0.00     0.067 C 
HETATM    4  C4          0      63.632  94.931 -35.119  1.00  0.00     0.103 C 
HETATM    5  O13         0      62.663  94.053 -35.308  1.00  0.00    -0.307 OA
HETATM    6  C14         0      61.764  94.198 -36.257  1.00  0.00     0.107 C 
HETATM    7  C15         0      61.012  93.129 -36.721  1.00  0.00     0.049 C 
HETATM    8  C16         0      60.256  93.228 -37.883  1.00  0.00     0.093 C 
HETATM    9  C18         0      59.875  94.519 -38.227  1.00  0.00     0.048 C 
HETATM   10  C19         0      60.577  95.614 -37.743  1.00  0.00     0.096 C 
HETATM   11  C21         0      61.643  95.422 -36.907  1.00  0.00     0.084 C 
ENDROOT
BRANCH  10  12
HETATM   12  O20         0      60.483  96.832 -38.410  1.00  0.00    -0.359 OA
HETATM   13  H20         0      59.855  97.468 -38.089  1.00  0.00     0.218 HD
ENDBRANCH  10  12
BRANCH   4  14
HETATM   14  C5          0      64.905  94.468 -34.563  1.00  0.00     0.025 C 
HETATM   15  C6          0      64.982  93.616 -33.471  1.00  0.00     0.004 C 
HETATM   16  C7          0      65.971  92.637 -33.486  1.00  0.00     0.026 C 
HETATM   17  C8          0      66.935  92.590 -34.487  1.00  0.00     0.112 C 
HETATM   18  C10         0      67.158  93.798 -35.135  1.00  0.00     0.112 C 
HETATM   19  C12         0      66.123  94.724 -35.178  1.00  0.00     0.028 C 
BRANCH  17  20
HETATM   20  O9          0      67.452  91.381 -34.917  1.00  0.00    -0.357 OA
HETATM   21  H9          0      68.329  91.077 -34.709  1.00  0.00     0.218 HD
ENDBRANCH  17  20
BRANCH  18  22
HETATM   22  O11         0      68.236  93.854 -36.007  1.00  0.00    -0.357 OA
HETATM   23  H11         0      68.364  93.108 -36.581  1.00  0.00     0.218 HD
ENDBRANCH  18  22
ENDBRANCH   4  14
BRANCH   8  24
HETATM   24  O17         0      60.181  92.170 -38.796  1.00  0.00    -0.359 OA
HETATM   25  H17         0      59.926  91.296 -38.528  1.00  0.00     0.218 HD
ENDBRANCH   8  24
TORSDOF 5
ENDMDL
MODEL 4
REMARK VINA RESULT:      -4.0      2.322      3.769
REMARK  5 active torsions:
REMARK  status: ('A' for Active; 'I' for Inactive)
REMARK    1  A    between atoms: C4_4  and  C5_5 
REMARK    2  A    between atoms: C8_8  and  O9_9 
REMARK    3  A    between atoms: C10_11  and  O11_12 
REMARK    4  A    between atoms: C16_18  and  O17_19 
REMARK    5  A    between atoms: C19_22  and  O20_23 
ROOT
HETATM    1  O1          0      64.612  92.738 -31.853  1.00  0.00    -0.286 OA
HETATM    2  C2          0      64.931  93.336 -32.917  1.00  0.00     0.201 C 
HETATM    3  C3          0      64.016  94.024 -33.696  1.00  0.00     0.067 C 
HETATM    4  C4          0      64.374  94.586 -34.916  1.00  0.00     0.103 C 
HETATM    5  O13         0      65.626  94.473 -35.324  1.00  0.00    -0.307 OA
HETATM    6  C14         0      66.525  93.799 -34.642  1.00  0.00     0.107 C 
HETATM    7  C15         0      67.695  93.339 -35.229  1.00  0.00     0.049 C 
HETATM    8  C16         0      68.514  92.420 -34.585  1.00  0.00     0.093 C 
HETATM    9  C18         0      68.405  92.407 -33.199  1.00  0.00     0.048 C 
HETATM   10  C19         0      67.268  92.902 -32.576  1.00  0.00     0.096 C 
HETATM   11  C21         0      66.252  93.422 -33.331  1.00  0.00     0.084 C 
ENDROOT
BRANCH  10  12
HETATM   12  O20         0      66.975  92.502 -31.276  1.00  0.00    -0.359 OA
HETATM   13  H20         0      67.040  93.150 -30.585  1.00  0.00     0.218 HD
ENDBRANCH  10  12
BRANCH   4  14
HETATM   14  C5          0      63.318  94.742 -35.917  1.00  0.00     0.025 C 
HETATM   15  C6          0      63.543  95.297 -37.168  1.00  0.00     0.004 C 
HETATM   16  C7          0      62.876  94.736 -38.252  1.00  0.00     0.026 C 
HETATM   17  C8          0      61.914  93.746 -38.084  1.00  0.00     0.112 C 
HETATM   18  C10         0      61.323  93.720 -36.828  1.00  0.00     0.112 C 
HETATM   19  C12         0      62.046  94.209 -35.747  1.00  0.00     0.028 C 
BRANCH  17  20
HETATM   20  O9          0      61.742  92.756 -39.035  1.00  0.00    -0.357 OA
HETATM   21  H9          0      61.815  92.904 -39.971  1.00  0.00     0.218 HD
ENDBRANCH  17  20
BRANCH  18  22
HETATM   22  O11         0      60.230  92.881 -36.665  1.00  0.00    -0.357 OA
HETATM   23  H11         0      60.390  91.947 -36.737  1.00  0.00     0.218 HD
ENDBRANCH  18  22
ENDBRANCH   4  14
BRANCH   8  24
HETATM   24  O17         0      69.129  91.375 -35.284  1.00  0.00    -0.359 OA
HETATM   25  H17         0      69.640  90.710 -34.839  1.00  0.00     0.218 HD
ENDBRANCH   8  24
TORSDOF 5
ENDMDL
MODEL 5
REMARK VINA RESULT:      -3.7      3.354      4.886
REMARK  5 active torsions:
REMARK  status: ('A' for Active; 'I' for Inactive)
REMARK    1  A    between atoms: C4_4  and  C5_5 
REMARK    2  A    between atoms: C8_8  and  O9_9 
REMARK    3  A    between atoms: C10_11  and  O11_12 
REMARK    4  A    between atoms: C16_18  and  O17_19 
REMARK    5  A    between atoms: C19_22  and  O20_23 
ROOT
HETATM    1  O1          0      68.008  95.548 -38.622  1.00  0.00    -0.286 OA
HETATM    2  C2          0      67.200  94.623 -38.335  1.00  0.00     0.201 C 
HETATM    3  C3          0      65.926  94.546 -38.873  1.00  0.00     0.067 C 
HETATM    4  C4          0      65.019  93.576 -38.463  1.00  0.00     0.103 C 
HETATM    5  O13         0      65.399  92.697 -37.552  1.00  0.00    -0.307 OA
HETATM    6  C14         0      66.583  92.748 -36.982  1.00  0.00     0.107 C 
HETATM    7  C15         0      66.843  92.110 -35.778  1.00  0.00     0.049 C 
HETATM    8  C16         0      68.003  92.372 -35.058  1.00  0.00     0.093 C 
HETATM    9  C18         0      69.068  92.846 -35.813  1.00  0.00     0.048 C 
HETATM   10  C19         0      68.848  93.447 -37.045  1.00  0.00     0.096 C 
HETATM   11  C21         0      67.572  93.560 -37.527  1.00  0.00     0.084 C 
ENDROOT
BRANCH  10  12
HETATM   12  O20         0      69.823  94.286 -37.577  1.00  0.00    -0.359 OA
HETATM   13  H20         0      69.621  94.749 -38.381  1.00  0.00     0.218 HD
ENDBRANCH  10  12
BRANCH   4  14
HETATM   14  C5          0      63.596  93.895 -38.583  1.00  0.00     0.025 C 
HETATM   15  C6          0      62.989  94.179 -39.798  1.00  0.00     0.004 C 
HETATM   16  C7          0      61.702  93.695 -40.005  1.00  0.00     0.026 C 
HETATM   17  C8          0      60.988  93.066 -38.991  1.00  0.00     0.112 C 
HETATM   18  C10         0      61.399  93.390 -37.705  1.00  0.00     0.112 C 
HETATM   19  C12         0      62.716  93.790 -37.514  1.00  0.00     0.028 C 
BRANCH  17  20
HETATM   20  O9          0      60.096  92.048 -39.279  1.00  0.00    -0.357 OA
HETATM   21  H9          0      59.671  91.515 -38.616  1.00  0.00     0.218 HD
ENDBRANCH  17  20
BRANCH  18  22
HETATM   22  O11         0      60.604  92.941 -36.659  1.00  0.00    -0.357 OA
HETATM   23  H11         0      59.882  92.367 -36.884  1.00  0.00     0.218 HD
ENDBRANCH  18  22
ENDBRANCH   4  14
BRANCH   8  24
HETATM   24  O17         0      67.987  92.476 -33.662  1.00  0.00    -0.359 OA
HETATM   25  H17         0      67.190  92.344 -33.161  1.00  0.00     0.218 HD
ENDBRANCH   8  24
TORSDOF 5
ENDMDL
MODEL 6
REMARK VINA RESULT:      -3.6      2.925      4.408
REMARK  5 active torsions:
REMARK  status: ('A' for Active; 'I' for Inactive)
REMARK    1  A    between atoms: C4_4  and  C5_5 
REMARK    2  A    between atoms: C8_8  and  O9_9 
REMARK    3  A    between atoms: C10_11  and  O11_12 
REMARK    4  A    between atoms: C16_18  and  O17_19 
REMARK    5  A    between atoms: C19_22  and  O20_23 
ROOT
HETATM    1  O1          0      68.059  91.592 -31.947  1.00  0.00    -0.286 OA
HETATM    2  C2          0      67.164  92.086 -32.687  1.00  0.00     0.201 C 
HETATM    3  C3          0      67.341  92.289 -34.045  1.00  0.00     0.067 C 
HETATM    4  C4          0      66.378  92.928 -34.817  1.00  0.00     0.103 C 
HETATM    5  O13         0      65.262  93.331 -34.235  1.00  0.00    -0.307 OA
HETATM    6  C14         0      65.060  93.197 -32.943  1.00  0.00     0.107 C 
HETATM    7  C15         0      64.109  93.950 -32.270  1.00  0.00     0.049 C 
HETATM    8  C16         0      64.073  93.993 -30.881  1.00  0.00     0.093 C 
HETATM    9  C18         0      64.635  92.892 -30.245  1.00  0.00     0.048 C 
HETATM   10  C19         0      65.555  92.089 -30.906  1.00  0.00     0.096 C 
HETATM   11  C21         0      65.899  92.374 -32.199  1.00  0.00     0.084 C 
ENDROOT
BRANCH  10  12
HETATM   12  O20         0      66.417  91.289 -30.162  1.00  0.00    -0.359 OA
HETATM   13  H20         0      67.093  91.718 -29.652  1.00  0.00     0.218 HD
ENDBRANCH  10  12
BRANCH   4  14
HETATM   14  C5          0      66.838  93.628 -36.018  1.00  0.00     0.025 C 
HETATM   15  C6          0      67.136  94.983 -36.031  1.00  0.00     0.004 C 
HETATM   16  C7          0      68.225  95.396 -36.791  1.00  0.00     0.026 C 
HETATM   17  C8          0      68.915  94.515 -37.617  1.00  0.00     0.112 C 
HETATM   18  C10         0      68.186  93.403 -38.015  1.00  0.00     0.112 C 
HETATM   19  C12         0      67.156  92.960 -37.193  1.00  0.00     0.028 C 
BRANCH  17  20
HETATM   20  O9          0      70.275  94.658 -37.828  1.00  0.00    -0.357 OA
HETATM   21  H9          0      70.721  94.367 -38.615  1.00  0.00     0.218 HD
ENDBRANCH  17  20
BRANCH  18  22
HETATM   22  O11         0      68.756  92.592 -38.986  1.00  0.00    -0.357 OA
HETATM   23  H11         0      69.580  92.172 -38.766  1.00  0.00     0.218 HD
ENDBRANCH  18  22
ENDBRANCH   4  14
BRANCH   8  24
HETATM   24  O17         0      63.809  95.184 -30.195  1.00  0.00    -0.359 OA
HETATM   25  H17         0      63.592  95.189 -29.270  1.00  0.00     0.218 HD
ENDBRANCH   8  24
TORSDOF 5
ENDMDL
MODEL 7
REMARK VINA RESULT:      -3.6      2.506      7.080
REMARK  5 active torsions:
REMARK  status: ('A' for Active; 'I' for Inactive)
REMARK    1  A    between atoms: C4_4  and  C5_5 
REMARK    2  A    between atoms: C8_8  and  O9_9 
REMARK    3  A    between atoms: C10_11  and  O11_12 
REMARK    4  A    between atoms: C16_18  and  O17_19 
REMARK    5  A    between atoms: C19_22  and  O20_23 
ROOT
HETATM    1  O1          0      69.523  94.518 -36.547  1.00  0.00    -0.286 OA
HETATM    2  C2          0      68.374  94.015 -36.412  1.00  0.00     0.201 C 
HETATM    3  C3          0      67.693  94.012 -35.206  1.00  0.00     0.067 C 
HETATM    4  C4          0      66.473  93.362 -35.060  1.00  0.00     0.103 C 
HETATM    5  O13         0      65.949  92.752 -36.109  1.00  0.00    -0.307 OA
HETATM    6  C14         0      66.571  92.693 -37.266  1.00  0.00     0.107 C 
HETATM    7  C15         0      66.242  91.746 -38.226  1.00  0.00     0.049 C 
HETATM    8  C16         0      67.058  91.521 -39.328  1.00  0.00     0.093 C 
HETATM    9  C18         0      67.867  92.593 -39.688  1.00  0.00     0.048 C 
HETATM   10  C19         0      68.178  93.582 -38.765  1.00  0.00     0.096 C 
HETATM   11  C21         0      67.671  93.512 -37.496  1.00  0.00     0.084 C 
ENDROOT
BRANCH  10  12
HETATM   12  O20         0      69.297  94.382 -38.977  1.00  0.00    -0.359 OA
HETATM   13  H20         0      69.266  95.281 -38.672  1.00  0.00     0.218 HD
ENDBRANCH  10  12
BRANCH   4  14
HETATM   14  C5          0      66.124  92.885 -33.721  1.00  0.00     0.025 C 
HETATM   15  C6          0      66.999  92.152 -32.932  1.00  0.00     0.004 C 
HETATM   16  C7          0      67.007  92.413 -31.566  1.00  0.00     0.026 C 
HETATM   17  C8          0      66.084  93.274 -30.982  1.00  0.00     0.112 C 
HETATM   18  C10         0      64.910  93.441 -31.703  1.00  0.00     0.112 C 
HETATM   19  C12         0      64.949  93.258 -33.080  1.00  0.00     0.028 C 
BRANCH  17  20
HETATM   20  O9          0      66.429  94.046 -29.886  1.00  0.00    -0.357 OA
HETATM   21  H9          0      67.317  94.129 -29.558  1.00  0.00     0.218 HD
ENDBRANCH  17  20
BRANCH  18  22
HETATM   22  O11         0      63.883  94.137 -31.080  1.00  0.00    -0.357 OA
HETATM   23  H11         0      63.139  93.627 -30.779  1.00  0.00     0.218 HD
ENDBRANCH  18  22
ENDBRANCH   4  14
BRANCH   8  24
HETATM   24  O17         0      67.290  90.229 -39.812  1.00  0.00    -0.359 OA
HETATM   25  H17         0      67.583  90.075 -40.702  1.00  0.00     0.218 HD
ENDBRANCH   8  24
TORSDOF 5
ENDMDL
MODEL 8
REMARK VINA RESULT:      -3.6      3.507      6.804
REMARK  5 active torsions:
REMARK  status: ('A' for Active; 'I' for Inactive)
REMARK    1  A    between atoms: C4_4  and  C5_5 
REMARK    2  A    between atoms: C8_8  and  O9_9 
REMARK    3  A    between atoms: C10_11  and  O11_12 
REMARK    4  A    between atoms: C16_18  and  O17_19 
REMARK    5  A    between atoms: C19_22  and  O20_23 
ROOT
HETATM    1  O1          0      64.730  93.987 -34.990  1.00  0.00    -0.286 OA
HETATM    2  C2          0      64.583  93.983 -33.737  1.00  0.00     0.201 C 
HETATM    3  C3          0      65.095  92.986 -32.925  1.00  0.00     0.067 C 
HETATM    4  C4          0      64.832  92.951 -31.560  1.00  0.00     0.103 C 
HETATM    5  O13         0      64.090  93.909 -31.032  1.00  0.00    -0.307 OA
HETATM    6  C14         0      63.548  94.857 -31.765  1.00  0.00     0.107 C 
HETATM    7  C15         0      62.473  95.608 -31.310  1.00  0.00     0.049 C 
HETATM    8  C16         0      61.747  96.423 -32.170  1.00  0.00     0.093 C 
HETATM    9  C18         0      62.438  96.850 -33.298  1.00  0.00     0.048 C 
HETATM   10  C19         0      63.546  96.148 -33.753  1.00  0.00     0.096 C 
HETATM   11  C21         0      63.972  95.038 -33.077  1.00  0.00     0.084 C 
ENDROOT
BRANCH  10  12
HETATM   12  O20         0      63.953  96.303 -35.075  1.00  0.00    -0.359 OA
HETATM   13  H20         0      63.310  96.599 -35.707  1.00  0.00     0.218 HD
ENDBRANCH  10  12
BRANCH   4  14
HETATM   14  C5          0      64.864  91.643 -30.905  1.00  0.00     0.025 C 
HETATM   15  C6          0      66.043  90.957 -30.651  1.00  0.00     0.004 C 
HETATM   16  C7          0      66.137  90.258 -29.452  1.00  0.00     0.026 C 
HETATM   17  C8          0      65.050  90.132 -28.594  1.00  0.00     0.112 C 
HETATM   18  C10         0      63.811  90.284 -29.202  1.00  0.00     0.112 C 
HETATM   19  C12         0      63.731  91.058 -30.353  1.00  0.00     0.028 C 
BRANCH  17  20
HETATM   20  O9          0      65.232  90.074 -27.224  1.00  0.00    -0.357 OA
HETATM   21  H9          0      65.179  90.831 -26.652  1.00  0.00     0.218 HD
ENDBRANCH  17  20
BRANCH  18  22
HETATM   22  O11         0      62.694  89.982 -28.436  1.00  0.00    -0.357 OA
HETATM   23  H11         0      62.437  90.620 -27.781  1.00  0.00     0.218 HD
ENDBRANCH  18  22
ENDBRANCH   4  14
BRANCH   8  24
HETATM   24  O17         0      60.354  96.520 -32.080  1.00  0.00    -0.359 OA
HETATM   25  H17         0      59.789  96.271 -32.802  1.00  0.00     0.218 HD
ENDBRANCH   8  24
TORSDOF 5
ENDMDL
MODEL 9
REMARK VINA RESULT:      -3.5      2.728      6.137
REMARK  5 active torsions:
REMARK  status: ('A' for Active; 'I' for Inactive)
REMARK    1  A    between atoms: C4_4  and  C5_5 
REMARK    2  A    between atoms: C8_8  and  O9_9 
REMARK    3  A    between atoms: C10_11  and  O11_12 
REMARK    4  A    between atoms: C16_18  and  O17_19 
REMARK    5  A    between atoms: C19_22  and  O20_23 
ROOT
HETATM    1  O1          0      65.208  92.093 -31.058  1.00  0.00    -0.286 OA
HETATM    2  C2          0      65.120  92.990 -31.940  1.00  0.00     0.201 C 
HETATM    3  C3          0      64.221  94.040 -31.855  1.00  0.00     0.067 C 
HETATM    4  C4          0      64.073  94.958 -32.889  1.00  0.00     0.103 C 
HETATM    5  O13         0      64.827  94.828 -33.966  1.00  0.00    -0.307 OA
HETATM    6  C14         0      65.669  93.829 -34.114  1.00  0.00     0.107 C 
HETATM    7  C15         0      66.153  93.459 -35.360  1.00  0.00     0.049 C 
HETATM    8  C16         0      66.831  92.260 -35.545  1.00  0.00     0.093 C 
HETATM    9  C18         0      67.442  91.750 -34.406  1.00  0.00     0.048 C 
HETATM   10  C19         0      67.013  92.135 -33.143  1.00  0.00     0.096 C 
HETATM   11  C21         0      65.991  93.036 -33.018  1.00  0.00     0.084 C 
ENDROOT
BRANCH  10  12
HETATM   12  O20         0      67.308  91.326 -32.049  1.00  0.00    -0.359 OA
HETATM   13  H20         0      66.928  91.557 -31.210  1.00  0.00     0.218 HD
ENDBRANCH  10  12
BRANCH   4  14
HETATM   14  C5          0      62.774  95.622 -33.013  1.00  0.00     0.025 C 
HETATM   15  C6          0      61.951  95.875 -31.925  1.00  0.00     0.004 C 
HETATM   16  C7          0      61.254  97.079 -31.910  1.00  0.00     0.026 C 
HETATM   17  C8          0      61.267  97.943 -33.000  1.00  0.00     0.112 C 
HETATM   18  C10         0      61.565  97.339 -34.215  1.00  0.00     0.112 C 
HETATM   19  C12         0      62.336  96.183 -34.206  1.00  0.00     0.028 C 
BRANCH  17  20
HETATM   20  O9          0      61.196  99.313 -32.820  1.00  0.00    -0.357 OA
HETATM   21  H9          0      60.634  99.732 -32.178  1.00  0.00     0.218 HD
ENDBRANCH  17  20
BRANCH  18  22
HETATM   22  O11         0      61.407  98.113 -35.356  1.00  0.00    -0.357 OA
HETATM   23  H11         0      62.110  98.085 -35.995  1.00  0.00     0.218 HD
ENDBRANCH  18  22
ENDBRANCH   4  14
BRANCH   8  24
HETATM   24  O17         0      66.625  91.474 -36.684  1.00  0.00    -0.359 OA
HETATM   25  H17         0      66.236  91.832 -37.473  1.00  0.00     0.218 HD
ENDBRANCH   8  24
TORSDOF 5
ENDMDL
