MODEL 1
REMARK VINA RESULT:      -3.4      0.000      0.000
REMARK  5 active torsions:
REMARK  status: ('A' for Active; 'I' for Inactive)
REMARK    1  A    between atoms: C4_4  and  C5_5 
REMARK    2  A    between atoms: C8_8  and  O9_9 
REMARK    3  A    between atoms: C10_11  and  O11_12 
REMARK    4  A    between atoms: C16_18  and  O17_19 
REMARK    5  A    between atoms: C19_22  and  O20_23 
ROOT
HETATM    1  O1          0       9.296  72.618  22.267  1.00  0.00    -0.286 OA
HETATM    2  C2          0       8.324  73.199  21.710  1.00  0.00     0.201 C 
HETATM    3  C3          0       8.196  74.577  21.671  1.00  0.00     0.067 C 
HETATM    4  C4          0       7.065  75.189  21.142  1.00  0.00     0.103 C 
HETATM    5  O13         0       6.104  74.428  20.650  1.00  0.00    -0.307 OA
HETATM    6  C14         0       6.158  73.115  20.696  1.00  0.00     0.107 C 
HETATM    7  C15         0       5.022  72.331  20.561  1.00  0.00     0.049 C 
HETATM    8  C16         0       5.040  70.975  20.862  1.00  0.00     0.093 C 
HETATM    9  C18         0       6.289  70.372  20.776  1.00  0.00     0.048 C 
HETATM   10  C19         0       7.447  71.132  20.860  1.00  0.00     0.096 C 
HETATM   11  C21         0       7.359  72.489  21.013  1.00  0.00     0.084 C 
ENDROOT
BRANCH  10  12
HETATM   12  O20         0       8.644  70.513  21.209  1.00  0.00    -0.359 OA
HETATM   13  H20         0       8.640  69.924  21.953  1.00  0.00     0.218 HD
ENDBRANCH  10  12
BRANCH   4  14
HETATM   14  C5          0       6.721  76.517  21.654  1.00  0.00     0.025 C 
HETATM   15  C6          0       7.029  77.687  20.975  1.00  0.00     0.004 C 
HETATM   16  C7          0       6.093  78.716  21.006  1.00  0.00     0.026 C 
HETATM   17  C8          0       4.950  78.638  21.794  1.00  0.00     0.112 C 
HETATM   18  C10         0       5.047  77.768  22.872  1.00  0.00     0.112 C 
HETATM   19  C12         0       5.930  76.698  22.780  1.00  0.00     0.028 C 
BRANCH  17  20
HETATM   20  O9          0       3.766  79.226  21.386  1.00  0.00    -0.357 OA
HETATM   21  H9          0       3.551  79.404  20.477  1.00  0.00     0.218 HD
ENDBRANCH  17  20
BRANCH  18  22
HETATM   22  O11         0       4.010  77.792  23.795  1.00  0.00    -0.357 OA
HETATM   23  H11         0       4.042  78.471  24.459  1.00  0.00     0.218 HD
ENDBRANCH  18  22
ENDBRANCH   4  14
BRANCH   8  24
HETATM   24  O17         0       3.970  70.359  21.520  1.00  0.00    -0.359 OA
HETATM   25  H17         0       4.045  70.051  22.416  1.00  0.00     0.218 HD
ENDBRANCH   8  24
TORSDOF 5
ENDMDL
MODEL 2
REMARK VINA RESULT:      -3.3      3.855      5.958
REMARK  5 active torsions:
REMARK  status: ('A' for Active; 'I' for Inactive)
REMARK    1  A    between atoms: C4_4  and  C5_5 
REMARK    2  A    between atoms: C8_8  and  O9_9 
REMARK    3  A    between atoms: C10_11  and  O11_12 
REMARK    4  A    between atoms: C16_18  and  O17_19 
REMARK    5  A    between atoms: C19_22  and  O20_23 
ROOT
HETATM    1  O1          0       6.412  77.120  20.607  1.00  0.00    -0.286 OA
HETATM    2  C2          0       7.505  76.644  21.019  1.00  0.00     0.201 C 
HETATM    3  C3          0       8.688  77.363  21.013  1.00  0.00     0.067 C 
HETATM    4  C4          0       9.897  76.781  21.376  1.00  0.00     0.103 C 
HETATM    5  O13         0       9.903  75.515  21.754  1.00  0.00    -0.307 OA
HETATM    6  C14         0       8.816  74.776  21.743  1.00  0.00     0.107 C 
HETATM    7  C15         0       8.873  73.390  21.745  1.00  0.00     0.049 C 
HETATM    8  C16         0       7.748  72.620  21.477  1.00  0.00     0.093 C 
HETATM    9  C18         0       6.534  73.245  21.738  1.00  0.00     0.048 C 
HETATM   10  C19         0       6.450  74.630  21.790  1.00  0.00     0.096 C 
HETATM   11  C21         0       7.574  75.386  21.598  1.00  0.00     0.084 C 
ENDROOT
BRANCH  10  12
HETATM   12  O20         0       5.213  75.243  21.614  1.00  0.00    -0.359 OA
HETATM   13  H20         0       4.625  75.280  22.358  1.00  0.00     0.218 HD
ENDBRANCH  10  12
BRANCH   4  14
HETATM   14  C5          0      11.115  77.350  20.796  1.00  0.00     0.025 C 
HETATM   15  C6          0      11.495  78.670  20.991  1.00  0.00     0.004 C 
HETATM   16  C7          0      12.851  78.932  21.159  1.00  0.00     0.026 C 
HETATM   17  C8          0      13.811  77.937  21.004  1.00  0.00     0.112 C 
HETATM   18  C10         0      13.414  76.865  20.216  1.00  0.00     0.112 C 
HETATM   19  C12         0      12.057  76.573  20.134  1.00  0.00     0.028 C 
BRANCH  17  20
HETATM   20  O9          0      14.970  77.947  21.760  1.00  0.00    -0.357 OA
HETATM   21  H9          0      15.204  77.264  22.377  1.00  0.00     0.218 HD
ENDBRANCH  17  20
BRANCH  18  22
HETATM   22  O11         0      14.390  75.940  19.875  1.00  0.00    -0.357 OA
HETATM   23  H11         0      14.361  75.590  18.992  1.00  0.00     0.218 HD
ENDBRANCH  18  22
ENDBRANCH   4  14
BRANCH   8  24
HETATM   24  O17         0       7.826  71.461  20.697  1.00  0.00    -0.359 OA
HETATM   25  H17         0       8.499  71.348  20.037  1.00  0.00     0.218 HD
ENDBRANCH   8  24
TORSDOF 5
ENDMDL
MODEL 3
REMARK VINA RESULT:      -3.3      2.168      3.384
REMARK  5 active torsions:
REMARK  status: ('A' for Active; 'I' for Inactive)
REMARK    1  A    between atoms: C4_4  and  C5_5 
REMARK    2  A    between atoms: C8_8  and  O9_9 
REMARK    3  A    between atoms: C10_11  and  O11_12 
REMARK    4  A    between atoms: C16_18  and  O17_19 
REMARK    5  A    between atoms: C19_22  and  O20_23 
ROOT
HETATM    1  O1          0       7.047  70.430  20.589  1.00  0.00    -0.286 OA
HETATM    2  C2          0       6.512  71.572  20.632  1.00  0.00     0.201 C 
HETATM    3  C3          0       7.247  72.745  20.645  1.00  0.00     0.067 C 
HETATM    4  C4          0       6.636  73.985  20.796  1.00  0.00     0.103 C 
HETATM    5  O13         0       5.321  74.036  20.909  1.00  0.00    -0.307 OA
HETATM    6  C14         0       4.580  72.950  20.940  1.00  0.00     0.107 C 
HETATM    7  C15         0       3.289  72.961  21.449  1.00  0.00     0.049 C 
HETATM    8  C16         0       2.608  71.778  21.715  1.00  0.00     0.093 C 
HETATM    9  C18         0       3.035  70.678  20.981  1.00  0.00     0.048 C 
HETATM   10  C19         0       4.304  70.654  20.419  1.00  0.00     0.096 C 
HETATM   11  C21         0       5.136  71.729  20.574  1.00  0.00     0.084 C 
ENDROOT
BRANCH  10  12
HETATM   12  O20         0       4.875  69.431  20.081  1.00  0.00    -0.359 OA
HETATM   13  H20         0       5.432  69.007  20.722  1.00  0.00     0.218 HD
ENDBRANCH  10  12
BRANCH   4  14
HETATM   14  C5          0       7.437  75.057  21.391  1.00  0.00     0.025 C 
HETATM   15  C6          0       8.669  74.834  21.988  1.00  0.00     0.004 C 
HETATM   16  C7          0       9.661  75.789  21.794  1.00  0.00     0.026 C 
HETATM   17  C8          0       9.401  76.991  21.145  1.00  0.00     0.112 C 
HETATM   18  C10         0       8.068  77.382  21.161  1.00  0.00     0.112 C 
HETATM   19  C12         0       7.093  76.398  21.270  1.00  0.00     0.028 C 
BRANCH  17  20
HETATM   20  O9          0      10.372  77.606  20.375  1.00  0.00    -0.357 OA
HETATM   21  H9          0      10.181  78.219  19.675  1.00  0.00     0.218 HD
ENDBRANCH  17  20
BRANCH  18  22
HETATM   22  O11         0       7.782  78.657  20.696  1.00  0.00    -0.357 OA
HETATM   23  H11         0       8.202  79.382  21.143  1.00  0.00     0.218 HD
ENDBRANCH  18  22
ENDBRANCH   4  14
BRANCH   8  24
HETATM   24  O17         0       1.808  71.638  22.854  1.00  0.00    -0.359 OA
HETATM   25  H17         0       1.231  72.333  23.147  1.00  0.00     0.218 HD
ENDBRANCH   8  24
TORSDOF 5
ENDMDL
MODEL 4
REMARK VINA RESULT:      -3.0      1.207      1.675
REMARK  5 active torsions:
REMARK  status: ('A' for Active; 'I' for Inactive)
REMARK    1  A    between atoms: C4_4  and  C5_5 
REMARK    2  A    between atoms: C8_8  and  O9_9 
REMARK    3  A    between atoms: C10_11  and  O11_12 
REMARK    4  A    between atoms: C16_18  and  O17_19 
REMARK    5  A    between atoms: C19_22  and  O20_23 
ROOT
HETATM    1  O1          0       8.027  70.907  21.357  1.00  0.00    -0.286 OA
HETATM    2  C2          0       7.127  71.755  21.109  1.00  0.00     0.201 C 
HETATM    3  C3          0       7.364  73.119  21.095  1.00  0.00     0.067 C 
HETATM    4  C4          0       6.333  74.035  20.919  1.00  0.00     0.103 C 
HETATM    5  O13         0       5.104  73.583  20.742  1.00  0.00    -0.307 OA
HETATM    6  C14         0       4.819  72.300  20.784  1.00  0.00     0.107 C 
HETATM    7  C15         0       3.526  71.845  21.000  1.00  0.00     0.049 C 
HETATM    8  C16         0       3.270  70.511  21.296  1.00  0.00     0.093 C 
HETATM    9  C18         0       4.234  69.615  20.849  1.00  0.00     0.048 C 
HETATM   10  C19         0       5.526  70.046  20.578  1.00  0.00     0.096 C 
HETATM   11  C21         0       5.849  71.366  20.737  1.00  0.00     0.084 C 
ENDROOT
BRANCH  10  12
HETATM   12  O20         0       6.563  69.118  20.562  1.00  0.00    -0.359 OA
HETATM   13  H20         0       6.951  68.870  21.392  1.00  0.00     0.218 HD
ENDBRANCH  10  12
BRANCH   4  14
HETATM   14  C5          0       6.517  75.368  21.496  1.00  0.00     0.025 C 
HETATM   15  C6          0       7.438  76.280  21.003  1.00  0.00     0.004 C 
HETATM   16  C7          0       7.068  77.621  20.977  1.00  0.00     0.026 C 
HETATM   17  C8          0       5.876  78.060  21.544  1.00  0.00     0.112 C 
HETATM   18  C10         0       5.362  77.227  22.529  1.00  0.00     0.112 C 
HETATM   19  C12         0       5.680  75.874  22.482  1.00  0.00     0.028 C 
BRANCH  17  20
HETATM   20  O9          0       5.182  79.126  21.000  1.00  0.00    -0.357 OA
HETATM   21  H9          0       4.589  79.048  20.261  1.00  0.00     0.218 HD
ENDBRANCH  17  20
BRANCH  18  22
HETATM   22  O11         0       4.282  77.706  23.257  1.00  0.00    -0.357 OA
HETATM   23  H11         0       3.528  78.005  22.762  1.00  0.00     0.218 HD
ENDBRANCH  18  22
ENDBRANCH   4  14
BRANCH   8  24
HETATM   24  O17         0       2.312  70.147  22.248  1.00  0.00    -0.359 OA
HETATM   25  H17         0       1.901  69.290  22.240  1.00  0.00     0.218 HD
ENDBRANCH   8  24
TORSDOF 5
ENDMDL
MODEL 5
REMARK VINA RESULT:      -3.0      1.826      6.405
REMARK  5 active torsions:
REMARK  status: ('A' for Active; 'I' for Inactive)
REMARK    1  A    between atoms: C4_4  and  C5_5 
REMARK    2  A    between atoms: C8_8  and  O9_9 
REMARK    3  A    between atoms: C10_11  and  O11_12 
REMARK    4  A    between atoms: C16_18  and  O17_19 
REMARK    5  A    between atoms: C19_22  and  O20_23 
ROOT
HETATM    1  O1          0       8.463  75.641  23.701  1.00  0.00    -0.286 OA
HETATM    2  C2          0       7.337  75.618  23.134  1.00  0.00     0.201 C 
HETATM    3  C3          0       6.746  74.449  22.686  1.00  0.00     0.067 C 
HETATM    4  C4          0       5.552  74.462  21.974  1.00  0.00     0.103 C 
HETATM    5  O13         0       4.964  75.623  21.742  1.00  0.00    -0.307 OA
HETATM    6  C14         0       5.501  76.765  22.113  1.00  0.00     0.107 C 
HETATM    7  C15         0       5.120  77.971  21.543  1.00  0.00     0.049 C 
HETATM    8  C16         0       5.857  79.131  21.748  1.00  0.00     0.093 C 
HETATM    9  C18         0       6.617  79.145  22.911  1.00  0.00     0.048 C 
HETATM   10  C19         0       6.977  77.958  23.533  1.00  0.00     0.096 C 
HETATM   11  C21         0       6.566  76.764  23.007  1.00  0.00     0.084 C 
ENDROOT
BRANCH  10  12
HETATM   12  O20         0       8.063  77.948  24.404  1.00  0.00    -0.359 OA
HETATM   13  H20         0       8.471  78.778  24.616  1.00  0.00     0.218 HD
ENDBRANCH  10  12
BRANCH   4  14
HETATM   14  C5          0       5.311  73.353  21.049  1.00  0.00     0.025 C 
HETATM   15  C6          0       6.267  72.902  20.151  1.00  0.00     0.004 C 
HETATM   16  C7          0       6.349  71.530  19.932  1.00  0.00     0.026 C 
HETATM   17  C8          0       5.426  70.647  20.482  1.00  0.00     0.112 C 
HETATM   18  C10         0       4.202  71.217  20.807  1.00  0.00     0.112 C 
HETATM   19  C12         0       4.163  72.574  21.104  1.00  0.00     0.028 C 
BRANCH  17  20
HETATM   20  O9          0       5.803  69.370  20.857  1.00  0.00    -0.357 OA
HETATM   21  H9          0       5.408  68.893  21.578  1.00  0.00     0.218 HD
ENDBRANCH  17  20
BRANCH  18  22
HETATM   22  O11         0       3.185  70.350  21.180  1.00  0.00    -0.357 OA
HETATM   23  H11         0       2.758  69.862  20.485  1.00  0.00     0.218 HD
ENDBRANCH  18  22
ENDBRANCH   4  14
BRANCH   8  24
HETATM   24  O17         0       6.077  80.047  20.714  1.00  0.00    -0.359 OA
HETATM   25  H17         0       5.789  79.876  19.825  1.00  0.00     0.218 HD
ENDBRANCH   8  24
TORSDOF 5
ENDMDL
MODEL 6
REMARK VINA RESULT:      -3.0      2.811      6.078
REMARK  5 active torsions:
REMARK  status: ('A' for Active; 'I' for Inactive)
REMARK    1  A    between atoms: C4_4  and  C5_5 
REMARK    2  A    between atoms: C8_8  and  O9_9 
REMARK    3  A    between atoms: C10_11  and  O11_12 
REMARK    4  A    between atoms: C16_18  and  O17_19 
REMARK    5  A    between atoms: C19_22  and  O20_23 
ROOT
HETATM    1  O1          0      11.047  72.921  22.574  1.00  0.00    -0.286 OA
HETATM    2  C2          0       9.977  73.519  22.275  1.00  0.00     0.201 C 
HETATM    3  C3          0       8.794  72.851  22.006  1.00  0.00     0.067 C 
HETATM    4  C4          0       7.657  73.528  21.579  1.00  0.00     0.103 C 
HETATM    5  O13         0       7.711  74.842  21.449  1.00  0.00    -0.307 OA
HETATM    6  C14         0       8.819  75.519  21.656  1.00  0.00     0.107 C 
HETATM    7  C15         0       8.998  76.799  21.150  1.00  0.00     0.049 C 
HETATM    8  C16         0      10.248  77.406  21.150  1.00  0.00     0.093 C 
HETATM    9  C18         0      11.131  76.932  22.112  1.00  0.00     0.048 C 
HETATM   10  C19         0      10.954  75.675  22.674  1.00  0.00     0.096 C 
HETATM   11  C21         0       9.893  74.903  22.289  1.00  0.00     0.084 C 
ENDROOT
BRANCH  10  12
HETATM   12  O20         0      12.036  75.042  23.279  1.00  0.00    -0.359 OA
HETATM   13  H20         0      12.711  75.587  23.665  1.00  0.00     0.218 HD
ENDBRANCH  10  12
BRANCH   4  14
HETATM   14  C5          0       6.698  72.778  20.765  1.00  0.00     0.025 C 
HETATM   15  C6          0       7.070  71.719  19.949  1.00  0.00     0.004 C 
HETATM   16  C7          0       6.208  70.630  19.875  1.00  0.00     0.026 C 
HETATM   17  C8          0       4.957  70.646  20.482  1.00  0.00     0.112 C 
HETATM   18  C10         0       4.439  71.915  20.707  1.00  0.00     0.112 C 
HETATM   19  C12         0       5.326  72.973  20.863  1.00  0.00     0.028 C 
BRANCH  17  20
HETATM   20  O9          0       4.404  69.488  20.998  1.00  0.00    -0.357 OA
HETATM   21  H9          0       4.200  68.722  20.474  1.00  0.00     0.218 HD
ENDBRANCH  17  20
BRANCH  18  22
HETATM   22  O11         0       3.121  71.988  21.135  1.00  0.00    -0.357 OA
HETATM   23  H11         0       2.685  72.828  21.043  1.00  0.00     0.218 HD
ENDBRANCH  18  22
ENDBRANCH   4  14
BRANCH   8  24
HETATM   24  O17         0      10.685  78.175  20.065  1.00  0.00    -0.359 OA
HETATM   25  H17         0      10.073  78.608  19.482  1.00  0.00     0.218 HD
ENDBRANCH   8  24
TORSDOF 5
ENDMDL
MODEL 7
REMARK VINA RESULT:      -2.8      3.396      4.812
REMARK  5 active torsions:
REMARK  status: ('A' for Active; 'I' for Inactive)
REMARK    1  A    between atoms: C4_4  and  C5_5 
REMARK    2  A    between atoms: C8_8  and  O9_9 
REMARK    3  A    between atoms: C10_11  and  O11_12 
REMARK    4  A    between atoms: C16_18  and  O17_19 
REMARK    5  A    between atoms: C19_22  and  O20_23 
ROOT
HETATM    1  O1          0       7.408  70.758  24.391  1.00  0.00    -0.286 OA
HETATM    2  C2          0       7.719  71.401  23.351  1.00  0.00     0.201 C 
HETATM    3  C3          0       8.952  72.007  23.184  1.00  0.00     0.067 C 
HETATM    4  C4          0       9.232  72.796  22.074  1.00  0.00     0.103 C 
HETATM    5  O13         0       8.298  72.949  21.152  1.00  0.00    -0.307 OA
HETATM    6  C14         0       7.098  72.426  21.279  1.00  0.00     0.107 C 
HETATM    7  C15         0       6.015  72.894  20.549  1.00  0.00     0.049 C 
HETATM    8  C16         0       4.715  72.520  20.865  1.00  0.00     0.093 C 
HETATM    9  C18         0       4.600  71.312  21.541  1.00  0.00     0.048 C 
HETATM   10  C19         0       5.678  70.791  22.244  1.00  0.00     0.096 C 
HETATM   11  C21         0       6.869  71.464  22.257  1.00  0.00     0.084 C 
ENDROOT
BRANCH  10  12
HETATM   12  O20         0       5.448  69.852  23.244  1.00  0.00    -0.359 OA
HETATM   13  H20         0       5.798  70.028  24.109  1.00  0.00     0.218 HD
ENDBRANCH  10  12
BRANCH   4  14
HETATM   14  C5          0      10.241  73.845  22.235  1.00  0.00     0.025 C 
HETATM   15  C6          0      11.565  73.572  22.550  1.00  0.00     0.004 C 
HETATM   16  C7          0      12.545  74.347  21.939  1.00  0.00     0.026 C 
HETATM   17  C8          0      12.221  75.442  21.145  1.00  0.00     0.112 C 
HETATM   18  C10         0      10.974  75.996  21.403  1.00  0.00     0.112 C 
HETATM   19  C12         0       9.985  75.177  21.936  1.00  0.00     0.028 C 
BRANCH  17  20
HETATM   20  O9          0      13.005  75.788  20.059  1.00  0.00    -0.357 OA
HETATM   21  H9          0      13.680  75.226  19.695  1.00  0.00     0.218 HD
ENDBRANCH  17  20
BRANCH  18  22
HETATM   22  O11         0      10.678  77.198  20.777  1.00  0.00    -0.357 OA
HETATM   23  H11         0      11.224  77.944  20.998  1.00  0.00     0.218 HD
ENDBRANCH  18  22
ENDBRANCH   4  14
BRANCH   8  24
HETATM   24  O17         0       3.659  73.437  20.813  1.00  0.00    -0.359 OA
HETATM   25  H17         0       3.087  73.583  21.557  1.00  0.00     0.218 HD
ENDBRANCH   8  24
TORSDOF 5
ENDMDL
MODEL 8
REMARK VINA RESULT:      -2.8      2.145      3.307
REMARK  5 active torsions:
REMARK  status: ('A' for Active; 'I' for Inactive)
REMARK    1  A    between atoms: C4_4  and  C5_5 
REMARK    2  A    between atoms: C8_8  and  O9_9 
REMARK    3  A    between atoms: C10_11  and  O11_12 
REMARK    4  A    between atoms: C16_18  and  O17_19 
REMARK    5  A    between atoms: C19_22  and  O20_23 
ROOT
HETATM    1  O1          0       6.837  70.312  20.544  1.00  0.00    -0.286 OA
HETATM    2  C2          0       6.350  71.474  20.596  1.00  0.00     0.201 C 
HETATM    3  C3          0       7.130  72.617  20.573  1.00  0.00     0.067 C 
HETATM    4  C4          0       6.576  73.882  20.735  1.00  0.00     0.103 C 
HETATM    5  O13         0       5.268  73.986  20.894  1.00  0.00    -0.307 OA
HETATM    6  C14         0       4.486  72.930  20.960  1.00  0.00     0.107 C 
HETATM    7  C15         0       3.215  72.996  21.513  1.00  0.00     0.049 C 
HETATM    8  C16         0       2.498  71.844  21.812  1.00  0.00     0.093 C 
HETATM    9  C18         0       2.854  70.722  21.074  1.00  0.00     0.048 C 
HETATM   10  C19         0       4.101  70.643  20.468  1.00  0.00     0.096 C 
HETATM   11  C21         0       4.980  71.686  20.584  1.00  0.00     0.084 C 
ENDROOT
BRANCH  10  12
HETATM   12  O20         0       4.611  69.396  20.120  1.00  0.00    -0.359 OA
HETATM   13  H20         0       4.104  68.859  19.523  1.00  0.00     0.218 HD
ENDBRANCH  10  12
BRANCH   4  14
HETATM   14  C5          0       7.438  74.925  21.293  1.00  0.00     0.025 C 
HETATM   15  C6          0       7.203  76.278  21.099  1.00  0.00     0.004 C 
HETATM   16  C7          0       7.452  77.136  22.166  1.00  0.00     0.026 C 
HETATM   17  C8          0       8.041  76.684  23.342  1.00  0.00     0.112 C 
HETATM   18  C10         0       8.793  75.525  23.206  1.00  0.00     0.112 C 
HETATM   19  C12         0       8.468  74.644  22.182  1.00  0.00     0.028 C 
BRANCH  17  20
HETATM   20  O9          0       7.708  77.246  24.562  1.00  0.00    -0.357 OA
HETATM   21  H9          0       7.721  78.180  24.734  1.00  0.00     0.218 HD
ENDBRANCH  17  20
BRANCH  18  22
HETATM   22  O11         0       9.553  75.137  24.300  1.00  0.00    -0.357 OA
HETATM   23  H11         0      10.491  75.280  24.245  1.00  0.00     0.218 HD
ENDBRANCH  18  22
ENDBRANCH   4  14
BRANCH   8  24
HETATM   24  O17         0       1.734  71.744  22.980  1.00  0.00    -0.359 OA
HETATM   25  H17         0       1.909  72.286  23.740  1.00  0.00     0.218 HD
ENDBRANCH   8  24
TORSDOF 5
ENDMDL
MODEL 9
REMARK VINA RESULT:      -2.8      2.794      6.766
REMARK  5 active torsions:
REMARK  status: ('A' for Active; 'I' for Inactive)
REMARK    1  A    between atoms: C4_4  and  C5_5 
REMARK    2  A    between atoms: C8_8  and  O9_9 
REMARK    3  A    between atoms: C10_11  and  O11_12 
REMARK    4  A    between atoms: C16_18  and  O17_19 
REMARK    5  A    between atoms: C19_22  and  O20_23 
ROOT
HETATM    1  O1          0       5.803  73.872  23.230  1.00  0.00    -0.286 OA
HETATM    2  C2          0       6.691  74.524  22.616  1.00  0.00     0.201 C 
HETATM    3  C3          0       7.952  74.015  22.358  1.00  0.00     0.067 C 
HETATM    4  C4          0       8.945  74.791  21.770  1.00  0.00     0.103 C 
HETATM    5  O13         0       8.661  76.037  21.435  1.00  0.00    -0.307 OA
HETATM    6  C14         0       7.492  76.582  21.692  1.00  0.00     0.107 C 
HETATM    7  C15         0       7.316  77.958  21.718  1.00  0.00     0.049 C 
HETATM    8  C16         0       6.158  78.527  22.234  1.00  0.00     0.093 C 
HETATM    9  C18         0       5.039  77.705  22.210  1.00  0.00     0.048 C 
HETATM   10  C19         0       5.178  76.326  22.137  1.00  0.00     0.096 C 
HETATM   11  C21         0       6.427  75.772  22.071  1.00  0.00     0.084 C 
ENDROOT
BRANCH  10  12
HETATM   12  O20         0       4.125  75.513  22.546  1.00  0.00    -0.359 OA
HETATM   13  H20         0       3.293  75.602  22.096  1.00  0.00     0.218 HD
ENDBRANCH  10  12
BRANCH   4  14
HETATM   14  C5          0      10.334  74.440  22.070  1.00  0.00     0.025 C 
HETATM   15  C6          0      10.691  73.267  22.719  1.00  0.00     0.004 C 
HETATM   16  C7          0      11.845  72.619  22.292  1.00  0.00     0.026 C 
HETATM   17  C8          0      12.691  73.185  21.345  1.00  0.00     0.112 C 
HETATM   18  C10         0      12.604  74.567  21.241  1.00  0.00     0.112 C 
HETATM   19  C12         0      11.408  75.182  21.594  1.00  0.00     0.028 C 
BRANCH  17  20
HETATM   20  O9          0      13.388  72.391  20.452  1.00  0.00    -0.357 OA
HETATM   21  H9          0      13.404  72.540  19.513  1.00  0.00     0.218 HD
ENDBRANCH  17  20
BRANCH  18  22
HETATM   22  O11         0      13.554  75.200  20.452  1.00  0.00    -0.357 OA
HETATM   23  H11         0      13.857  76.052  20.743  1.00  0.00     0.218 HD
ENDBRANCH  18  22
ENDBRANCH   4  14
BRANCH   8  24
HETATM   24  O17         0       6.202  79.689  23.013  1.00  0.00    -0.359 OA
HETATM   25  H17         0       5.909  79.695  23.917  1.00  0.00     0.218 HD
ENDBRANCH   8  24
TORSDOF 5
ENDMDL
