MODEL 1
REMARK VINA RESULT:      -6.1      0.000      0.000
REMARK  5 active torsions:
REMARK  status: ('A' for Active; 'I' for Inactive)
REMARK    1  A    between atoms: C4_4  and  C5_5 
REMARK    2  A    between atoms: C8_8  and  O9_9 
REMARK    3  A    between atoms: C10_11  and  O11_12 
REMARK    4  A    between atoms: C16_18  and  O17_19 
REMARK    5  A    between atoms: C19_22  and  O20_23 
ROOT
HETATM    1  O1          0      33.030  92.054 -26.886  1.00  0.00    -0.286 OA
HETATM    2  C2          0      32.990  92.793 -25.865  1.00  0.00     0.201 C 
HETATM    3  C3          0      34.104  93.447 -25.367  1.00  0.00     0.067 C 
HETATM    4  C4          0      34.054  94.172 -24.183  1.00  0.00     0.103 C 
HETATM    5  O13         0      32.906  94.251 -23.534  1.00  0.00    -0.307 OA
HETATM    6  C14         0      31.828  93.619 -23.943  1.00  0.00     0.107 C 
HETATM    7  C15         0      30.762  93.364 -23.091  1.00  0.00     0.049 C 
HETATM    8  C16         0      29.747  92.485 -23.447  1.00  0.00     0.093 C 
HETATM    9  C18         0      29.572  92.314 -24.815  1.00  0.00     0.048 C 
HETATM   10  C19         0      30.602  92.604 -25.700  1.00  0.00     0.096 C 
HETATM   11  C21         0      31.794  93.077 -25.223  1.00  0.00     0.084 C 
ENDROOT
BRANCH  10  12
HETATM   12  O20         0      30.587  92.037 -26.971  1.00  0.00    -0.359 OA
HETATM   13  H20         0      29.797  91.589 -27.249  1.00  0.00     0.218 HD
ENDBRANCH  10  12
BRANCH   4  14
HETATM   14  C5          0      35.301  94.307 -23.427  1.00  0.00     0.025 C 
HETATM   15  C6          0      35.438  93.870 -22.118  1.00  0.00     0.004 C 
HETATM   16  C7          0      36.649  93.287 -21.757  1.00  0.00     0.026 C 
HETATM   17  C8          0      37.734  93.261 -22.626  1.00  0.00     0.112 C 
HETATM   18  C10         0      37.713  94.241 -23.609  1.00  0.00     0.112 C 
HETATM   19  C12         0      36.482  94.746 -24.012  1.00  0.00     0.028 C 
BRANCH  17  20
HETATM   20  O9          0      38.627  92.204 -22.614  1.00  0.00    -0.357 OA
HETATM   21  H9          0      39.483  92.231 -23.025  1.00  0.00     0.218 HD
ENDBRANCH  17  20
BRANCH  18  22
HETATM   22  O11         0      38.857  94.381 -24.382  1.00  0.00    -0.357 OA
HETATM   23  H11         0      39.560  94.906 -24.019  1.00  0.00     0.218 HD
ENDBRANCH  18  22
ENDBRANCH   4  14
BRANCH   8  24
HETATM   24  O17         0      29.190  91.599 -22.518  1.00  0.00    -0.359 OA
HETATM   25  H17         0      28.396  91.112 -22.707  1.00  0.00     0.218 HD
ENDBRANCH   8  24
TORSDOF 5
ENDMDL
MODEL 2
REMARK VINA RESULT:      -5.8      9.642     12.494
REMARK  5 active torsions:
REMARK  status: ('A' for Active; 'I' for Inactive)
REMARK    1  A    between atoms: C4_4  and  C5_5 
REMARK    2  A    between atoms: C8_8  and  O9_9 
REMARK    3  A    between atoms: C10_11  and  O11_12 
REMARK    4  A    between atoms: C16_18  and  O17_19 
REMARK    5  A    between atoms: C19_22  and  O20_23 
ROOT
HETATM    1  O1          0      34.117  92.067 -12.997  1.00  0.00    -0.286 OA
HETATM    2  C2          0      33.051  92.646 -13.343  1.00  0.00     0.201 C 
HETATM    3  C3          0      31.843  92.441 -12.698  1.00  0.00     0.067 C 
HETATM    4  C4          0      30.664  93.012 -13.162  1.00  0.00     0.103 C 
HETATM    5  O13         0      30.710  93.783 -14.234  1.00  0.00    -0.307 OA
HETATM    6  C14         0      31.824  93.980 -14.905  1.00  0.00     0.107 C 
HETATM    7  C15         0      31.816  94.437 -16.215  1.00  0.00     0.049 C 
HETATM    8  C16         0      32.964  94.400 -16.999  1.00  0.00     0.093 C 
HETATM    9  C18         0      34.159  94.406 -16.290  1.00  0.00     0.048 C 
HETATM   10  C19         0      34.194  94.000 -14.963  1.00  0.00     0.096 C 
HETATM   11  C21         0      33.039  93.606 -14.343  1.00  0.00     0.084 C 
ENDROOT
BRANCH  10  12
HETATM   12  O20         0      35.404  93.595 -14.407  1.00  0.00    -0.359 OA
HETATM   13  H20         0      36.014  94.268 -14.131  1.00  0.00     0.218 HD
ENDBRANCH  10  12
BRANCH   4  14
HETATM   14  C5          0      29.414  92.316 -12.849  1.00  0.00     0.025 C 
HETATM   15  C6          0      29.377  91.107 -12.169  1.00  0.00     0.004 C 
HETATM   16  C7          0      28.350  90.915 -11.250  1.00  0.00     0.026 C 
HETATM   17  C8          0      27.319  91.837 -11.106  1.00  0.00     0.112 C 
HETATM   18  C10         0      27.101  92.641 -12.217  1.00  0.00     0.112 C 
HETATM   19  C12         0      28.168  92.885 -13.074  1.00  0.00     0.028 C 
BRANCH  17  20
HETATM   20  O9          0      26.725  92.050  -9.875  1.00  0.00    -0.357 OA
HETATM   21  H9          0      25.922  91.624  -9.595  1.00  0.00     0.218 HD
ENDBRANCH  17  20
BRANCH  18  22
HETATM   22  O11         0      25.969  93.444 -12.200  1.00  0.00    -0.357 OA
HETATM   23  H11         0      25.353  93.302 -11.491  1.00  0.00     0.218 HD
ENDBRANCH  18  22
ENDBRANCH   4  14
BRANCH   8  24
HETATM   24  O17         0      32.912  94.046 -18.351  1.00  0.00    -0.359 OA
HETATM   25  H17         0      32.415  93.294 -18.652  1.00  0.00     0.218 HD
ENDBRANCH   8  24
TORSDOF 5
ENDMDL
MODEL 3
REMARK VINA RESULT:      -5.8     11.858     12.866
REMARK  5 active torsions:
REMARK  status: ('A' for Active; 'I' for Inactive)
REMARK    1  A    between atoms: C4_4  and  C5_5 
REMARK    2  A    between atoms: C8_8  and  O9_9 
REMARK    3  A    between atoms: C10_11  and  O11_12 
REMARK    4  A    between atoms: C16_18  and  O17_19 
REMARK    5  A    between atoms: C19_22  and  O20_23 
ROOT
HETATM    1  O1          0      33.096  92.243 -11.658  1.00  0.00    -0.286 OA
HETATM    2  C2          0      32.133  92.915 -12.119  1.00  0.00     0.201 C 
HETATM    3  C3          0      32.272  94.219 -12.562  1.00  0.00     0.067 C 
HETATM    4  C4          0      31.175  94.971 -12.969  1.00  0.00     0.103 C 
HETATM    5  O13         0      29.979  94.411 -12.948  1.00  0.00    -0.307 OA
HETATM    6  C14         0      29.787  93.189 -12.502  1.00  0.00     0.107 C 
HETATM    7  C15         0      28.534  92.745 -12.104  1.00  0.00     0.049 C 
HETATM    8  C16         0      28.379  91.556 -11.401  1.00  0.00     0.093 C 
HETATM    9  C18         0      29.395  90.627 -11.589  1.00  0.00     0.048 C 
HETATM   10  C19         0      30.648  91.031 -12.032  1.00  0.00     0.096 C 
HETATM   11  C21         0      30.879  92.352 -12.301  1.00  0.00     0.084 C 
ENDROOT
BRANCH  10  12
HETATM   12  O20         0      31.747  90.209 -11.804  1.00  0.00    -0.359 OA
HETATM   13  H20         0      32.206  89.860 -12.558  1.00  0.00     0.218 HD
ENDBRANCH  10  12
BRANCH   4  14
HETATM   14  C5          0      31.275  96.426 -12.839  1.00  0.00     0.025 C 
HETATM   15  C6          0      30.456  97.163 -11.995  1.00  0.00     0.004 C 
HETATM   16  C7          0      31.028  98.234 -11.316  1.00  0.00     0.026 C 
HETATM   17  C8          0      32.334  98.643 -11.566  1.00  0.00     0.112 C 
HETATM   18  C10         0      32.825  98.284 -12.814  1.00  0.00     0.112 C 
HETATM   19  C12         0      32.294  97.158 -13.433  1.00  0.00     0.028 C 
BRANCH  17  20
HETATM   20  O9          0      33.117  99.172 -10.555  1.00  0.00    -0.357 OA
HETATM   21  H9          0      33.643  99.958 -10.651  1.00  0.00     0.218 HD
ENDBRANCH  17  20
BRANCH  18  22
HETATM   22  O11         0      34.046  98.825 -13.188  1.00  0.00    -0.357 OA
HETATM   23  H11         0      34.810  98.267 -13.099  1.00  0.00     0.218 HD
ENDBRANCH  18  22
ENDBRANCH   4  14
BRANCH   8  24
HETATM   24  O17         0      27.468  91.446 -10.345  1.00  0.00    -0.359 OA
HETATM   25  H17         0      27.265  92.184  -9.783  1.00  0.00     0.218 HD
ENDBRANCH   8  24
TORSDOF 5
ENDMDL
MODEL 4
REMARK VINA RESULT:      -5.8      3.208      4.278
REMARK  5 active torsions:
REMARK  status: ('A' for Active; 'I' for Inactive)
REMARK    1  A    between atoms: C4_4  and  C5_5 
REMARK    2  A    between atoms: C8_8  and  O9_9 
REMARK    3  A    between atoms: C10_11  and  O11_12 
REMARK    4  A    between atoms: C16_18  and  O17_19 
REMARK    5  A    between atoms: C19_22  and  O20_23 
ROOT
HETATM    1  O1          0      31.350  95.693 -22.835  1.00  0.00    -0.286 OA
HETATM    2  C2          0      32.347  95.368 -22.135  1.00  0.00     0.201 C 
HETATM    3  C3          0      33.616  95.208 -22.665  1.00  0.00     0.067 C 
HETATM    4  C4          0      34.677  94.750 -21.891  1.00  0.00     0.103 C 
HETATM    5  O13         0      34.462  94.483 -20.615  1.00  0.00    -0.307 OA
HETATM    6  C14         0      33.269  94.582 -20.071  1.00  0.00     0.107 C 
HETATM    7  C15         0      32.952  93.940 -18.882  1.00  0.00     0.049 C 
HETATM    8  C16         0      31.637  93.836 -18.447  1.00  0.00     0.093 C 
HETATM    9  C18         0      30.778  94.814 -18.935  1.00  0.00     0.048 C 
HETATM   10  C19         0      31.087  95.508 -20.096  1.00  0.00     0.096 C 
HETATM   11  C21         0      32.255  95.240 -20.757  1.00  0.00     0.084 C 
ENDROOT
BRANCH  10  12
HETATM   12  O20         0      30.068  96.141 -20.802  1.00  0.00    -0.359 OA
HETATM   13  H20         0      29.366  96.543 -20.306  1.00  0.00     0.218 HD
ENDBRANCH  10  12
BRANCH   4  14
HETATM   14  C5          0      35.759  94.051 -22.585  1.00  0.00     0.025 C 
HETATM   15  C6          0      36.158  94.373 -23.874  1.00  0.00     0.004 C 
HETATM   16  C7          0      37.519  94.326 -24.159  1.00  0.00     0.026 C 
HETATM   17  C8          0      38.441  93.847 -23.235  1.00  0.00     0.112 C 
HETATM   18  C10         0      37.912  92.990 -22.279  1.00  0.00     0.112 C 
HETATM   19  C12         0      36.567  93.115 -21.952  1.00  0.00     0.028 C 
BRANCH  17  20
HETATM   20  O9          0      39.721  94.368 -23.175  1.00  0.00    -0.357 OA
HETATM   21  H9          0      40.150  94.624 -22.366  1.00  0.00     0.218 HD
ENDBRANCH  17  20
BRANCH  18  22
HETATM   22  O11         0      38.815  92.336 -21.453  1.00  0.00    -0.357 OA
HETATM   23  H11         0      38.977  92.724 -20.601  1.00  0.00     0.218 HD
ENDBRANCH  18  22
ENDBRANCH   4  14
BRANCH   8  24
HETATM   24  O17         0      31.156  92.664 -17.853  1.00  0.00    -0.359 OA
HETATM   25  H17         0      31.412  91.804 -18.166  1.00  0.00     0.218 HD
ENDBRANCH   8  24
TORSDOF 5
ENDMDL
MODEL 5
REMARK VINA RESULT:      -5.8     10.418     13.517
REMARK  5 active torsions:
REMARK  status: ('A' for Active; 'I' for Inactive)
REMARK    1  A    between atoms: C4_4  and  C5_5 
REMARK    2  A    between atoms: C8_8  and  O9_9 
REMARK    3  A    between atoms: C10_11  and  O11_12 
REMARK    4  A    between atoms: C16_18  and  O17_19 
REMARK    5  A    between atoms: C19_22  and  O20_23 
ROOT
HETATM    1  O1          0      31.262  89.875 -12.223  1.00  0.00    -0.286 OA
HETATM    2  C2          0      31.039  91.116 -12.166  1.00  0.00     0.201 C 
HETATM    3  C3          0      29.833  91.643 -11.736  1.00  0.00     0.067 C 
HETATM    4  C4          0      29.578  93.008 -11.781  1.00  0.00     0.103 C 
HETATM    5  O13         0      30.523  93.817 -12.228  1.00  0.00    -0.307 OA
HETATM    6  C14         0      31.671  93.365 -12.683  1.00  0.00     0.107 C 
HETATM    7  C15         0      32.484  94.133 -13.504  1.00  0.00     0.049 C 
HETATM    8  C16         0      33.559  93.572 -14.184  1.00  0.00     0.093 C 
HETATM    9  C18         0      34.077  92.417 -13.612  1.00  0.00     0.048 C 
HETATM   10  C19         0      33.306  91.650 -12.749  1.00  0.00     0.096 C 
HETATM   11  C21         0      32.031  92.043 -12.446  1.00  0.00     0.084 C 
ENDROOT
BRANCH  10  12
HETATM   12  O20         0      33.646  90.318 -12.535  1.00  0.00    -0.359 OA
HETATM   13  H20         0      33.870  90.052 -11.651  1.00  0.00     0.218 HD
ENDBRANCH  10  12
BRANCH   4  14
HETATM   14  C5          0      28.179  93.425 -11.902  1.00  0.00     0.025 C 
HETATM   15  C6          0      27.800  94.750 -12.057  1.00  0.00     0.004 C 
HETATM   16  C7          0      26.736  95.020 -12.911  1.00  0.00     0.026 C 
HETATM   17  C8          0      25.987  94.000 -13.488  1.00  0.00     0.112 C 
HETATM   18  C10         0      26.024  92.794 -12.801  1.00  0.00     0.112 C 
HETATM   19  C12         0      27.139  92.512 -12.021  1.00  0.00     0.028 C 
BRANCH  17  20
HETATM   20  O9          0      25.439  94.149 -14.750  1.00  0.00    -0.357 OA
HETATM   21  H9          0      24.516  94.033 -14.942  1.00  0.00     0.218 HD
ENDBRANCH  17  20
BRANCH  18  22
HETATM   22  O11         0      25.150  91.803 -13.224  1.00  0.00    -0.357 OA
HETATM   23  H11         0      25.148  90.991 -12.730  1.00  0.00     0.218 HD
ENDBRANCH  18  22
ENDBRANCH   4  14
BRANCH   8  24
HETATM   24  O17         0      33.863  93.941 -15.499  1.00  0.00    -0.359 OA
HETATM   25  H17         0      34.437  94.673 -15.692  1.00  0.00     0.218 HD
ENDBRANCH   8  24
TORSDOF 5
ENDMDL
MODEL 6
REMARK VINA RESULT:      -5.8     11.253     13.811
REMARK  5 active torsions:
REMARK  status: ('A' for Active; 'I' for Inactive)
REMARK    1  A    between atoms: C4_4  and  C5_5 
REMARK    2  A    between atoms: C8_8  and  O9_9 
REMARK    3  A    between atoms: C10_11  and  O11_12 
REMARK    4  A    between atoms: C16_18  and  O17_19 
REMARK    5  A    between atoms: C19_22  and  O20_23 
ROOT
HETATM    1  O1          0      31.950  94.657 -13.548  1.00  0.00    -0.286 OA
HETATM    2  C2          0      31.171  93.690 -13.327  1.00  0.00     0.201 C 
HETATM    3  C3          0      29.793  93.812 -13.369  1.00  0.00     0.067 C 
HETATM    4  C4          0      28.957  92.757 -13.021  1.00  0.00     0.103 C 
HETATM    5  O13         0      29.501  91.608 -12.662  1.00  0.00    -0.307 OA
HETATM    6  C14         0      30.803  91.450 -12.569  1.00  0.00     0.107 C 
HETATM    7  C15         0      31.364  90.418 -11.829  1.00  0.00     0.049 C 
HETATM    8  C16         0      32.719  90.403 -11.524  1.00  0.00     0.093 C 
HETATM    9  C18         0      33.526  91.120 -12.399  1.00  0.00     0.048 C 
HETATM   10  C19         0      32.989  92.128 -13.188  1.00  0.00     0.096 C 
HETATM   11  C21         0      31.651  92.406 -13.117  1.00  0.00     0.084 C 
ENDROOT
BRANCH  10  12
HETATM   12  O20         0      33.831  93.104 -13.711  1.00  0.00    -0.359 OA
HETATM   13  H20         0      33.434  93.843 -14.157  1.00  0.00     0.218 HD
ENDBRANCH  10  12
BRANCH   4  14
HETATM   14  C5          0      27.626  93.096 -12.513  1.00  0.00     0.025 C 
HETATM   15  C6          0      27.379  93.366 -11.175  1.00  0.00     0.004 C 
HETATM   16  C7          0      26.469  94.375 -10.878  1.00  0.00     0.026 C 
HETATM   17  C8          0      25.729  95.005 -11.873  1.00  0.00     0.112 C 
HETATM   18  C10         0      25.574  94.265 -13.037  1.00  0.00     0.112 C 
HETATM   19  C12         0      26.543  93.320 -13.353  1.00  0.00     0.028 C 
BRANCH  17  20
HETATM   20  O9          0      25.376  96.338 -11.757  1.00  0.00    -0.357 OA
HETATM   21  H9          0      25.911  96.990 -11.318  1.00  0.00     0.218 HD
ENDBRANCH  17  20
BRANCH  18  22
HETATM   22  O11         0      24.691  94.762 -13.985  1.00  0.00    -0.357 OA
HETATM   23  H11         0      25.011  95.458 -14.547  1.00  0.00     0.218 HD
ENDBRANCH  18  22
ENDBRANCH   4  14
BRANCH   8  24
HETATM   24  O17         0      33.179  89.992 -10.268  1.00  0.00    -0.359 OA
HETATM   25  H17         0      33.005  89.120  -9.933  1.00  0.00     0.218 HD
ENDBRANCH   8  24
TORSDOF 5
ENDMDL
MODEL 7
REMARK VINA RESULT:      -5.7      7.866     10.983
REMARK  5 active torsions:
REMARK  status: ('A' for Active; 'I' for Inactive)
REMARK    1  A    between atoms: C4_4  and  C5_5 
REMARK    2  A    between atoms: C8_8  and  O9_9 
REMARK    3  A    between atoms: C10_11  and  O11_12 
REMARK    4  A    between atoms: C16_18  and  O17_19 
REMARK    5  A    between atoms: C19_22  and  O20_23 
ROOT
HETATM    1  O1          0      32.246  95.451 -14.983  1.00  0.00    -0.286 OA
HETATM    2  C2          0      31.486  94.470 -15.211  1.00  0.00     0.201 C 
HETATM    3  C3          0      30.898  94.247 -16.444  1.00  0.00     0.067 C 
HETATM    4  C4          0      29.984  93.218 -16.641  1.00  0.00     0.103 C 
HETATM    5  O13         0      29.692  92.426 -15.624  1.00  0.00    -0.307 OA
HETATM    6  C14         0      30.193  92.616 -14.423  1.00  0.00     0.107 C 
HETATM    7  C15         0      29.607  92.068 -13.292  1.00  0.00     0.049 C 
HETATM    8  C16         0      29.981  92.474 -12.016  1.00  0.00     0.093 C 
HETATM    9  C18         0      31.262  93.006 -11.922  1.00  0.00     0.048 C 
HETATM   10  C19         0      31.896  93.520 -13.044  1.00  0.00     0.096 C 
HETATM   11  C21         0      31.263  93.489 -14.257  1.00  0.00     0.084 C 
ENDROOT
BRANCH  10  12
HETATM   12  O20         0      32.946  94.418 -12.880  1.00  0.00    -0.359 OA
HETATM   13  H20         0      32.741  95.345 -12.862  1.00  0.00     0.218 HD
ENDBRANCH  10  12
BRANCH   4  14
HETATM   14  C5          0      28.993  93.396 -17.703  1.00  0.00     0.025 C 
HETATM   15  C6          0      29.314  93.900 -18.955  1.00  0.00     0.004 C 
HETATM   16  C7          0      28.678  93.341 -20.058  1.00  0.00     0.026 C 
HETATM   17  C8          0      27.658  92.406 -19.916  1.00  0.00     0.112 C 
HETATM   18  C10         0      26.999  92.449 -18.694  1.00  0.00     0.112 C 
HETATM   19  C12         0      27.688  92.934 -17.589  1.00  0.00     0.028 C 
BRANCH  17  20
HETATM   20  O9          0      27.486  91.397 -20.847  1.00  0.00    -0.357 OA
HETATM   21  H9          0      26.747  90.800 -20.847  1.00  0.00     0.218 HD
ENDBRANCH  17  20
BRANCH  18  22
HETATM   22  O11         0      25.857  91.671 -18.569  1.00  0.00    -0.357 OA
HETATM   23  H11         0      25.468  91.614 -17.704  1.00  0.00     0.218 HD
ENDBRANCH  18  22
ENDBRANCH   4  14
BRANCH   8  24
HETATM   24  O17         0      29.036  92.646 -10.999  1.00  0.00    -0.359 OA
HETATM   25  H17         0      28.450  91.945 -10.738  1.00  0.00     0.218 HD
ENDBRANCH   8  24
TORSDOF 5
ENDMDL
MODEL 8
REMARK VINA RESULT:      -5.7      6.290      9.087
REMARK  5 active torsions:
REMARK  status: ('A' for Active; 'I' for Inactive)
REMARK    1  A    between atoms: C4_4  and  C5_5 
REMARK    2  A    between atoms: C8_8  and  O9_9 
REMARK    3  A    between atoms: C10_11  and  O11_12 
REMARK    4  A    between atoms: C16_18  and  O17_19 
REMARK    5  A    between atoms: C19_22  and  O20_23 
ROOT
HETATM    1  O1          0      27.246  92.747 -18.545  1.00  0.00    -0.286 OA
HETATM    2  C2          0      26.740  92.360 -19.634  1.00  0.00     0.201 C 
HETATM    3  C3          0      27.499  92.102 -20.763  1.00  0.00     0.067 C 
HETATM    4  C4          0      26.908  91.776 -21.978  1.00  0.00     0.103 C 
HETATM    5  O13         0      25.590  91.694 -22.042  1.00  0.00    -0.307 OA
HETATM    6  C14         0      24.822  91.966 -21.010  1.00  0.00     0.107 C 
HETATM    7  C15         0      23.477  92.271 -21.160  1.00  0.00     0.049 C 
HETATM    8  C16         0      22.737  92.803 -20.111  1.00  0.00     0.093 C 
HETATM    9  C18         0      23.224  92.513 -18.843  1.00  0.00     0.048 C 
HETATM   10  C19         0      24.554  92.158 -18.662  1.00  0.00     0.096 C 
HETATM   11  C21         0      25.388  92.076 -19.744  1.00  0.00     0.084 C 
ENDROOT
BRANCH  10  12
HETATM   12  O20         0      25.131  92.297 -17.404  1.00  0.00    -0.359 OA
HETATM   13  H20         0      25.639  93.080 -17.231  1.00  0.00     0.218 HD
ENDBRANCH  10  12
BRANCH   4  14
HETATM   14  C5          0      27.653  92.104 -23.195  1.00  0.00     0.025 C 
HETATM   15  C6          0      28.965  91.706 -23.404  1.00  0.00     0.004 C 
HETATM   16  C7          0      29.324  91.315 -24.690  1.00  0.00     0.026 C 
HETATM   17  C8          0      28.447  91.444 -25.762  1.00  0.00     0.112 C 
HETATM   18  C10         0      27.455  92.400 -25.588  1.00  0.00     0.112 C 
HETATM   19  C12         0      27.056  92.709 -24.293  1.00  0.00     0.028 C 
BRANCH  17  20
HETATM   20  O9          0      28.463  90.534 -26.804  1.00  0.00    -0.357 OA
HETATM   21  H9          0      27.791  90.487 -27.474  1.00  0.00     0.218 HD
ENDBRANCH  17  20
BRANCH  18  22
HETATM   22  O11         0      26.673  92.702 -26.694  1.00  0.00    -0.357 OA
HETATM   23  H11         0      25.938  92.126 -26.871  1.00  0.00     0.218 HD
ENDBRANCH  18  22
ENDBRANCH   4  14
BRANCH   8  24
HETATM   24  O17         0      21.793  93.813 -20.324  1.00  0.00    -0.359 OA
HETATM   25  H17         0      21.026  93.905 -19.770  1.00  0.00     0.218 HD
ENDBRANCH   8  24
TORSDOF 5
ENDMDL
MODEL 9
REMARK VINA RESULT:      -5.7      3.934      6.070
REMARK  5 active torsions:
REMARK  status: ('A' for Active; 'I' for Inactive)
REMARK    1  A    between atoms: C4_4  and  C5_5 
REMARK    2  A    between atoms: C8_8  and  O9_9 
REMARK    3  A    between atoms: C10_11  and  O11_12 
REMARK    4  A    between atoms: C16_18  and  O17_19 
REMARK    5  A    between atoms: C19_22  and  O20_23 
ROOT
HETATM    1  O1          0      31.546  94.834 -19.976  1.00  0.00    -0.286 OA
HETATM    2  C2          0      32.805  94.895 -19.925  1.00  0.00     0.201 C 
HETATM    3  C3          0      33.610  94.741 -21.042  1.00  0.00     0.067 C 
HETATM    4  C4          0      34.996  94.710 -20.942  1.00  0.00     0.103 C 
HETATM    5  O13         0      35.550  94.853 -19.751  1.00  0.00    -0.307 OA
HETATM    6  C14         0      34.833  94.965 -18.655  1.00  0.00     0.107 C 
HETATM    7  C15         0      35.370  94.716 -17.400  1.00  0.00     0.049 C 
HETATM    8  C16         0      34.558  94.586 -16.280  1.00  0.00     0.093 C 
HETATM    9  C18         0      33.326  95.224 -16.371  1.00  0.00     0.048 C 
HETATM   10  C19         0      32.781  95.530 -17.610  1.00  0.00     0.096 C 
HETATM   11  C21         0      33.468  95.218 -18.751  1.00  0.00     0.084 C 
ENDROOT
BRANCH  10  12
HETATM   12  O20         0      31.411  95.753 -17.714  1.00  0.00    -0.359 OA
HETATM   13  H20         0      30.828  95.019 -17.560  1.00  0.00     0.218 HD
ENDBRANCH  10  12
BRANCH   4  14
HETATM   14  C5          0      35.726  93.972 -21.975  1.00  0.00     0.025 C 
HETATM   15  C6          0      35.554  94.208 -23.331  1.00  0.00     0.004 C 
HETATM   16  C7          0      36.682  94.151 -24.143  1.00  0.00     0.026 C 
HETATM   17  C8          0      37.916  93.741 -23.649  1.00  0.00     0.112 C 
HETATM   18  C10         0      37.851  92.948 -22.512  1.00  0.00     0.112 C 
HETATM   19  C12         0      36.752  93.087 -21.672  1.00  0.00     0.028 C 
BRANCH  17  20
HETATM   20  O9          0      39.091  94.274 -24.149  1.00  0.00    -0.357 OA
HETATM   21  H9          0      39.258  95.207 -24.223  1.00  0.00     0.218 HD
ENDBRANCH  17  20
BRANCH  18  22
HETATM   22  O11         0      39.034  92.358 -22.089  1.00  0.00    -0.357 OA
HETATM   23  H11         0      39.843  92.731 -22.420  1.00  0.00     0.218 HD
ENDBRANCH  18  22
ENDBRANCH   4  14
BRANCH   8  24
HETATM   24  O17         0      34.817  93.622 -15.299  1.00  0.00    -0.359 OA
HETATM   25  H17         0      34.147  93.017 -15.005  1.00  0.00     0.218 HD
ENDBRANCH   8  24
TORSDOF 5
ENDMDL
