MODEL 1
REMARK VINA RESULT:      -5.3      0.000      0.000
REMARK  5 active torsions:
REMARK  status: ('A' for Active; 'I' for Inactive)
REMARK    1  A    between atoms: C4_4  and  C5_5 
REMARK    2  A    between atoms: C8_8  and  O9_9 
REMARK    3  A    between atoms: C10_11  and  O11_12 
REMARK    4  A    between atoms: C16_18  and  O17_19 
REMARK    5  A    between atoms: C19_22  and  O20_23 
ROOT
HETATM    1  O1          0      53.747   2.090   3.115  1.00  0.00    -0.286 OA
HETATM    2  C2          0      54.952   2.247   3.456  1.00  0.00     0.201 C 
HETATM    3  C3          0      55.517   1.594   4.538  1.00  0.00     0.067 C 
HETATM    4  C4          0      56.816   1.862   4.953  1.00  0.00     0.103 C 
HETATM    5  O13         0      57.528   2.749   4.279  1.00  0.00    -0.307 OA
HETATM    6  C14         0      57.027   3.424   3.268  1.00  0.00     0.107 C 
HETATM    7  C15         0      57.601   4.606   2.823  1.00  0.00     0.049 C 
HETATM    8  C16         0      56.935   5.442   1.935  1.00  0.00     0.093 C 
HETATM    9  C18         0      55.982   4.814   1.141  1.00  0.00     0.048 C 
HETATM   10  C19         0      55.421   3.607   1.534  1.00  0.00     0.096 C 
HETATM   11  C21         0      55.822   3.020   2.703  1.00  0.00     0.084 C 
ENDROOT
BRANCH  10  12
HETATM   12  O20         0      54.200   3.216   0.993  1.00  0.00    -0.359 OA
HETATM   13  H20         0      53.892   3.668   0.217  1.00  0.00     0.218 HD
ENDBRANCH  10  12
BRANCH   4  14
HETATM   14  C5          0      57.129   1.634   6.365  1.00  0.00     0.025 C 
HETATM   15  C6          0      58.428   1.583   6.849  1.00  0.00     0.004 C 
HETATM   16  C7          0      58.675   2.154   8.093  1.00  0.00     0.026 C 
HETATM   17  C8          0      57.644   2.639   8.891  1.00  0.00     0.112 C 
HETATM   18  C10         0      56.397   2.087   8.626  1.00  0.00     0.112 C 
HETATM   19  C12         0      56.149   1.601   7.348  1.00  0.00     0.028 C 
BRANCH  17  20
HETATM   20  O9          0      57.841   3.731   9.718  1.00  0.00    -0.357 OA
HETATM   21  H9          0      58.599   3.837  10.281  1.00  0.00     0.218 HD
ENDBRANCH  17  20
BRANCH  18  22
HETATM   22  O11         0      55.374   2.393   9.512  1.00  0.00    -0.357 OA
HETATM   23  H11         0      55.550   3.070  10.155  1.00  0.00     0.218 HD
ENDBRANCH  18  22
ENDBRANCH   4  14
BRANCH   8  24
HETATM   24  O17         0      56.979   6.834   2.070  1.00  0.00    -0.359 OA
HETATM   25  H17         0      57.773   7.327   1.902  1.00  0.00     0.218 HD
ENDBRANCH   8  24
TORSDOF 5
ENDMDL
MODEL 2
REMARK VINA RESULT:      -5.0      3.323      6.804
REMARK  5 active torsions:
REMARK  status: ('A' for Active; 'I' for Inactive)
REMARK    1  A    between atoms: C4_4  and  C5_5 
REMARK    2  A    between atoms: C8_8  and  O9_9 
REMARK    3  A    between atoms: C10_11  and  O11_12 
REMARK    4  A    between atoms: C16_18  and  O17_19 
REMARK    5  A    between atoms: C19_22  and  O20_23 
ROOT
HETATM    1  O1          0      56.033   1.331   3.907  1.00  0.00    -0.286 OA
HETATM    2  C2          0      55.453   2.116   3.108  1.00  0.00     0.201 C 
HETATM    3  C3          0      54.184   1.877   2.608  1.00  0.00     0.067 C 
HETATM    4  C4          0      53.611   2.705   1.650  1.00  0.00     0.103 C 
HETATM    5  O13         0      54.293   3.754   1.227  1.00  0.00    -0.307 OA
HETATM    6  C14         0      55.516   4.006   1.641  1.00  0.00     0.107 C 
HETATM    7  C15         0      56.370   4.838   0.932  1.00  0.00     0.049 C 
HETATM    8  C16         0      57.727   4.900   1.227  1.00  0.00     0.093 C 
HETATM    9  C18         0      58.062   4.539   2.526  1.00  0.00     0.048 C 
HETATM   10  C19         0      57.208   3.746   3.281  1.00  0.00     0.096 C 
HETATM   11  C21         0      56.019   3.330   2.747  1.00  0.00     0.084 C 
ENDROOT
BRANCH  10  12
HETATM   12  O20         0      57.716   3.044   4.369  1.00  0.00    -0.359 OA
HETATM   13  H20         0      57.232   3.077   5.186  1.00  0.00     0.218 HD
ENDBRANCH  10  12
BRANCH   4  14
HETATM   14  C5          0      52.612   2.108   0.761  1.00  0.00     0.025 C 
HETATM   15  C6          0      52.567   0.749   0.486  1.00  0.00     0.004 C 
HETATM   16  C7          0      51.314   0.155   0.375  1.00  0.00     0.026 C 
HETATM   17  C8          0      50.145   0.908   0.404  1.00  0.00     0.112 C 
HETATM   18  C10         0      50.304   2.240   0.047  1.00  0.00     0.112 C 
HETATM   19  C12         0      51.545   2.834   0.247  1.00  0.00     0.028 C 
BRANCH  17  20
HETATM   20  O9          0      48.983   0.393   0.952  1.00  0.00    -0.357 OA
HETATM   21  H9          0      48.193   0.225   0.451  1.00  0.00     0.218 HD
ENDBRANCH  17  20
BRANCH  18  22
HETATM   22  O11         0      49.148   2.988  -0.125  1.00  0.00    -0.357 OA
HETATM   23  H11         0      48.681   3.244   0.662  1.00  0.00     0.218 HD
ENDBRANCH  18  22
ENDBRANCH   4  14
BRANCH   8  24
HETATM   24  O17         0      58.690   4.984   0.215  1.00  0.00    -0.359 OA
HETATM   25  H17         0      59.617   5.040   0.413  1.00  0.00     0.218 HD
ENDBRANCH   8  24
TORSDOF 5
ENDMDL
MODEL 3
REMARK VINA RESULT:      -4.6      3.282      5.629
REMARK  5 active torsions:
REMARK  status: ('A' for Active; 'I' for Inactive)
REMARK    1  A    between atoms: C4_4  and  C5_5 
REMARK    2  A    between atoms: C8_8  and  O9_9 
REMARK    3  A    between atoms: C10_11  and  O11_12 
REMARK    4  A    between atoms: C16_18  and  O17_19 
REMARK    5  A    between atoms: C19_22  and  O20_23 
ROOT
HETATM    1  O1          0      52.930  -0.191   0.990  1.00  0.00    -0.286 OA
HETATM    2  C2          0      53.150   1.048   1.077  1.00  0.00     0.201 C 
HETATM    3  C3          0      54.386   1.570   1.418  1.00  0.00     0.067 C 
HETATM    4  C4          0      54.575   2.934   1.607  1.00  0.00     0.103 C 
HETATM    5  O13         0      53.547   3.747   1.435  1.00  0.00    -0.307 OA
HETATM    6  C14         0      52.344   3.301   1.149  1.00  0.00     0.107 C 
HETATM    7  C15         0      51.209   4.072   1.359  1.00  0.00     0.049 C 
HETATM    8  C16         0      49.937   3.515   1.298  1.00  0.00     0.093 C 
HETATM    9  C18         0      49.836   2.364   0.527  1.00  0.00     0.048 C 
HETATM   10  C19         0      50.960   1.594   0.258  1.00  0.00     0.096 C 
HETATM   11  C21         0      52.180   1.981   0.742  1.00  0.00     0.084 C 
ENDROOT
BRANCH  10  12
HETATM   12  O20         0      50.799   0.264  -0.118  1.00  0.00    -0.359 OA
HETATM   13  H20         0      51.580  -0.267  -0.221  1.00  0.00     0.218 HD
ENDBRANCH  10  12
BRANCH   4  14
HETATM   14  C5          0      55.653   3.342   2.509  1.00  0.00     0.025 C 
HETATM   15  C6          0      55.897   2.716   3.722  1.00  0.00     0.004 C 
HETATM   16  C7          0      57.224   2.542   4.103  1.00  0.00     0.026 C 
HETATM   17  C8          0      58.271   3.091   3.371  1.00  0.00     0.112 C 
HETATM   18  C10         0      57.921   4.183   2.588  1.00  0.00     0.112 C 
HETATM   19  C12         0      56.606   4.287   2.150  1.00  0.00     0.028 C 
BRANCH  17  20
HETATM   20  O9          0      59.492   2.446   3.288  1.00  0.00    -0.357 OA
HETATM   21  H9          0      59.697   1.785   2.637  1.00  0.00     0.218 HD
ENDBRANCH  17  20
BRANCH  18  22
HETATM   22  O11         0      58.957   4.883   1.987  1.00  0.00    -0.357 OA
HETATM   23  H11         0      58.763   5.314   1.163  1.00  0.00     0.218 HD
ENDBRANCH  18  22
ENDBRANCH   4  14
BRANCH   8  24
HETATM   24  O17         0      48.936   3.885   2.203  1.00  0.00    -0.359 OA
HETATM   25  H17         0      48.845   4.780   2.509  1.00  0.00     0.218 HD
ENDBRANCH   8  24
TORSDOF 5
ENDMDL
MODEL 4
REMARK VINA RESULT:      -4.3     11.646     13.882
REMARK  5 active torsions:
REMARK  status: ('A' for Active; 'I' for Inactive)
REMARK    1  A    between atoms: C4_4  and  C5_5 
REMARK    2  A    between atoms: C8_8  and  O9_9 
REMARK    3  A    between atoms: C10_11  and  O11_12 
REMARK    4  A    between atoms: C16_18  and  O17_19 
REMARK    5  A    between atoms: C19_22  and  O20_23 
ROOT
HETATM    1  O1          0      57.085   8.386  18.896  1.00  0.00    -0.286 OA
HETATM    2  C2          0      56.824   8.940  17.793  1.00  0.00     0.201 C 
HETATM    3  C3          0      55.589   9.495  17.506  1.00  0.00     0.067 C 
HETATM    4  C4          0      55.295  10.007  16.247  1.00  0.00     0.103 C 
HETATM    5  O13         0      56.231   9.977  15.315  1.00  0.00    -0.307 OA
HETATM    6  C14         0      57.408   9.428  15.524  1.00  0.00     0.107 C 
HETATM    7  C15         0      58.227   9.035  14.475  1.00  0.00     0.049 C 
HETATM    8  C16         0      59.341   8.233  14.692  1.00  0.00     0.093 C 
HETATM    9  C18         0      59.873   8.300  15.974  1.00  0.00     0.048 C 
HETATM   10  C19         0      59.094   8.733  17.038  1.00  0.00     0.096 C 
HETATM   11  C21         0      57.798   9.114  16.821  1.00  0.00     0.084 C 
ENDROOT
BRANCH  10  12
HETATM   12  O20         0      59.465   8.393  18.336  1.00  0.00    -0.359 OA
HETATM   13  H20         0      59.068   7.623  18.725  1.00  0.00     0.218 HD
ENDBRANCH  10  12
BRANCH   4  14
HETATM   14  C5          0      53.890  10.007  15.835  1.00  0.00     0.025 C 
HETATM   15  C6          0      53.488   9.739  14.535  1.00  0.00     0.004 C 
HETATM   16  C7          0      52.327   8.993  14.359  1.00  0.00     0.026 C 
HETATM   17  C8          0      51.519   8.638  15.434  1.00  0.00     0.112 C 
HETATM   18  C10         0      51.645   9.456  16.549  1.00  0.00     0.112 C 
HETATM   19  C12         0      52.847  10.124  16.745  1.00  0.00     0.028 C 
BRANCH  17  20
HETATM   20  O9          0      50.822   7.443  15.433  1.00  0.00    -0.357 OA
HETATM   21  H9          0      51.036   6.706  15.994  1.00  0.00     0.218 HD
ENDBRANCH  17  20
BRANCH  18  22
HETATM   22  O11         0      50.731   9.264  17.576  1.00  0.00    -0.357 OA
HETATM   23  H11         0      49.819   9.163  17.327  1.00  0.00     0.218 HD
ENDBRANCH  18  22
ENDBRANCH   4  14
BRANCH   8  24
HETATM   24  O17         0      59.681   7.204  13.807  1.00  0.00    -0.359 OA
HETATM   25  H17         0      60.028   7.384  12.941  1.00  0.00     0.218 HD
ENDBRANCH   8  24
TORSDOF 5
ENDMDL
MODEL 5
REMARK VINA RESULT:      -4.0      3.506      6.225
REMARK  5 active torsions:
REMARK  status: ('A' for Active; 'I' for Inactive)
REMARK    1  A    between atoms: C4_4  and  C5_5 
REMARK    2  A    between atoms: C8_8  and  O9_9 
REMARK    3  A    between atoms: C10_11  and  O11_12 
REMARK    4  A    between atoms: C16_18  and  O17_19 
REMARK    5  A    between atoms: C19_22  and  O20_23 
ROOT
HETATM    1  O1          0      53.295   1.782   5.066  1.00  0.00    -0.286 OA
HETATM    2  C2          0      53.733   1.656   3.889  1.00  0.00     0.201 C 
HETATM    3  C3          0      55.003   2.058   3.514  1.00  0.00     0.067 C 
HETATM    4  C4          0      55.424   2.003   2.190  1.00  0.00     0.103 C 
HETATM    5  O13         0      54.591   1.534   1.279  1.00  0.00    -0.307 OA
HETATM    6  C14         0      53.361   1.174   1.575  1.00  0.00     0.107 C 
HETATM    7  C15         0      52.376   1.069   0.603  1.00  0.00     0.049 C 
HETATM    8  C16         0      51.035   0.941   0.945  1.00  0.00     0.093 C 
HETATM    9  C18         0      50.800   0.402   2.204  1.00  0.00     0.048 C 
HETATM   10  C19         0      51.781   0.448   3.186  1.00  0.00     0.096 C 
HETATM   11  C21         0      52.995   1.014   2.907  1.00  0.00     0.084 C 
ENDROOT
BRANCH  10  12
HETATM   12  O20         0      51.413   0.319   4.522  1.00  0.00    -0.359 OA
HETATM   13  H20         0      50.499   0.447   4.746  1.00  0.00     0.218 HD
ENDBRANCH  10  12
BRANCH   4  14
HETATM   14  C5          0      56.461   2.950   1.777  1.00  0.00     0.025 C 
HETATM   15  C6          0      56.968   2.995   0.486  1.00  0.00     0.004 C 
HETATM   16  C7          0      57.254   4.246  -0.051  1.00  0.00     0.026 C 
HETATM   17  C8          0      57.168   5.405   0.713  1.00  0.00     0.112 C 
HETATM   18  C10         0      57.281   5.206   2.083  1.00  0.00     0.112 C 
HETATM   19  C12         0      56.907   3.973   2.604  1.00  0.00     0.028 C 
BRANCH  17  20
HETATM   20  O9          0      56.787   6.605   0.140  1.00  0.00    -0.357 OA
HETATM   21  H9          0      57.229   6.999  -0.604  1.00  0.00     0.218 HD
ENDBRANCH  17  20
BRANCH  18  22
HETATM   22  O11         0      57.391   6.340   2.875  1.00  0.00    -0.357 OA
HETATM   23  H11         0      56.654   6.940   2.873  1.00  0.00     0.218 HD
ENDBRANCH  18  22
ENDBRANCH   4  14
BRANCH   8  24
HETATM   24  O17         0      50.033   1.607   0.231  1.00  0.00    -0.359 OA
HETATM   25  H17         0      50.222   2.079  -0.571  1.00  0.00     0.218 HD
ENDBRANCH   8  24
TORSDOF 5
ENDMDL
MODEL 6
REMARK VINA RESULT:      -4.0     10.107     11.714
REMARK  5 active torsions:
REMARK  status: ('A' for Active; 'I' for Inactive)
REMARK    1  A    between atoms: C4_4  and  C5_5 
REMARK    2  A    between atoms: C8_8  and  O9_9 
REMARK    3  A    between atoms: C10_11  and  O11_12 
REMARK    4  A    between atoms: C16_18  and  O17_19 
REMARK    5  A    between atoms: C19_22  and  O20_23 
ROOT
HETATM    1  O1          0      53.564   8.943  11.499  1.00  0.00    -0.286 OA
HETATM    2  C2          0      52.377   9.369  11.532  1.00  0.00     0.201 C 
HETATM    3  C3          0      51.684   9.569  12.713  1.00  0.00     0.067 C 
HETATM    4  C4          0      50.345   9.941  12.718  1.00  0.00     0.103 C 
HETATM    5  O13         0      49.733  10.125  11.562  1.00  0.00    -0.307 OA
HETATM    6  C14         0      50.333   9.911  10.411  1.00  0.00     0.107 C 
HETATM    7  C15         0      49.618   9.710   9.240  1.00  0.00     0.049 C 
HETATM    8  C16         0      50.237   9.237   8.089  1.00  0.00     0.093 C 
HETATM    9  C18         0      51.601   9.487   8.011  1.00  0.00     0.048 C 
HETATM   10  C19         0      52.339   9.738   9.160  1.00  0.00     0.096 C 
HETATM   11  C21         0      51.715   9.757  10.377  1.00  0.00     0.084 C 
ENDROOT
BRANCH  10  12
HETATM   12  O20         0      53.718   9.553   9.137  1.00  0.00    -0.359 OA
HETATM   13  H20         0      54.230  10.096   8.550  1.00  0.00     0.218 HD
ENDBRANCH  10  12
BRANCH   4  14
HETATM   14  C5          0      49.547   9.557  13.885  1.00  0.00     0.025 C 
HETATM   15  C6          0      48.164   9.651  13.913  1.00  0.00     0.004 C 
HETATM   16  C7          0      47.462   8.640  14.562  1.00  0.00     0.026 C 
HETATM   17  C8          0      48.116   7.639  15.273  1.00  0.00     0.112 C 
HETATM   18  C10         0      49.390   7.976  15.709  1.00  0.00     0.112 C 
HETATM   19  C12         0      50.103   8.930  14.992  1.00  0.00     0.028 C 
BRANCH  17  20
HETATM   20  O9          0      47.595   6.359  15.336  1.00  0.00    -0.357 OA
HETATM   21  H9          0      48.080   5.580  15.087  1.00  0.00     0.218 HD
ENDBRANCH  17  20
BRANCH  18  22
HETATM   22  O11         0      50.010   7.092  16.580  1.00  0.00    -0.357 OA
HETATM   23  H11         0      50.510   7.471  17.294  1.00  0.00     0.218 HD
ENDBRANCH  18  22
ENDBRANCH   4  14
BRANCH   8  24
HETATM   24  O17         0      49.611   8.302   7.257  1.00  0.00    -0.359 OA
HETATM   25  H17         0      48.913   8.551   6.662  1.00  0.00     0.218 HD
ENDBRANCH   8  24
TORSDOF 5
ENDMDL
MODEL 7
REMARK VINA RESULT:      -3.9     10.769     12.553
REMARK  5 active torsions:
REMARK  status: ('A' for Active; 'I' for Inactive)
REMARK    1  A    between atoms: C4_4  and  C5_5 
REMARK    2  A    between atoms: C8_8  and  O9_9 
REMARK    3  A    between atoms: C10_11  and  O11_12 
REMARK    4  A    between atoms: C16_18  and  O17_19 
REMARK    5  A    between atoms: C19_22  and  O20_23 
ROOT
HETATM    1  O1          0      53.745   8.399  12.219  1.00  0.00    -0.286 OA
HETATM    2  C2          0      54.100   8.971  13.286  1.00  0.00     0.201 C 
HETATM    3  C3          0      55.419   9.035  13.701  1.00  0.00     0.067 C 
HETATM    4  C4          0      55.771   9.581  14.930  1.00  0.00     0.103 C 
HETATM    5  O13         0      54.817  10.066  15.706  1.00  0.00    -0.307 OA
HETATM    6  C14         0      53.546   9.996  15.377  1.00  0.00     0.107 C 
HETATM    7  C15         0      52.539  10.125  16.322  1.00  0.00     0.049 C 
HETATM    8  C16         0      51.221   9.800  16.021  1.00  0.00     0.093 C 
HETATM    9  C18         0      50.893   9.869  14.672  1.00  0.00     0.048 C 
HETATM   10  C19         0      51.882   9.790  13.701  1.00  0.00     0.096 C 
HETATM   11  C21         0      53.192   9.661  14.074  1.00  0.00     0.084 C 
ENDROOT
BRANCH  10  12
HETATM   12  O20         0      51.534   9.424  12.404  1.00  0.00    -0.359 OA
HETATM   13  H20         0      51.724   8.537  12.126  1.00  0.00     0.218 HD
ENDBRANCH  10  12
BRANCH   4  14
HETATM   14  C5          0      57.005   9.094  15.551  1.00  0.00     0.025 C 
HETATM   15  C6          0      57.172   9.009  16.925  1.00  0.00     0.004 C 
HETATM   16  C7          0      57.871   7.913  17.422  1.00  0.00     0.026 C 
HETATM   17  C8          0      58.499   7.004  16.578  1.00  0.00     0.112 C 
HETATM   18  C10         0      58.812   7.502  15.320  1.00  0.00     0.112 C 
HETATM   19  C12         0      58.042   8.541  14.811  1.00  0.00     0.028 C 
BRANCH  17  20
HETATM   20  O9          0      58.593   5.667  16.920  1.00  0.00    -0.357 OA
HETATM   21  H9          0      57.853   5.071  16.929  1.00  0.00     0.218 HD
ENDBRANCH  17  20
BRANCH  18  22
HETATM   22  O11         0      59.604   6.703  14.507  1.00  0.00    -0.357 OA
HETATM   23  H11         0      59.953   7.104  13.720  1.00  0.00     0.218 HD
ENDBRANCH  18  22
ENDBRANCH   4  14
BRANCH   8  24
HETATM   24  O17         0      50.404   9.138  16.944  1.00  0.00    -0.359 OA
HETATM   25  H17         0      50.524   9.243  17.881  1.00  0.00     0.218 HD
ENDBRANCH   8  24
TORSDOF 5
ENDMDL
MODEL 8
REMARK VINA RESULT:      -3.8      3.977      5.822
REMARK  5 active torsions:
REMARK  status: ('A' for Active; 'I' for Inactive)
REMARK    1  A    between atoms: C4_4  and  C5_5 
REMARK    2  A    between atoms: C8_8  and  O9_9 
REMARK    3  A    between atoms: C10_11  and  O11_12 
REMARK    4  A    between atoms: C16_18  and  O17_19 
REMARK    5  A    between atoms: C19_22  and  O20_23 
ROOT
HETATM    1  O1          0      50.733  -0.523   0.790  1.00  0.00    -0.286 OA
HETATM    2  C2          0      51.425   0.530   0.838  1.00  0.00     0.201 C 
HETATM    3  C3          0      52.792   0.521   1.056  1.00  0.00     0.067 C 
HETATM    4  C4          0      53.514   1.700   1.206  1.00  0.00     0.103 C 
HETATM    5  O13         0      52.873   2.852   1.118  1.00  0.00    -0.307 OA
HETATM    6  C14         0      51.571   2.917   0.949  1.00  0.00     0.107 C 
HETATM    7  C15         0      50.851   4.064   1.251  1.00  0.00     0.049 C 
HETATM    8  C16         0      49.463   4.048   1.316  1.00  0.00     0.093 C 
HETATM    9  C18         0      48.852   3.044   0.574  1.00  0.00     0.048 C 
HETATM   10  C19         0      49.557   1.904   0.215  1.00  0.00     0.096 C 
HETATM   11  C21         0      50.869   1.774   0.580  1.00  0.00     0.084 C 
ENDROOT
BRANCH  10  12
HETATM   12  O20         0      48.857   0.750  -0.125  1.00  0.00    -0.359 OA
HETATM   13  H20         0      48.114   0.505   0.414  1.00  0.00     0.218 HD
ENDBRANCH  10  12
BRANCH   4  14
HETATM   14  C5          0      54.743   1.636   1.999  1.00  0.00     0.025 C 
HETATM   15  C6          0      56.006   1.758   1.439  1.00  0.00     0.004 C 
HETATM   16  C7          0      56.965   2.464   2.159  1.00  0.00     0.026 C 
HETATM   17  C8          0      56.719   2.918   3.451  1.00  0.00     0.112 C 
HETATM   18  C10         0      55.726   2.225   4.130  1.00  0.00     0.112 C 
HETATM   19  C12         0      54.732   1.599   3.388  1.00  0.00     0.028 C 
BRANCH  17  20
HETATM   20  O9          0      57.283   4.096   3.907  1.00  0.00    -0.357 OA
HETATM   21  H9          0      56.884   4.952   3.792  1.00  0.00     0.218 HD
ENDBRANCH  17  20
BRANCH  18  22
HETATM   22  O11         0      55.571   2.510   5.479  1.00  0.00    -0.357 OA
HETATM   23  H11         0      54.848   3.078   5.718  1.00  0.00     0.218 HD
ENDBRANCH  18  22
ENDBRANCH   4  14
BRANCH   8  24
HETATM   24  O17         0      48.771   4.758   2.303  1.00  0.00    -0.359 OA
HETATM   25  H17         0      49.218   5.346   2.901  1.00  0.00     0.218 HD
ENDBRANCH   8  24
TORSDOF 5
ENDMDL
MODEL 9
REMARK VINA RESULT:      -3.8      7.464      9.550
REMARK  5 active torsions:
REMARK  status: ('A' for Active; 'I' for Inactive)
REMARK    1  A    between atoms: C4_4  and  C5_5 
REMARK    2  A    between atoms: C8_8  and  O9_9 
REMARK    3  A    between atoms: C10_11  and  O11_12 
REMARK    4  A    between atoms: C16_18  and  O17_19 
REMARK    5  A    between atoms: C19_22  and  O20_23 
ROOT
HETATM    1  O1          0      47.477   7.942   7.150  1.00  0.00    -0.286 OA
HETATM    2  C2          0      48.298   7.817   6.200  1.00  0.00     0.201 C 
HETATM    3  C3          0      48.018   7.088   5.057  1.00  0.00     0.067 C 
HETATM    4  C4          0      48.977   6.880   4.072  1.00  0.00     0.103 C 
HETATM    5  O13         0      50.176   7.413   4.231  1.00  0.00    -0.307 OA
HETATM    6  C14         0      50.505   8.082   5.314  1.00  0.00     0.107 C 
HETATM    7  C15         0      51.830   8.292   5.669  1.00  0.00     0.049 C 
HETATM    8  C16         0      52.173   8.769   6.929  1.00  0.00     0.093 C 
HETATM    9  C18         0      51.180   9.499   7.570  1.00  0.00     0.048 C 
HETATM   10  C19         0      49.848   9.348   7.208  1.00  0.00     0.096 C 
HETATM   11  C21         0      49.512   8.486   6.200  1.00  0.00     0.084 C 
ENDROOT
BRANCH  10  12
HETATM   12  O20         0      48.852   9.722   8.105  1.00  0.00    -0.359 OA
HETATM   13  H20         0      48.669   9.142   8.835  1.00  0.00     0.218 HD
ENDBRANCH  10  12
BRANCH   4  14
HETATM   14  C5          0      48.845   5.675   3.252  1.00  0.00     0.025 C 
HETATM   15  C6          0      48.132   5.650   2.062  1.00  0.00     0.004 C 
HETATM   16  C7          0      48.650   4.891   1.017  1.00  0.00     0.026 C 
HETATM   17  C8          0      49.764   4.077   1.188  1.00  0.00     0.112 C 
HETATM   18  C10         0      50.001   3.687   2.500  1.00  0.00     0.112 C 
HETATM   19  C12         0      49.546   4.508   3.525  1.00  0.00     0.028 C 
BRANCH  17  20
HETATM   20  O9          0      50.658   3.871   0.153  1.00  0.00    -0.357 OA
HETATM   21  H9          0      51.346   4.484  -0.080  1.00  0.00     0.218 HD
ENDBRANCH  17  20
BRANCH  18  22
HETATM   22  O11         0      50.982   2.727   2.703  1.00  0.00    -0.357 OA
HETATM   23  H11         0      51.107   2.087   2.011  1.00  0.00     0.218 HD
ENDBRANCH  18  22
ENDBRANCH   4  14
BRANCH   8  24
HETATM   24  O17         0      53.282   8.270   7.620  1.00  0.00    -0.359 OA
HETATM   25  H17         0      53.191   7.624   8.310  1.00  0.00     0.218 HD
ENDBRANCH   8  24
TORSDOF 5
ENDMDL
