MODEL 1
REMARK VINA RESULT:      -5.6      0.000      0.000
REMARK  5 active torsions:
REMARK  status: ('A' for Active; 'I' for Inactive)
REMARK    1  A    between atoms: C4_4  and  C5_5 
REMARK    2  A    between atoms: C8_8  and  O9_9 
REMARK    3  A    between atoms: C10_11  and  O11_12 
REMARK    4  A    between atoms: C16_18  and  O17_19 
REMARK    5  A    between atoms: C19_22  and  O20_23 
ROOT
HETATM    1  O1          0      57.589  50.044  -9.237  1.00  0.00    -0.286 OA
HETATM    2  C2          0      57.127  51.205  -9.062  1.00  0.00     0.201 C 
HETATM    3  C3          0      56.172  51.766  -9.892  1.00  0.00     0.067 C 
HETATM    4  C4          0      55.756  53.084  -9.738  1.00  0.00     0.103 C 
HETATM    5  O13         0      56.277  53.804  -8.760  1.00  0.00    -0.307 OA
HETATM    6  C14         0      57.214  53.332  -7.967  1.00  0.00     0.107 C 
HETATM    7  C15         0      58.034  54.170  -7.225  1.00  0.00     0.049 C 
HETATM    8  C16         0      59.175  53.689  -6.594  1.00  0.00     0.093 C 
HETATM    9  C18         0      59.156  52.331  -6.300  1.00  0.00     0.048 C 
HETATM   10  C19         0      58.314  51.472  -6.992  1.00  0.00     0.096 C 
HETATM   11  C21         0      57.483  51.968  -7.960  1.00  0.00     0.084 C 
ENDROOT
BRANCH  10  12
HETATM   12  O20         0      58.599  50.110  -7.012  1.00  0.00    -0.359 OA
HETATM   13  H20         0      58.806  49.686  -6.188  1.00  0.00     0.218 HD
ENDBRANCH  10  12
BRANCH   4  14
HETATM   14  C5          0      55.254  53.772 -10.929  1.00  0.00     0.025 C 
HETATM   15  C6          0      54.439  53.155 -11.866  1.00  0.00     0.004 C 
HETATM   16  C7          0      53.416  53.911 -12.429  1.00  0.00     0.026 C 
HETATM   17  C8          0      53.289  55.272 -12.171  1.00  0.00     0.112 C 
HETATM   18  C10         0      54.462  55.898 -11.769  1.00  0.00     0.112 C 
HETATM   19  C12         0      55.433  55.134 -11.132  1.00  0.00     0.028 C 
BRANCH  17  20
HETATM   20  O9          0      52.043  55.872 -12.123  1.00  0.00    -0.357 OA
HETATM   21  H9          0      51.735  56.391 -11.389  1.00  0.00     0.218 HD
ENDBRANCH  17  20
BRANCH  18  22
HETATM   22  O11         0      54.438  57.282 -11.682  1.00  0.00    -0.357 OA
HETATM   23  H11         0      54.307  57.762 -12.493  1.00  0.00     0.218 HD
ENDBRANCH  18  22
ENDBRANCH   4  14
BRANCH   8  24
HETATM   24  O17         0      60.362  54.430  -6.572  1.00  0.00    -0.359 OA
HETATM   25  H17         0      60.872  54.532  -5.776  1.00  0.00     0.218 HD
ENDBRANCH   8  24
TORSDOF 5
ENDMDL
MODEL 2
REMARK VINA RESULT:      -5.6      7.605     10.076
REMARK  5 active torsions:
REMARK  status: ('A' for Active; 'I' for Inactive)
REMARK    1  A    between atoms: C4_4  and  C5_5 
REMARK    2  A    between atoms: C8_8  and  O9_9 
REMARK    3  A    between atoms: C10_11  and  O11_12 
REMARK    4  A    between atoms: C16_18  and  O17_19 
REMARK    5  A    between atoms: C19_22  and  O20_23 
ROOT
HETATM    1  O1          0      58.122  41.644  -9.754  1.00  0.00    -0.286 OA
HETATM    2  C2          0      57.403  42.433 -10.427  1.00  0.00     0.201 C 
HETATM    3  C3          0      57.887  43.611 -10.971  1.00  0.00     0.067 C 
HETATM    4  C4          0      57.049  44.511 -11.620  1.00  0.00     0.103 C 
HETATM    5  O13         0      55.766  44.217 -11.733  1.00  0.00    -0.307 OA
HETATM    6  C14         0      55.249  43.130 -11.203  1.00  0.00     0.107 C 
HETATM    7  C15         0      53.887  43.009 -10.966  1.00  0.00     0.049 C 
HETATM    8  C16         0      53.380  41.981 -10.181  1.00  0.00     0.093 C 
HETATM    9  C18         0      54.179  40.846 -10.112  1.00  0.00     0.048 C 
HETATM   10  C19         0      55.537  40.922 -10.388  1.00  0.00     0.096 C 
HETATM   11  C21         0      56.091  42.121 -10.748  1.00  0.00     0.084 C 
ENDROOT
BRANCH  10  12
HETATM   12  O20         0      56.386  39.930  -9.907  1.00  0.00    -0.359 OA
HETATM   13  H20         0      56.070  39.035  -9.910  1.00  0.00     0.218 HD
ENDBRANCH  10  12
BRANCH   4  14
HETATM   14  C5          0      57.452  45.918 -11.622  1.00  0.00     0.025 C 
HETATM   15  C6          0      57.314  46.739 -12.733  1.00  0.00     0.004 C 
HETATM   16  C7          0      56.933  48.059 -12.515  1.00  0.00     0.026 C 
HETATM   17  C8          0      56.822  48.584 -11.233  1.00  0.00     0.112 C 
HETATM   18  C10         0      57.567  47.920 -10.268  1.00  0.00     0.112 C 
HETATM   19  C12         0      57.862  46.577 -10.470  1.00  0.00     0.028 C 
BRANCH  17  20
HETATM   20  O9          0      55.876  49.551 -10.942  1.00  0.00    -0.357 OA
HETATM   21  H9          0      55.040  49.365 -10.531  1.00  0.00     0.218 HD
ENDBRANCH  17  20
BRANCH  18  22
HETATM   22  O11         0      57.643  48.512  -9.015  1.00  0.00    -0.357 OA
HETATM   23  H11         0      56.890  49.018  -8.732  1.00  0.00     0.218 HD
ENDBRANCH  18  22
ENDBRANCH   4  14
BRANCH   8  24
HETATM   24  O17         0      52.335  42.201  -9.277  1.00  0.00    -0.359 OA
HETATM   25  H17         0      51.460  41.865  -9.433  1.00  0.00     0.218 HD
ENDBRANCH   8  24
TORSDOF 5
ENDMDL
MODEL 3
REMARK VINA RESULT:      -5.4      2.700      6.122
REMARK  5 active torsions:
REMARK  status: ('A' for Active; 'I' for Inactive)
REMARK    1  A    between atoms: C4_4  and  C5_5 
REMARK    2  A    between atoms: C8_8  and  O9_9 
REMARK    3  A    between atoms: C10_11  and  O11_12 
REMARK    4  A    between atoms: C16_18  and  O17_19 
REMARK    5  A    between atoms: C19_22  and  O20_23 
ROOT
HETATM    1  O1          0      56.492  56.556 -10.419  1.00  0.00    -0.286 OA
HETATM    2  C2          0      56.837  55.928  -9.380  1.00  0.00     0.201 C 
HETATM    3  C3          0      57.240  54.604  -9.403  1.00  0.00     0.067 C 
HETATM    4  C4          0      57.516  53.906  -8.233  1.00  0.00     0.103 C 
HETATM    5  O13         0      57.409  54.537  -7.077  1.00  0.00    -0.307 OA
HETATM    6  C14         0      56.995  55.782  -6.997  1.00  0.00     0.107 C 
HETATM    7  C15         0      56.502  56.314  -5.813  1.00  0.00     0.049 C 
HETATM    8  C16         0      55.836  57.533  -5.792  1.00  0.00     0.093 C 
HETATM    9  C18         0      56.151  58.393  -6.837  1.00  0.00     0.048 C 
HETATM   10  C19         0      56.689  57.900  -8.018  1.00  0.00     0.096 C 
HETATM   11  C21         0      56.926  56.559  -8.148  1.00  0.00     0.084 C 
ENDROOT
BRANCH  10  12
HETATM   12  O20         0      56.594  58.661  -9.179  1.00  0.00    -0.359 OA
HETATM   13  H20         0      57.400  58.937  -9.598  1.00  0.00     0.218 HD
ENDBRANCH  10  12
BRANCH   4  14
HETATM   14  C5          0      57.339  52.453  -8.262  1.00  0.00     0.025 C 
HETATM   15  C6          0      56.591  51.806  -9.235  1.00  0.00     0.004 C 
HETATM   16  C7          0      57.063  50.585  -9.706  1.00  0.00     0.026 C 
HETATM   17  C8          0      58.168  49.962  -9.136  1.00  0.00     0.112 C 
HETATM   18  C10         0      58.437  50.341  -7.828  1.00  0.00     0.112 C 
HETATM   19  C12         0      58.028  51.602  -7.408  1.00  0.00     0.028 C 
BRANCH  17  20
HETATM   20  O9          0      59.027  49.198  -9.906  1.00  0.00    -0.357 OA
HETATM   21  H9          0      59.730  49.563 -10.432  1.00  0.00     0.218 HD
ENDBRANCH  17  20
BRANCH  18  22
HETATM   22  O11         0      59.407  49.617  -7.150  1.00  0.00    -0.357 OA
HETATM   23  H11         0      59.203  48.712  -6.944  1.00  0.00     0.218 HD
ENDBRANCH  18  22
ENDBRANCH   4  14
BRANCH   8  24
HETATM   24  O17         0      54.706  57.733  -4.991  1.00  0.00    -0.359 OA
HETATM   25  H17         0      54.505  58.581  -4.614  1.00  0.00     0.218 HD
ENDBRANCH   8  24
TORSDOF 5
ENDMDL
MODEL 4
REMARK VINA RESULT:      -5.4      2.420      4.092
REMARK  5 active torsions:
REMARK  status: ('A' for Active; 'I' for Inactive)
REMARK    1  A    between atoms: C4_4  and  C5_5 
REMARK    2  A    between atoms: C8_8  and  O9_9 
REMARK    3  A    between atoms: C10_11  and  O11_12 
REMARK    4  A    between atoms: C16_18  and  O17_19 
REMARK    5  A    between atoms: C19_22  and  O20_23 
ROOT
HETATM    1  O1          0      55.948  52.900  -8.331  1.00  0.00    -0.286 OA
HETATM    2  C2          0      55.779  52.632  -9.552  1.00  0.00     0.201 C 
HETATM    3  C3          0      54.996  53.409 -10.389  1.00  0.00     0.067 C 
HETATM    4  C4          0      54.743  53.036 -11.704  1.00  0.00     0.103 C 
HETATM    5  O13         0      55.285  51.921 -12.163  1.00  0.00    -0.307 OA
HETATM    6  C14         0      56.006  51.129 -11.400  1.00  0.00     0.107 C 
HETATM    7  C15         0      56.235  49.802 -11.735  1.00  0.00     0.049 C 
HETATM    8  C16         0      56.772  48.908 -10.817  1.00  0.00     0.093 C 
HETATM    9  C18         0      57.530  49.489  -9.807  1.00  0.00     0.048 C 
HETATM   10  C19         0      57.360  50.827  -9.478  1.00  0.00     0.096 C 
HETATM   11  C21         0      56.450  51.584 -10.164  1.00  0.00     0.084 C 
ENDROOT
BRANCH  10  12
HETATM   12  O20         0      57.775  51.278  -8.229  1.00  0.00    -0.359 OA
HETATM   13  H20         0      58.704  51.423  -8.094  1.00  0.00     0.218 HD
ENDBRANCH  10  12
BRANCH   4  14
HETATM   14  C5          0      53.499  53.516 -12.310  1.00  0.00     0.025 C 
HETATM   15  C6          0      52.625  54.370 -11.654  1.00  0.00     0.004 C 
HETATM   16  C7          0      52.005  55.361 -12.408  1.00  0.00     0.026 C 
HETATM   17  C8          0      52.143  55.419 -13.791  1.00  0.00     0.112 C 
HETATM   18  C10         0      52.482  54.213 -14.391  1.00  0.00     0.112 C 
HETATM   19  C12         0      53.177  53.274 -13.638  1.00  0.00     0.028 C 
BRANCH  17  20
HETATM   20  O9          0      52.147  56.634 -14.453  1.00  0.00    -0.357 OA
HETATM   21  H9          0      51.383  57.193 -14.534  1.00  0.00     0.218 HD
ENDBRANCH  17  20
BRANCH  18  22
HETATM   22  O11         0      52.447  54.170 -15.777  1.00  0.00    -0.357 OA
HETATM   23  H11         0      53.063  54.726 -16.240  1.00  0.00     0.218 HD
ENDBRANCH  18  22
ENDBRANCH   4  14
BRANCH   8  24
HETATM   24  O17         0      56.309  47.591 -10.724  1.00  0.00    -0.359 OA
HETATM   25  H17         0      55.393  47.374 -10.853  1.00  0.00     0.218 HD
ENDBRANCH   8  24
TORSDOF 5
ENDMDL
MODEL 5
REMARK VINA RESULT:      -5.3      1.302      1.700
REMARK  5 active torsions:
REMARK  status: ('A' for Active; 'I' for Inactive)
REMARK    1  A    between atoms: C4_4  and  C5_5 
REMARK    2  A    between atoms: C8_8  and  O9_9 
REMARK    3  A    between atoms: C10_11  and  O11_12 
REMARK    4  A    between atoms: C16_18  and  O17_19 
REMARK    5  A    between atoms: C19_22  and  O20_23 
ROOT
HETATM    1  O1          0      58.461  49.271  -9.558  1.00  0.00    -0.286 OA
HETATM    2  C2          0      57.705  50.267  -9.388  1.00  0.00     0.201 C 
HETATM    3  C3          0      56.663  50.573 -10.247  1.00  0.00     0.067 C 
HETATM    4  C4          0      55.910  51.732 -10.096  1.00  0.00     0.103 C 
HETATM    5  O13         0      56.190  52.544  -9.092  1.00  0.00    -0.307 OA
HETATM    6  C14         0      57.192  52.319  -8.270  1.00  0.00     0.107 C 
HETATM    7  C15         0      57.737  53.329  -7.489  1.00  0.00     0.049 C 
HETATM    8  C16         0      58.943  53.153  -6.821  1.00  0.00     0.093 C 
HETATM    9  C18         0      59.272  51.832  -6.541  1.00  0.00     0.048 C 
HETATM   10  C19         0      58.709  50.795  -7.273  1.00  0.00     0.096 C 
HETATM   11  C21         0      57.810  51.074  -8.266  1.00  0.00     0.084 C 
ENDROOT
BRANCH  10  12
HETATM   12  O20         0      59.344  49.557  -7.296  1.00  0.00    -0.359 OA
HETATM   13  H20         0      60.238  49.509  -6.981  1.00  0.00     0.218 HD
ENDBRANCH  10  12
BRANCH   4  14
HETATM   14  C5          0      55.285  52.286 -11.298  1.00  0.00     0.025 C 
HETATM   15  C6          0      55.099  51.548 -12.458  1.00  0.00     0.004 C 
HETATM   16  C7          0      53.921  51.751 -13.169  1.00  0.00     0.026 C 
HETATM   17  C8          0      53.018  52.749 -12.816  1.00  0.00     0.112 C 
HETATM   18  C10         0      53.568  53.796 -12.088  1.00  0.00     0.112 C 
HETATM   19  C12         0      54.697  53.544 -11.318  1.00  0.00     0.028 C 
BRANCH  17  20
HETATM   20  O9          0      51.659  52.574 -13.004  1.00  0.00    -0.357 OA
HETATM   21  H9          0      51.241  51.724 -13.082  1.00  0.00     0.218 HD
ENDBRANCH  17  20
BRANCH  18  22
HETATM   22  O11         0      52.760  54.904 -11.873  1.00  0.00    -0.357 OA
HETATM   23  H11         0      52.008  55.005 -12.445  1.00  0.00     0.218 HD
ENDBRANCH  18  22
ENDBRANCH   4  14
BRANCH   8  24
HETATM   24  O17         0      59.891  54.179  -6.747  1.00  0.00    -0.359 OA
HETATM   25  H17         0      60.105  54.717  -7.500  1.00  0.00     0.218 HD
ENDBRANCH   8  24
TORSDOF 5
ENDMDL
MODEL 6
REMARK VINA RESULT:      -5.3      2.143      7.391
REMARK  5 active torsions:
REMARK  status: ('A' for Active; 'I' for Inactive)
REMARK    1  A    between atoms: C4_4  and  C5_5 
REMARK    2  A    between atoms: C8_8  and  O9_9 
REMARK    3  A    between atoms: C10_11  and  O11_12 
REMARK    4  A    between atoms: C16_18  and  O17_19 
REMARK    5  A    between atoms: C19_22  and  O20_23 
ROOT
HETATM    1  O1          0      55.047  55.683 -10.993  1.00  0.00    -0.286 OA
HETATM    2  C2          0      54.976  54.431 -11.128  1.00  0.00     0.201 C 
HETATM    3  C3          0      55.752  53.552 -10.393  1.00  0.00     0.067 C 
HETATM    4  C4          0      55.728  52.182 -10.633  1.00  0.00     0.103 C 
HETATM    5  O13         0      54.926  51.717 -11.574  1.00  0.00    -0.307 OA
HETATM    6  C14         0      54.196  52.512 -12.326  1.00  0.00     0.107 C 
HETATM    7  C15         0      53.678  52.094 -13.543  1.00  0.00     0.049 C 
HETATM    8  C16         0      53.131  52.999 -14.445  1.00  0.00     0.093 C 
HETATM    9  C18         0      52.656  54.176 -13.879  1.00  0.00     0.048 C 
HETATM   10  C19         0      53.119  54.600 -12.640  1.00  0.00     0.096 C 
HETATM   11  C21         0      54.037  53.845 -11.964  1.00  0.00     0.084 C 
ENDROOT
BRANCH  10  12
HETATM   12  O20         0      52.990  55.940 -12.288  1.00  0.00    -0.359 OA
HETATM   13  H20         0      53.230  56.595 -12.933  1.00  0.00     0.218 HD
ENDBRANCH  10  12
BRANCH   4  14
HETATM   14  C5          0      56.931  51.421 -10.293  1.00  0.00     0.025 C 
HETATM   15  C6          0      58.072  52.012  -9.769  1.00  0.00     0.004 C 
HETATM   16  C7          0      58.768  51.312  -8.788  1.00  0.00     0.026 C 
HETATM   17  C8          0      58.422  50.012  -8.436  1.00  0.00     0.112 C 
HETATM   18  C10         0      57.726  49.313  -9.412  1.00  0.00     0.112 C 
HETATM   19  C12         0      56.969  50.033 -10.329  1.00  0.00     0.028 C 
BRANCH  17  20
HETATM   20  O9          0      58.585  49.563  -7.137  1.00  0.00    -0.357 OA
HETATM   21  H9          0      58.396  50.089  -6.369  1.00  0.00     0.218 HD
ENDBRANCH  17  20
BRANCH  18  22
HETATM   22  O11         0      57.522  47.958  -9.190  1.00  0.00    -0.357 OA
HETATM   23  H11         0      56.816  47.721  -8.600  1.00  0.00     0.218 HD
ENDBRANCH  18  22
ENDBRANCH   4  14
BRANCH   8  24
HETATM   24  O17         0      53.352  52.882 -15.821  1.00  0.00    -0.359 OA
HETATM   25  H17         0      52.716  53.189 -16.457  1.00  0.00     0.218 HD
ENDBRANCH   8  24
TORSDOF 5
ENDMDL
MODEL 7
REMARK VINA RESULT:      -5.2      1.541      2.085
REMARK  5 active torsions:
REMARK  status: ('A' for Active; 'I' for Inactive)
REMARK    1  A    between atoms: C4_4  and  C5_5 
REMARK    2  A    between atoms: C8_8  and  O9_9 
REMARK    3  A    between atoms: C10_11  and  O11_12 
REMARK    4  A    between atoms: C16_18  and  O17_19 
REMARK    5  A    between atoms: C19_22  and  O20_23 
ROOT
HETATM    1  O1          0      59.421  52.302  -8.239  1.00  0.00    -0.286 OA
HETATM    2  C2          0      58.486  53.148  -8.221  1.00  0.00     0.201 C 
HETATM    3  C3          0      57.475  53.170  -9.167  1.00  0.00     0.067 C 
HETATM    4  C4          0      56.515  54.176  -9.184  1.00  0.00     0.103 C 
HETATM    5  O13         0      56.566  55.117  -8.258  1.00  0.00    -0.307 OA
HETATM    6  C14         0      57.525  55.164  -7.360  1.00  0.00     0.107 C 
HETATM    7  C15         0      57.817  56.327  -6.662  1.00  0.00     0.049 C 
HETATM    8  C16         0      58.980  56.446  -5.911  1.00  0.00     0.093 C 
HETATM    9  C18         0      59.521  55.243  -5.473  1.00  0.00     0.048 C 
HETATM   10  C19         0      59.213  54.054  -6.120  1.00  0.00     0.096 C 
HETATM   11  C21         0      58.357  54.064  -7.187  1.00  0.00     0.084 C 
ENDROOT
BRANCH  10  12
HETATM   12  O20         0      60.062  52.961  -5.973  1.00  0.00    -0.359 OA
HETATM   13  H20         0      60.984  53.085  -6.161  1.00  0.00     0.218 HD
ENDBRANCH  10  12
BRANCH   4  14
HETATM   14  C5          0      55.894  54.487 -10.472  1.00  0.00     0.025 C 
HETATM   15  C6          0      55.135  53.568 -11.182  1.00  0.00     0.004 C 
HETATM   16  C7          0      54.007  54.040 -11.847  1.00  0.00     0.026 C 
HETATM   17  C8          0      53.717  55.398 -11.917  1.00  0.00     0.112 C 
HETATM   18  C10         0      54.813  56.235 -11.749  1.00  0.00     0.112 C 
HETATM   19  C12         0      55.892  55.768 -11.008  1.00  0.00     0.028 C 
BRANCH  17  20
HETATM   20  O9          0      52.407  55.843 -11.938  1.00  0.00    -0.357 OA
HETATM   21  H9          0      52.117  56.608 -12.422  1.00  0.00     0.218 HD
ENDBRANCH  17  20
BRANCH  18  22
HETATM   22  O11         0      54.616  57.586 -11.996  1.00  0.00    -0.357 OA
HETATM   23  H11         0      55.297  58.038 -12.480  1.00  0.00     0.218 HD
ENDBRANCH  18  22
ENDBRANCH   4  14
BRANCH   8  24
HETATM   24  O17         0      59.718  57.635  -5.893  1.00  0.00    -0.359 OA
HETATM   25  H17         0      59.298  58.481  -5.798  1.00  0.00     0.218 HD
ENDBRANCH   8  24
TORSDOF 5
ENDMDL
MODEL 8
REMARK VINA RESULT:      -5.2      3.183      7.728
REMARK  5 active torsions:
REMARK  status: ('A' for Active; 'I' for Inactive)
REMARK    1  A    between atoms: C4_4  and  C5_5 
REMARK    2  A    between atoms: C8_8  and  O9_9 
REMARK    3  A    between atoms: C10_11  and  O11_12 
REMARK    4  A    between atoms: C16_18  and  O17_19 
REMARK    5  A    between atoms: C19_22  and  O20_23 
ROOT
HETATM    1  O1          0      54.750  55.222 -11.125  1.00  0.00    -0.286 OA
HETATM    2  C2          0      54.498  54.048 -11.510  1.00  0.00     0.201 C 
HETATM    3  C3          0      55.196  52.942 -11.054  1.00  0.00     0.067 C 
HETATM    4  C4          0      54.967  51.672 -11.571  1.00  0.00     0.103 C 
HETATM    5  O13         0      54.045  51.524 -12.506  1.00  0.00    -0.307 OA
HETATM    6  C14         0      53.380  52.545 -13.001  1.00  0.00     0.107 C 
HETATM    7  C15         0      52.725  52.469 -14.221  1.00  0.00     0.049 C 
HETATM    8  C16         0      52.246  53.609 -14.856  1.00  0.00     0.093 C 
HETATM    9  C18         0      51.978  54.681 -14.013  1.00  0.00     0.048 C 
HETATM   10  C19         0      52.581  54.764 -12.765  1.00  0.00     0.096 C 
HETATM   11  C21         0      53.432  53.775 -12.354  1.00  0.00     0.084 C 
ENDROOT
BRANCH  10  12
HETATM   12  O20         0      52.662  56.000 -12.130  1.00  0.00    -0.359 OA
HETATM   13  H20         0      52.704  56.778 -12.673  1.00  0.00     0.218 HD
ENDBRANCH  10  12
BRANCH   4  14
HETATM   14  C5          0      56.076  50.717 -11.517  1.00  0.00     0.025 C 
HETATM   15  C6          0      57.234  50.950 -10.791  1.00  0.00     0.004 C 
HETATM   16  C7          0      57.808  49.870 -10.128  1.00  0.00     0.026 C 
HETATM   17  C8          0      57.326  48.575 -10.291  1.00  0.00     0.112 C 
HETATM   18  C10         0      56.625  48.361 -11.470  1.00  0.00     0.112 C 
HETATM   19  C12         0      55.989  49.444 -12.066  1.00  0.00     0.028 C 
BRANCH  17  20
HETATM   20  O9          0      57.375  47.665  -9.250  1.00  0.00    -0.357 OA
HETATM   21  H9          0      56.610  47.375  -8.766  1.00  0.00     0.218 HD
ENDBRANCH  17  20
BRANCH  18  22
HETATM   22  O11         0      56.287  47.050 -11.771  1.00  0.00    -0.357 OA
HETATM   23  H11         0      56.666  46.371 -11.224  1.00  0.00     0.218 HD
ENDBRANCH  18  22
ENDBRANCH   4  14
BRANCH   8  24
HETATM   24  O17         0      52.352  53.771 -16.242  1.00  0.00    -0.359 OA
HETATM   25  H17         0      52.582  54.607 -16.630  1.00  0.00     0.218 HD
ENDBRANCH   8  24
TORSDOF 5
ENDMDL
MODEL 9
REMARK VINA RESULT:      -5.2      1.674      3.049
REMARK  5 active torsions:
REMARK  status: ('A' for Active; 'I' for Inactive)
REMARK    1  A    between atoms: C4_4  and  C5_5 
REMARK    2  A    between atoms: C8_8  and  O9_9 
REMARK    3  A    between atoms: C10_11  and  O11_12 
REMARK    4  A    between atoms: C16_18  and  O17_19 
REMARK    5  A    between atoms: C19_22  and  O20_23 
ROOT
HETATM    1  O1          0      56.995  55.301  -7.507  1.00  0.00    -0.286 OA
HETATM    2  C2          0      57.151  54.502  -8.470  1.00  0.00     0.201 C 
HETATM    3  C3          0      56.538  54.679  -9.699  1.00  0.00     0.067 C 
HETATM    4  C4          0      56.644  53.730 -10.710  1.00  0.00     0.103 C 
HETATM    5  O13         0      57.367  52.647 -10.489  1.00  0.00    -0.307 OA
HETATM    6  C14         0      57.939  52.412  -9.329  1.00  0.00     0.107 C 
HETATM    7  C15         0      58.346  51.138  -8.959  1.00  0.00     0.049 C 
HETATM    8  C16         0      58.711  50.849  -7.649  1.00  0.00     0.093 C 
HETATM    9  C18         0      59.151  51.939  -6.908  1.00  0.00     0.048 C 
HETATM   10  C19         0      58.802  53.231  -7.278  1.00  0.00     0.096 C 
HETATM   11  C21         0      58.031  53.434  -8.390  1.00  0.00     0.084 C 
ENDROOT
BRANCH  10  12
HETATM   12  O20         0      58.862  54.249  -6.331  1.00  0.00    -0.359 OA
HETATM   13  H20         0      58.069  54.739  -6.154  1.00  0.00     0.218 HD
ENDBRANCH  10  12
BRANCH   4  14
HETATM   14  C5          0      55.553  53.664 -11.683  1.00  0.00     0.025 C 
HETATM   15  C6          0      55.605  52.867 -12.818  1.00  0.00     0.004 C 
HETATM   16  C7          0      54.434  52.228 -13.211  1.00  0.00     0.026 C 
HETATM   17  C8          0      53.220  52.475 -12.579  1.00  0.00     0.112 C 
HETATM   18  C10         0      53.146  53.698 -11.925  1.00  0.00     0.112 C 
HETATM   19  C12         0      54.324  54.275 -11.467  1.00  0.00     0.028 C 
BRANCH  17  20
HETATM   20  O9          0      52.270  51.477 -12.452  1.00  0.00    -0.357 OA
HETATM   21  H9          0      52.145  50.784 -13.090  1.00  0.00     0.218 HD
ENDBRANCH  17  20
BRANCH  18  22
HETATM   22  O11         0      51.902  54.077 -11.441  1.00  0.00    -0.357 OA
HETATM   23  H11         0      51.528  53.543 -10.750  1.00  0.00     0.218 HD
ENDBRANCH  18  22
ENDBRANCH   4  14
BRANCH   8  24
HETATM   24  O17         0      58.343  49.644  -7.039  1.00  0.00    -0.359 OA
HETATM   25  H17         0      58.610  49.432  -6.152  1.00  0.00     0.218 HD
ENDBRANCH   8  24
TORSDOF 5
ENDMDL
