MODEL 1
REMARK VINA RESULT:      -7.0      0.000      0.000
REMARK  5 active torsions:
REMARK  status: ('A' for Active; 'I' for Inactive)
REMARK    1  A    between atoms: C4_4  and  C5_5 
REMARK    2  A    between atoms: C8_8  and  O9_9 
REMARK    3  A    between atoms: C10_11  and  O11_12 
REMARK    4  A    between atoms: C16_18  and  O17_19 
REMARK    5  A    between atoms: C19_22  and  O20_23 
ROOT
HETATM    1  O1          0      34.695  83.257 -30.425  1.00  0.00    -0.286 OA
HETATM    2  C2          0      35.853  83.359 -29.936  1.00  0.00     0.201 C 
HETATM    3  C3          0      37.000  83.075 -30.658  1.00  0.00     0.067 C 
HETATM    4  C4          0      38.258  83.097 -30.065  1.00  0.00     0.103 C 
HETATM    5  O13         0      38.352  83.418 -28.787  1.00  0.00    -0.307 OA
HETATM    6  C14         0      37.292  83.660 -28.047  1.00  0.00     0.107 C 
HETATM    7  C15         0      37.339  83.601 -26.662  1.00  0.00     0.049 C 
HETATM    8  C16         0      36.176  83.605 -25.900  1.00  0.00     0.093 C 
HETATM    9  C18         0      35.075  84.189 -26.513  1.00  0.00     0.048 C 
HETATM   10  C19         0      35.016  84.307 -27.895  1.00  0.00     0.096 C 
HETATM   11  C21         0      36.059  83.859 -28.659  1.00  0.00     0.084 C 
ENDROOT
BRANCH  10  12
HETATM   12  O20         0      33.780  84.474 -28.512  1.00  0.00    -0.359 OA
HETATM   13  H20         0      33.701  85.150 -29.174  1.00  0.00     0.218 HD
ENDBRANCH  10  12
BRANCH   4  14
HETATM   14  C5          0      39.291  82.244 -30.656  1.00  0.00     0.025 C 
HETATM   15  C6          0      39.843  81.160 -29.988  1.00  0.00     0.004 C 
HETATM   16  C7          0      40.125  80.019 -30.733  1.00  0.00     0.026 C 
HETATM   17  C8          0      39.989  80.000 -32.117  1.00  0.00     0.112 C 
HETATM   18  C10         0      40.056  81.247 -32.724  1.00  0.00     0.112 C 
HETATM   19  C12         0      39.687  82.363 -31.982  1.00  0.00     0.028 C 
BRANCH  17  20
HETATM   20  O9          0      39.607  78.845 -32.776  1.00  0.00    -0.357 OA
HETATM   21  H9          0      39.208  78.836 -33.638  1.00  0.00     0.218 HD
ENDBRANCH  17  20
BRANCH  18  22
HETATM   22  O11         0      40.116  81.270 -34.110  1.00  0.00    -0.357 OA
HETATM   23  H11         0      39.313  81.070 -34.578  1.00  0.00     0.218 HD
ENDBRANCH  18  22
ENDBRANCH   4  14
BRANCH   8  24
HETATM   24  O17         0      36.044  82.793 -24.768  1.00  0.00    -0.359 OA
HETATM   25  H17         0      35.662  83.120 -23.962  1.00  0.00     0.218 HD
ENDBRANCH   8  24
TORSDOF 5
ENDMDL
MODEL 2
REMARK VINA RESULT:      -6.5      1.819      2.127
REMARK  5 active torsions:
REMARK  status: ('A' for Active; 'I' for Inactive)
REMARK    1  A    between atoms: C4_4  and  C5_5 
REMARK    2  A    between atoms: C8_8  and  O9_9 
REMARK    3  A    between atoms: C10_11  and  O11_12 
REMARK    4  A    between atoms: C16_18  and  O17_19 
REMARK    5  A    between atoms: C19_22  and  O20_23 
ROOT
HETATM    1  O1          0      33.172  83.776 -29.297  1.00  0.00    -0.286 OA
HETATM    2  C2          0      34.432  83.738 -29.351  1.00  0.00     0.201 C 
HETATM    3  C3          0      35.126  83.475 -30.520  1.00  0.00     0.067 C 
HETATM    4  C4          0      36.510  83.338 -30.530  1.00  0.00     0.103 C 
HETATM    5  O13         0      37.171  83.484 -29.395  1.00  0.00    -0.307 OA
HETATM    6  C14         0      36.558  83.697 -28.252  1.00  0.00     0.107 C 
HETATM    7  C15         0      37.178  83.455 -27.034  1.00  0.00     0.049 C 
HETATM    8  C16         0      36.454  83.436 -25.848  1.00  0.00     0.093 C 
HETATM    9  C18         0      35.272  84.165 -25.869  1.00  0.00     0.048 C 
HETATM   10  C19         0      34.649  84.465 -27.073  1.00  0.00     0.096 C 
HETATM   11  C21         0      35.214  84.054 -28.250  1.00  0.00     0.084 C 
ENDROOT
BRANCH  10  12
HETATM   12  O20         0      33.297  84.791 -27.077  1.00  0.00    -0.359 OA
HETATM   13  H20         0      32.673  84.101 -27.266  1.00  0.00     0.218 HD
ENDBRANCH  10  12
BRANCH   4  14
HETATM   14  C5          0      37.092  82.504 -31.583  1.00  0.00     0.025 C 
HETATM   15  C6          0      38.282  81.809 -31.420  1.00  0.00     0.004 C 
HETATM   16  C7          0      38.370  80.540 -31.984  1.00  0.00     0.026 C 
HETATM   17  C8          0      37.362  80.032 -32.796  1.00  0.00     0.112 C 
HETATM   18  C10         0      36.560  80.993 -33.397  1.00  0.00     0.112 C 
HETATM   19  C12         0      36.422  82.224 -32.767  1.00  0.00     0.028 C 
BRANCH  17  20
HETATM   20  O9          0      37.078  78.677 -32.810  1.00  0.00    -0.357 OA
HETATM   21  H9          0      37.737  77.999 -32.715  1.00  0.00     0.218 HD
ENDBRANCH  17  20
BRANCH  18  22
HETATM   22  O11         0      35.665  80.552 -34.360  1.00  0.00    -0.357 OA
HETATM   23  H11         0      35.973  80.536 -35.259  1.00  0.00     0.218 HD
ENDBRANCH  18  22
ENDBRANCH   4  14
BRANCH   8  24
HETATM   24  O17         0      36.720  82.494 -24.847  1.00  0.00    -0.359 OA
HETATM   25  H17         0      36.437  82.625 -23.950  1.00  0.00     0.218 HD
ENDBRANCH   8  24
TORSDOF 5
ENDMDL
MODEL 3
REMARK VINA RESULT:      -6.5      1.905      6.695
REMARK  5 active torsions:
REMARK  status: ('A' for Active; 'I' for Inactive)
REMARK    1  A    between atoms: C4_4  and  C5_5 
REMARK    2  A    between atoms: C8_8  and  O9_9 
REMARK    3  A    between atoms: C10_11  and  O11_12 
REMARK    4  A    between atoms: C16_18  and  O17_19 
REMARK    5  A    between atoms: C19_22  and  O20_23 
ROOT
HETATM    1  O1          0      39.826  80.228 -30.015  1.00  0.00    -0.286 OA
HETATM    2  C2          0      39.083  81.212 -30.283  1.00  0.00     0.201 C 
HETATM    3  C3          0      38.799  82.210 -29.366  1.00  0.00     0.067 C 
HETATM    4  C4          0      37.896  83.227 -29.652  1.00  0.00     0.103 C 
HETATM    5  O13         0      37.314  83.244 -30.838  1.00  0.00    -0.307 OA
HETATM    6  C14         0      37.519  82.301 -31.731  1.00  0.00     0.107 C 
HETATM    7  C15         0      36.642  82.087 -32.784  1.00  0.00     0.049 C 
HETATM    8  C16         0      36.720  80.943 -33.569  1.00  0.00     0.093 C 
HETATM    9  C18         0      37.971  80.338 -33.601  1.00  0.00     0.048 C 
HETATM   10  C19         0      38.891  80.567 -32.587  1.00  0.00     0.096 C 
HETATM   11  C21         0      38.571  81.408 -31.556  1.00  0.00     0.084 C 
ENDROOT
BRANCH  10  12
HETATM   12  O20         0      39.926  79.658 -32.390  1.00  0.00    -0.359 OA
HETATM   13  H20         0      39.754  78.742 -32.572  1.00  0.00     0.218 HD
ENDBRANCH  10  12
BRANCH   4  14
HETATM   14  C5          0      37.206  83.848 -28.520  1.00  0.00     0.025 C 
HETATM   15  C6          0      36.200  84.791 -28.678  1.00  0.00     0.004 C 
HETATM   16  C7          0      35.123  84.736 -27.799  1.00  0.00     0.026 C 
HETATM   17  C8          0      35.107  83.863 -26.717  1.00  0.00     0.112 C 
HETATM   18  C10         0      36.361  83.449 -26.288  1.00  0.00     0.112 C 
HETATM   19  C12         0      37.402  83.432 -27.210  1.00  0.00     0.028 C 
BRANCH  17  20
HETATM   20  O9          0      33.921  83.309 -26.271  1.00  0.00    -0.357 OA
HETATM   21  H9          0      33.065  83.553 -26.605  1.00  0.00     0.218 HD
ENDBRANCH  17  20
BRANCH  18  22
HETATM   22  O11         0      36.414  82.731 -25.102  1.00  0.00    -0.357 OA
HETATM   23  H11         0      36.007  81.873 -25.099  1.00  0.00     0.218 HD
ENDBRANCH  18  22
ENDBRANCH   4  14
BRANCH   8  24
HETATM   24  O17         0      35.569  80.277 -34.004  1.00  0.00    -0.359 OA
HETATM   25  H17         0      35.347  79.408 -33.690  1.00  0.00     0.218 HD
ENDBRANCH   8  24
TORSDOF 5
ENDMDL
MODEL 4
REMARK VINA RESULT:      -6.5      8.709     10.770
REMARK  5 active torsions:
REMARK  status: ('A' for Active; 'I' for Inactive)
REMARK    1  A    between atoms: C4_4  and  C5_5 
REMARK    2  A    between atoms: C8_8  and  O9_9 
REMARK    3  A    between atoms: C10_11  and  O11_12 
REMARK    4  A    between atoms: C16_18  and  O17_19 
REMARK    5  A    between atoms: C19_22  and  O20_23 
ROOT
HETATM    1  O1          0      33.476  78.126 -32.034  1.00  0.00    -0.286 OA
HETATM    2  C2          0      33.545  77.378 -33.048  1.00  0.00     0.201 C 
HETATM    3  C3          0      32.473  76.628 -33.501  1.00  0.00     0.067 C 
HETATM    4  C4          0      32.604  75.734 -34.557  1.00  0.00     0.103 C 
HETATM    5  O13         0      33.779  75.619 -35.150  1.00  0.00    -0.307 OA
HETATM    6  C14         0      34.838  76.280 -34.735  1.00  0.00     0.107 C 
HETATM    7  C15         0      36.125  75.882 -35.070  1.00  0.00     0.049 C 
HETATM    8  C16         0      37.236  76.420 -34.431  1.00  0.00     0.093 C 
HETATM    9  C18         0      37.042  77.681 -33.879  1.00  0.00     0.048 C 
HETATM   10  C19         0      35.763  78.128 -33.575  1.00  0.00     0.096 C 
HETATM   11  C21         0      34.684  77.330 -33.837  1.00  0.00     0.084 C 
ENDROOT
BRANCH  10  12
HETATM   12  O20         0      35.605  79.158 -32.652  1.00  0.00    -0.359 OA
HETATM   13  H20         0      36.186  79.176 -31.901  1.00  0.00     0.218 HD
ENDBRANCH  10  12
BRANCH   4  14
HETATM   14  C5          0      31.685  74.594 -34.589  1.00  0.00     0.025 C 
HETATM   15  C6          0      30.313  74.739 -34.738  1.00  0.00     0.004 C 
HETATM   16  C7          0      29.648  73.801 -35.522  1.00  0.00     0.026 C 
HETATM   17  C8          0      30.299  72.682 -36.030  1.00  0.00     0.112 C 
HETATM   18  C10         0      31.436  72.304 -35.329  1.00  0.00     0.112 C 
HETATM   19  C12         0      32.130  73.279 -34.623  1.00  0.00     0.028 C 
BRANCH  17  20
HETATM   20  O9          0      29.938  72.147 -37.254  1.00  0.00    -0.357 OA
HETATM   21  H9          0      30.552  71.984 -37.961  1.00  0.00     0.218 HD
ENDBRANCH  17  20
BRANCH  18  22
HETATM   22  O11         0      32.014  71.092 -35.676  1.00  0.00    -0.357 OA
HETATM   23  H11         0      31.482  70.491 -36.185  1.00  0.00     0.218 HD
ENDBRANCH  18  22
ENDBRANCH   4  14
BRANCH   8  24
HETATM   24  O17         0      38.333  75.625 -34.082  1.00  0.00    -0.359 OA
HETATM   25  H17         0      38.227  74.721 -33.810  1.00  0.00     0.218 HD
ENDBRANCH   8  24
TORSDOF 5
ENDMDL
MODEL 5
REMARK VINA RESULT:      -6.4      2.007      6.348
REMARK  5 active torsions:
REMARK  status: ('A' for Active; 'I' for Inactive)
REMARK    1  A    between atoms: C4_4  and  C5_5 
REMARK    2  A    between atoms: C8_8  and  O9_9 
REMARK    3  A    between atoms: C10_11  and  O11_12 
REMARK    4  A    between atoms: C16_18  and  O17_19 
REMARK    5  A    between atoms: C19_22  and  O20_23 
ROOT
HETATM    1  O1          0      35.176  84.692 -33.365  1.00  0.00    -0.286 OA
HETATM    2  C2          0      35.593  83.946 -32.438  1.00  0.00     0.201 C 
HETATM    3  C3          0      35.256  84.141 -31.109  1.00  0.00     0.067 C 
HETATM    4  C4          0      35.811  83.368 -30.096  1.00  0.00     0.103 C 
HETATM    5  O13         0      36.666  82.414 -30.421  1.00  0.00    -0.307 OA
HETATM    6  C14         0      37.049  82.212 -31.663  1.00  0.00     0.107 C 
HETATM    7  C15         0      38.208  81.513 -31.966  1.00  0.00     0.049 C 
HETATM    8  C16         0      38.741  81.520 -33.249  1.00  0.00     0.093 C 
HETATM    9  C18         0      37.826  81.780 -34.263  1.00  0.00     0.048 C 
HETATM   10  C19         0      36.635  82.436 -33.986  1.00  0.00     0.096 C 
HETATM   11  C21         0      36.350  82.815 -32.703  1.00  0.00     0.084 C 
ENDROOT
BRANCH  10  12
HETATM   12  O20         0      35.951  83.068 -35.020  1.00  0.00    -0.359 OA
HETATM   13  H20         0      36.431  83.270 -35.814  1.00  0.00     0.218 HD
ENDBRANCH  10  12
BRANCH   4  14
HETATM   14  C5          0      35.903  83.973 -28.766  1.00  0.00     0.025 C 
HETATM   15  C6          0      34.792  84.213 -27.971  1.00  0.00     0.004 C 
HETATM   16  C7          0      34.920  84.001 -26.602  1.00  0.00     0.026 C 
HETATM   17  C8          0      36.147  83.689 -26.024  1.00  0.00     0.112 C 
HETATM   18  C10         0      37.253  84.089 -26.761  1.00  0.00     0.112 C 
HETATM   19  C12         0      37.119  84.212 -28.139  1.00  0.00     0.028 C 
BRANCH  17  20
HETATM   20  O9          0      36.219  82.863 -24.917  1.00  0.00    -0.357 OA
HETATM   21  H9          0      35.975  81.944 -24.927  1.00  0.00     0.218 HD
ENDBRANCH  17  20
BRANCH  18  22
HETATM   22  O11         0      38.492  83.974 -26.147  1.00  0.00    -0.357 OA
HETATM   23  H11         0      38.610  84.439 -25.327  1.00  0.00     0.218 HD
ENDBRANCH  18  22
ENDBRANCH   4  14
BRANCH   8  24
HETATM   24  O17         0      40.121  81.599 -33.465  1.00  0.00    -0.359 OA
HETATM   25  H17         0      40.717  81.893 -32.786  1.00  0.00     0.218 HD
ENDBRANCH   8  24
TORSDOF 5
ENDMDL
MODEL 6
REMARK VINA RESULT:      -6.3      3.983      5.329
REMARK  5 active torsions:
REMARK  status: ('A' for Active; 'I' for Inactive)
REMARK    1  A    between atoms: C4_4  and  C5_5 
REMARK    2  A    between atoms: C8_8  and  O9_9 
REMARK    3  A    between atoms: C10_11  and  O11_12 
REMARK    4  A    between atoms: C16_18  and  O17_19 
REMARK    5  A    between atoms: C19_22  and  O20_23 
ROOT
HETATM    1  O1          0      33.034  83.509 -28.446  1.00  0.00    -0.286 OA
HETATM    2  C2          0      33.920  84.382 -28.655  1.00  0.00     0.201 C 
HETATM    3  C3          0      33.847  85.290 -29.698  1.00  0.00     0.067 C 
HETATM    4  C4          0      34.885  86.174 -29.969  1.00  0.00     0.103 C 
HETATM    5  O13         0      35.955  86.153 -29.194  1.00  0.00    -0.307 OA
HETATM    6  C14         0      36.091  85.287 -28.214  1.00  0.00     0.107 C 
HETATM    7  C15         0      37.332  84.990 -27.668  1.00  0.00     0.049 C 
HETATM    8  C16         0      37.506  83.902 -26.821  1.00  0.00     0.093 C 
HETATM    9  C18         0      36.359  83.489 -26.153  1.00  0.00     0.048 C 
HETATM   10  C19         0      35.102  83.810 -26.646  1.00  0.00     0.096 C 
HETATM   11  C21         0      34.989  84.552 -27.789  1.00  0.00     0.084 C 
ENDROOT
BRANCH  10  12
HETATM   12  O20         0      34.002  83.055 -26.247  1.00  0.00    -0.359 OA
HETATM   13  H20         0      33.664  82.407 -26.853  1.00  0.00     0.218 HD
ENDBRANCH  10  12
BRANCH   4  14
HETATM   14  C5          0      35.024  86.642 -31.349  1.00  0.00     0.025 C 
HETATM   15  C6          0      34.533  87.865 -31.782  1.00  0.00     0.004 C 
HETATM   16  C7          0      35.300  88.579 -32.697  1.00  0.00     0.026 C 
HETATM   17  C8          0      36.448  88.039 -33.266  1.00  0.00     0.112 C 
HETATM   18  C10         0      36.495  86.651 -33.270  1.00  0.00     0.112 C 
HETATM   19  C12         0      35.787  85.964 -32.291  1.00  0.00     0.028 C 
BRANCH  17  20
HETATM   20  O9          0      37.524  88.845 -33.595  1.00  0.00    -0.357 OA
HETATM   21  H9          0      37.912  89.476 -32.999  1.00  0.00     0.218 HD
ENDBRANCH  17  20
BRANCH  18  22
HETATM   22  O11         0      37.523  86.060 -33.991  1.00  0.00    -0.357 OA
HETATM   23  H11         0      37.815  85.204 -33.699  1.00  0.00     0.218 HD
ENDBRANCH  18  22
ENDBRANCH   4  14
BRANCH   8  24
HETATM   24  O17         0      38.644  83.092 -26.899  1.00  0.00    -0.359 OA
HETATM   25  H17         0      38.829  82.564 -27.667  1.00  0.00     0.218 HD
ENDBRANCH   8  24
TORSDOF 5
ENDMDL
MODEL 7
REMARK VINA RESULT:      -6.3      4.601      8.101
REMARK  5 active torsions:
REMARK  status: ('A' for Active; 'I' for Inactive)
REMARK    1  A    between atoms: C4_4  and  C5_5 
REMARK    2  A    between atoms: C8_8  and  O9_9 
REMARK    3  A    between atoms: C10_11  and  O11_12 
REMARK    4  A    between atoms: C16_18  and  O17_19 
REMARK    5  A    between atoms: C19_22  and  O20_23 
ROOT
HETATM    1  O1          0      36.654  88.224 -29.241  1.00  0.00    -0.286 OA
HETATM    2  C2          0      35.729  87.447 -29.605  1.00  0.00     0.201 C 
HETATM    3  C3          0      34.743  87.823 -30.502  1.00  0.00     0.067 C 
HETATM    4  C4          0      33.678  86.983 -30.807  1.00  0.00     0.103 C 
HETATM    5  O13         0      33.625  85.792 -30.237  1.00  0.00    -0.307 OA
HETATM    6  C14         0      34.515  85.401 -29.351  1.00  0.00     0.107 C 
HETATM    7  C15         0      34.261  84.358 -28.471  1.00  0.00     0.049 C 
HETATM    8  C16         0      35.087  84.117 -27.380  1.00  0.00     0.093 C 
HETATM    9  C18         0      36.390  84.581 -27.517  1.00  0.00     0.048 C 
HETATM   10  C19         0      36.688  85.591 -28.421  1.00  0.00     0.096 C 
HETATM   11  C21         0      35.694  86.123 -29.197  1.00  0.00     0.084 C 
ENDROOT
BRANCH  10  12
HETATM   12  O20         0      37.851  86.336 -28.251  1.00  0.00    -0.359 OA
HETATM   13  H20         0      38.643  85.874 -28.006  1.00  0.00     0.218 HD
ENDBRANCH  10  12
BRANCH   4  14
HETATM   14  C5          0      32.429  87.615 -31.237  1.00  0.00     0.025 C 
HETATM   15  C6          0      31.533  86.999 -32.098  1.00  0.00     0.004 C 
HETATM   16  C7          0      30.175  87.179 -31.852  1.00  0.00     0.026 C 
HETATM   17  C8          0      29.722  88.050 -30.867  1.00  0.00     0.112 C 
HETATM   18  C10         0      30.619  89.052 -30.521  1.00  0.00     0.112 C 
HETATM   19  C12         0      31.977  88.812 -30.698  1.00  0.00     0.028 C 
BRANCH  17  20
HETATM   20  O9          0      28.561  87.783 -30.164  1.00  0.00    -0.357 OA
HETATM   21  H9          0      27.937  88.450 -29.901  1.00  0.00     0.218 HD
ENDBRANCH  17  20
BRANCH  18  22
HETATM   22  O11         0      30.150  90.055 -29.685  1.00  0.00    -0.357 OA
HETATM   23  H11         0      29.658  90.759 -30.092  1.00  0.00     0.218 HD
ENDBRANCH  18  22
ENDBRANCH   4  14
BRANCH   8  24
HETATM   24  O17         0      34.563  83.750 -26.136  1.00  0.00    -0.359 OA
HETATM   25  H17         0      33.657  83.483 -26.035  1.00  0.00     0.218 HD
ENDBRANCH   8  24
TORSDOF 5
ENDMDL
MODEL 8
REMARK VINA RESULT:      -6.3     10.898     12.994
REMARK  5 active torsions:
REMARK  status: ('A' for Active; 'I' for Inactive)
REMARK    1  A    between atoms: C4_4  and  C5_5 
REMARK    2  A    between atoms: C8_8  and  O9_9 
REMARK    3  A    between atoms: C10_11  and  O11_12 
REMARK    4  A    between atoms: C16_18  and  O17_19 
REMARK    5  A    between atoms: C19_22  and  O20_23 
ROOT
HETATM    1  O1          0      28.497  74.099 -35.606  1.00  0.00    -0.286 OA
HETATM    2  C2          0      29.697  73.764 -35.406  1.00  0.00     0.201 C 
HETATM    3  C3          0      30.634  74.622 -34.857  1.00  0.00     0.067 C 
HETATM    4  C4          0      31.972  74.262 -34.742  1.00  0.00     0.103 C 
HETATM    5  O13         0      32.344  73.062 -35.151  1.00  0.00    -0.307 OA
HETATM    6  C14         0      31.502  72.223 -35.714  1.00  0.00     0.107 C 
HETATM    7  C15         0      31.939  71.160 -36.492  1.00  0.00     0.049 C 
HETATM    8  C16         0      31.057  70.436 -37.286  1.00  0.00     0.093 C 
HETATM    9  C18         0      29.732  70.466 -36.868  1.00  0.00     0.048 C 
HETATM   10  C19         0      29.272  71.490 -36.051  1.00  0.00     0.096 C 
HETATM   11  C21         0      30.135  72.469 -35.639  1.00  0.00     0.084 C 
ENDROOT
BRANCH  10  12
HETATM   12  O20         0      27.908  71.759 -35.999  1.00  0.00    -0.359 OA
HETATM   13  H20         0      27.319  71.038 -35.815  1.00  0.00     0.218 HD
ENDBRANCH  10  12
BRANCH   4  14
HETATM   14  C5          0      32.959  75.343 -34.741  1.00  0.00     0.025 C 
HETATM   15  C6          0      32.633  76.659 -35.035  1.00  0.00     0.004 C 
HETATM   16  C7          0      33.263  77.659 -34.301  1.00  0.00     0.026 C 
HETATM   17  C8          0      34.280  77.370 -33.399  1.00  0.00     0.112 C 
HETATM   18  C10         0      34.945  76.175 -33.638  1.00  0.00     0.112 C 
HETATM   19  C12         0      34.263  75.161 -34.299  1.00  0.00     0.028 C 
BRANCH  17  20
HETATM   20  O9          0      34.445  78.124 -32.251  1.00  0.00    -0.357 OA
HETATM   21  H9          0      33.861  78.829 -31.994  1.00  0.00     0.218 HD
ENDBRANCH  17  20
BRANCH  18  22
HETATM   22  O11         0      36.086  75.929 -32.887  1.00  0.00    -0.357 OA
HETATM   23  H11         0      36.625  76.680 -32.666  1.00  0.00     0.218 HD
ENDBRANCH  18  22
ENDBRANCH   4  14
BRANCH   8  24
HETATM   24  O17         0      31.415  70.007 -38.568  1.00  0.00    -0.359 OA
HETATM   25  H17         0      31.434  69.085 -38.799  1.00  0.00     0.218 HD
ENDBRANCH   8  24
TORSDOF 5
ENDMDL
MODEL 9
REMARK VINA RESULT:      -6.3      3.843      4.786
REMARK  5 active torsions:
REMARK  status: ('A' for Active; 'I' for Inactive)
REMARK    1  A    between atoms: C4_4  and  C5_5 
REMARK    2  A    between atoms: C8_8  and  O9_9 
REMARK    3  A    between atoms: C10_11  and  O11_12 
REMARK    4  A    between atoms: C16_18  and  O17_19 
REMARK    5  A    between atoms: C19_22  and  O20_23 
ROOT
HETATM    1  O1          0      33.022  83.335 -28.548  1.00  0.00    -0.286 OA
HETATM    2  C2          0      33.906  84.182 -28.855  1.00  0.00     0.201 C 
HETATM    3  C3          0      33.875  84.904 -30.035  1.00  0.00     0.067 C 
HETATM    4  C4          0      34.914  85.755 -30.396  1.00  0.00     0.103 C 
HETATM    5  O13         0      35.942  85.885 -29.575  1.00  0.00    -0.307 OA
HETATM    6  C14         0      36.038  85.194 -28.461  1.00  0.00     0.107 C 
HETATM    7  C15         0      37.253  85.018 -27.813  1.00  0.00     0.049 C 
HETATM    8  C16         0      37.397  84.087 -26.791  1.00  0.00     0.093 C 
HETATM    9  C18         0      36.223  83.765 -26.121  1.00  0.00     0.048 C 
HETATM   10  C19         0      34.988  83.972 -26.722  1.00  0.00     0.096 C 
HETATM   11  C21         0      34.926  84.514 -27.976  1.00  0.00     0.084 C 
ENDROOT
BRANCH  10  12
HETATM   12  O20         0      33.880  83.269 -26.259  1.00  0.00    -0.359 OA
HETATM   13  H20         0      33.404  83.625 -25.519  1.00  0.00     0.218 HD
ENDBRANCH  10  12
BRANCH   4  14
HETATM   14  C5          0      35.119  85.993 -31.826  1.00  0.00     0.025 C 
HETATM   15  C6          0      36.376  86.011 -32.412  1.00  0.00     0.004 C 
HETATM   16  C7          0      36.505  85.450 -33.679  1.00  0.00     0.026 C 
HETATM   17  C8          0      35.399  85.006 -34.396  1.00  0.00     0.112 C 
HETATM   18  C10         0      34.195  85.591 -34.025  1.00  0.00     0.112 C 
HETATM   19  C12         0      34.065  86.068 -32.726  1.00  0.00     0.028 C 
BRANCH  17  20
HETATM   20  O9          0      35.495  83.920 -35.247  1.00  0.00    -0.357 OA
HETATM   21  H9          0      36.278  83.704 -35.740  1.00  0.00     0.218 HD
ENDBRANCH  17  20
BRANCH  18  22
HETATM   22  O11         0      33.095  85.328 -34.829  1.00  0.00    -0.357 OA
HETATM   23  H11         0      32.381  85.954 -34.799  1.00  0.00     0.218 HD
ENDBRANCH  18  22
ENDBRANCH   4  14
BRANCH   8  24
HETATM   24  O17         0      38.548  83.301 -26.678  1.00  0.00    -0.359 OA
HETATM   25  H17         0      39.076  83.076 -27.435  1.00  0.00     0.218 HD
ENDBRANCH   8  24
TORSDOF 5
ENDMDL
