MODEL 1
REMARK VINA RESULT:      -4.2      0.000      0.000
REMARK  5 active torsions:
REMARK  status: ('A' for Active; 'I' for Inactive)
REMARK    1  A    between atoms: C4_4  and  C5_5 
REMARK    2  A    between atoms: C8_8  and  O9_9 
REMARK    3  A    between atoms: C10_11  and  O11_12 
REMARK    4  A    between atoms: C16_18  and  O17_19 
REMARK    5  A    between atoms: C19_22  and  O20_23 
ROOT
HETATM    1  O1          0      24.799  15.325   5.138  1.00  0.00    -0.286 OA
HETATM    2  C2          0      25.926  15.407   5.697  1.00  0.00     0.201 C 
HETATM    3  C3          0      26.615  14.301   6.165  1.00  0.00     0.067 C 
HETATM    4  C4          0      27.807  14.429   6.869  1.00  0.00     0.103 C 
HETATM    5  O13         0      28.297  15.639   7.074  1.00  0.00    -0.307 OA
HETATM    6  C14         0      27.664  16.724   6.684  1.00  0.00     0.107 C 
HETATM    7  C15         0      27.947  17.970   7.226  1.00  0.00     0.049 C 
HETATM    8  C16         0      27.114  19.059   7.003  1.00  0.00     0.093 C 
HETATM    9  C18         0      26.349  18.987   5.845  1.00  0.00     0.048 C 
HETATM   10  C19         0      26.087  17.761   5.249  1.00  0.00     0.096 C 
HETATM   11  C21         0      26.599  16.616   5.797  1.00  0.00     0.084 C 
ENDROOT
BRANCH  10  12
HETATM   12  O20         0      25.002  17.642   4.386  1.00  0.00    -0.359 OA
HETATM   13  H20         0      24.679  16.770   4.194  1.00  0.00     0.218 HD
ENDBRANCH  10  12
BRANCH   4  14
HETATM   14  C5          0      28.144  13.363   7.814  1.00  0.00     0.025 C 
HETATM   15  C6          0      29.324  12.637   7.740  1.00  0.00     0.004 C 
HETATM   16  C7          0      29.948  12.297   8.936  1.00  0.00     0.026 C 
HETATM   17  C8          0      29.354  12.551  10.167  1.00  0.00     0.112 C 
HETATM   18  C10         0      27.971  12.676  10.128  1.00  0.00     0.112 C 
HETATM   19  C12         0      27.380  13.101   8.944  1.00  0.00     0.028 C 
BRANCH  17  20
HETATM   20  O9          0      30.122  12.858  11.275  1.00  0.00    -0.357 OA
HETATM   21  H9          0      29.828  12.739  12.171  1.00  0.00     0.218 HD
ENDBRANCH  17  20
BRANCH  18  22
HETATM   22  O11         0      27.312  12.741  11.347  1.00  0.00    -0.357 OA
HETATM   23  H11         0      26.504  12.246  11.426  1.00  0.00     0.218 HD
ENDBRANCH  18  22
ENDBRANCH   4  14
BRANCH   8  24
HETATM   24  O17         0      26.823  19.975   8.020  1.00  0.00    -0.359 OA
HETATM   25  H17         0      26.725  19.702   8.925  1.00  0.00     0.218 HD
ENDBRANCH   8  24
TORSDOF 5
ENDMDL
MODEL 2
REMARK VINA RESULT:      -4.2      9.203     10.616
REMARK  5 active torsions:
REMARK  status: ('A' for Active; 'I' for Inactive)
REMARK    1  A    between atoms: C4_4  and  C5_5 
REMARK    2  A    between atoms: C8_8  and  O9_9 
REMARK    3  A    between atoms: C10_11  and  O11_12 
REMARK    4  A    between atoms: C16_18  and  O17_19 
REMARK    5  A    between atoms: C19_22  and  O20_23 
ROOT
HETATM    1  O1          0      24.939  17.823  14.414  1.00  0.00    -0.286 OA
HETATM    2  C2          0      24.481  17.553  15.559  1.00  0.00     0.201 C 
HETATM    3  C3          0      25.289  17.202  16.626  1.00  0.00     0.067 C 
HETATM    4  C4          0      24.754  16.810  17.848  1.00  0.00     0.103 C 
HETATM    5  O13         0      23.440  16.795  17.989  1.00  0.00    -0.307 OA
HETATM    6  C14         0      22.627  17.083  16.997  1.00  0.00     0.107 C 
HETATM    7  C15         0      21.295  16.693  17.006  1.00  0.00     0.049 C 
HETATM    8  C16         0      20.512  16.771  15.861  1.00  0.00     0.093 C 
HETATM    9  C18         0      20.934  17.708  14.925  1.00  0.00     0.048 C 
HETATM   10  C19         0      22.248  18.156  14.917  1.00  0.00     0.096 C 
HETATM   11  C21         0      23.131  17.683  15.848  1.00  0.00     0.084 C 
ENDROOT
BRANCH  10  12
HETATM   12  O20         0      22.764  18.728  13.759  1.00  0.00    -0.359 OA
HETATM   13  H20         0      22.459  19.594  13.515  1.00  0.00     0.218 HD
ENDBRANCH  10  12
BRANCH   4  14
HETATM   14  C5          0      25.562  15.915  18.678  1.00  0.00     0.025 C 
HETATM   15  C6          0      25.273  14.567  18.832  1.00  0.00     0.004 C 
HETATM   16  C7          0      26.343  13.680  18.885  1.00  0.00     0.026 C 
HETATM   17  C8          0      27.659  14.126  18.919  1.00  0.00     0.112 C 
HETATM   18  C10         0      27.820  15.421  19.393  1.00  0.00     0.112 C 
HETATM   19  C12         0      26.763  16.313  19.250  1.00  0.00     0.028 C 
BRANCH  17  20
HETATM   20  O9          0      28.672  13.395  18.324  1.00  0.00    -0.357 OA
HETATM   21  H9          0      28.660  12.448  18.240  1.00  0.00     0.218 HD
ENDBRANCH  17  20
BRANCH  18  22
HETATM   22  O11         0      29.120  15.849  19.626  1.00  0.00    -0.357 OA
HETATM   23  H11         0      29.365  16.694  19.269  1.00  0.00     0.218 HD
ENDBRANCH  18  22
ENDBRANCH   4  14
BRANCH   8  24
HETATM   24  O17         0      19.595  15.766  15.534  1.00  0.00    -0.359 OA
HETATM   25  H17         0      19.478  15.000  16.083  1.00  0.00     0.218 HD
ENDBRANCH   8  24
TORSDOF 5
ENDMDL
MODEL 3
REMARK VINA RESULT:      -4.1      1.921      6.543
REMARK  5 active torsions:
REMARK  status: ('A' for Active; 'I' for Inactive)
REMARK    1  A    between atoms: C4_4  and  C5_5 
REMARK    2  A    between atoms: C8_8  and  O9_9 
REMARK    3  A    between atoms: C10_11  and  O11_12 
REMARK    4  A    between atoms: C16_18  and  O17_19 
REMARK    5  A    between atoms: C19_22  and  O20_23 
ROOT
HETATM    1  O1          0      29.755  12.808   9.141  1.00  0.00    -0.286 OA
HETATM    2  C2          0      28.584  13.181   8.854  1.00  0.00     0.201 C 
HETATM    3  C3          0      28.310  14.073   7.831  1.00  0.00     0.067 C 
HETATM    4  C4          0      27.023  14.546   7.603  1.00  0.00     0.103 C 
HETATM    5  O13         0      26.041  14.113   8.374  1.00  0.00    -0.307 OA
HETATM    6  C14         0      26.253  13.296   9.383  1.00  0.00     0.107 C 
HETATM    7  C15         0      25.337  13.157  10.415  1.00  0.00     0.049 C 
HETATM    8  C16         0      25.671  12.497  11.592  1.00  0.00     0.093 C 
HETATM    9  C18         0      26.699  11.571  11.474  1.00  0.00     0.048 C 
HETATM   10  C19         0      27.606  11.653  10.426  1.00  0.00     0.096 C 
HETATM   11  C21         0      27.477  12.645   9.492  1.00  0.00     0.084 C 
ENDROOT
BRANCH  10  12
HETATM   12  O20         0      28.844  11.028  10.547  1.00  0.00    -0.359 OA
HETATM   13  H20         0      28.971  10.428  11.272  1.00  0.00     0.218 HD
ENDBRANCH  10  12
BRANCH   4  14
HETATM   14  C5          0      26.895  15.860   6.970  1.00  0.00     0.025 C 
HETATM   15  C6          0      25.680  16.517   6.840  1.00  0.00     0.004 C 
HETATM   16  C7          0      25.671  17.897   7.016  1.00  0.00     0.026 C 
HETATM   17  C8          0      26.849  18.619   7.181  1.00  0.00     0.112 C 
HETATM   18  C10         0      27.984  18.000   6.674  1.00  0.00     0.112 C 
HETATM   19  C12         0      27.998  16.613   6.589  1.00  0.00     0.028 C 
BRANCH  17  20
HETATM   20  O9          0      26.881  19.750   7.977  1.00  0.00    -0.357 OA
HETATM   21  H9          0      26.196  19.982   8.593  1.00  0.00     0.218 HD
ENDBRANCH  17  20
BRANCH  18  22
HETATM   22  O11         0      29.148  18.754   6.642  1.00  0.00    -0.357 OA
HETATM   23  H11         0      29.967  18.277   6.566  1.00  0.00     0.218 HD
ENDBRANCH  18  22
ENDBRANCH   4  14
BRANCH   8  24
HETATM   24  O17         0      25.246  12.970  12.839  1.00  0.00    -0.359 OA
HETATM   25  H17         0      25.757  13.599  13.334  1.00  0.00     0.218 HD
ENDBRANCH   8  24
TORSDOF 5
ENDMDL
MODEL 4
REMARK VINA RESULT:      -4.1      9.828     10.845
REMARK  5 active torsions:
REMARK  status: ('A' for Active; 'I' for Inactive)
REMARK    1  A    between atoms: C4_4  and  C5_5 
REMARK    2  A    between atoms: C8_8  and  O9_9 
REMARK    3  A    between atoms: C10_11  and  O11_12 
REMARK    4  A    between atoms: C16_18  and  O17_19 
REMARK    5  A    between atoms: C19_22  and  O20_23 
ROOT
HETATM    1  O1          0      23.997  16.691  13.721  1.00  0.00    -0.286 OA
HETATM    2  C2          0      23.564  17.512  14.577  1.00  0.00     0.201 C 
HETATM    3  C3          0      24.331  17.967  15.635  1.00  0.00     0.067 C 
HETATM    4  C4          0      23.798  18.790  16.621  1.00  0.00     0.103 C 
HETATM    5  O13         0      22.532  19.157  16.524  1.00  0.00    -0.307 OA
HETATM    6  C14         0      21.750  18.723  15.560  1.00  0.00     0.107 C 
HETATM    7  C15         0      20.367  18.768  15.665  1.00  0.00     0.049 C 
HETATM    8  C16         0      19.553  18.084  14.770  1.00  0.00     0.093 C 
HETATM    9  C18         0      20.127  17.832  13.530  1.00  0.00     0.048 C 
HETATM   10  C19         0      21.507  17.826  13.379  1.00  0.00     0.096 C 
HETATM   11  C21         0      22.309  18.088  14.457  1.00  0.00     0.084 C 
ENDROOT
BRANCH  10  12
HETATM   12  O20         0      22.070  17.164  12.293  1.00  0.00    -0.359 OA
HETATM   13  H20         0      22.674  16.453  12.469  1.00  0.00     0.218 HD
ENDBRANCH  10  12
BRANCH   4  14
HETATM   14  C5          0      24.417  18.736  17.946  1.00  0.00     0.025 C 
HETATM   15  C6          0      24.225  17.678  18.823  1.00  0.00     0.004 C 
HETATM   16  C7          0      25.315  17.264  19.583  1.00  0.00     0.026 C 
HETATM   17  C8          0      26.518  17.961  19.572  1.00  0.00     0.112 C 
HETATM   18  C10         0      26.413  19.293  19.195  1.00  0.00     0.112 C 
HETATM   19  C12         0      25.362  19.664  18.365  1.00  0.00     0.028 C 
BRANCH  17  20
HETATM   20  O9          0      27.723  17.297  19.721  1.00  0.00    -0.357 OA
HETATM   21  H9          0      28.540  17.730  19.939  1.00  0.00     0.218 HD
ENDBRANCH  17  20
BRANCH  18  22
HETATM   22  O11         0      27.546  20.081  19.347  1.00  0.00    -0.357 OA
HETATM   23  H11         0      28.303  19.852  18.820  1.00  0.00     0.218 HD
ENDBRANCH  18  22
ENDBRANCH   4  14
BRANCH   8  24
HETATM   24  O17         0      18.400  17.417  15.197  1.00  0.00    -0.359 OA
HETATM   25  H17         0      18.126  16.595  14.807  1.00  0.00     0.218 HD
ENDBRANCH   8  24
TORSDOF 5
ENDMDL
MODEL 5
REMARK VINA RESULT:      -4.0      6.913      9.436
REMARK  5 active torsions:
REMARK  status: ('A' for Active; 'I' for Inactive)
REMARK    1  A    between atoms: C4_4  and  C5_5 
REMARK    2  A    between atoms: C8_8  and  O9_9 
REMARK    3  A    between atoms: C10_11  and  O11_12 
REMARK    4  A    between atoms: C16_18  and  O17_19 
REMARK    5  A    between atoms: C19_22  and  O20_23 
ROOT
HETATM    1  O1          0      23.802  15.864  13.834  1.00  0.00    -0.286 OA
HETATM    2  C2          0      24.473  15.055  14.532  1.00  0.00     0.201 C 
HETATM    3  C3          0      24.496  15.097  15.916  1.00  0.00     0.067 C 
HETATM    4  C4          0      25.324  14.260  16.656  1.00  0.00     0.103 C 
HETATM    5  O13         0      26.088  13.394  16.015  1.00  0.00    -0.307 OA
HETATM    6  C14         0      26.131  13.338  14.702  1.00  0.00     0.107 C 
HETATM    7  C15         0      27.188  12.740  14.031  1.00  0.00     0.049 C 
HETATM    8  C16         0      27.359  12.905  12.661  1.00  0.00     0.093 C 
HETATM    9  C18         0      26.201  13.211  11.958  1.00  0.00     0.048 C 
HETATM   10  C19         0      25.107  13.768  12.607  1.00  0.00     0.096 C 
HETATM   11  C21         0      25.164  14.001  13.954  1.00  0.00     0.084 C 
ENDROOT
BRANCH  10  12
HETATM   12  O20         0      24.155  14.459  11.865  1.00  0.00    -0.359 OA
HETATM   13  H20         0      23.780  15.245  12.244  1.00  0.00     0.218 HD
ENDBRANCH  10  12
BRANCH   4  14
HETATM   14  C5          0      25.749  14.735  17.974  1.00  0.00     0.025 C 
HETATM   15  C6          0      26.222  13.884  18.963  1.00  0.00     0.004 C 
HETATM   16  C7          0      27.274  14.337  19.753  1.00  0.00     0.026 C 
HETATM   17  C8          0      27.752  15.639  19.656  1.00  0.00     0.112 C 
HETATM   18  C10         0      26.844  16.552  19.137  1.00  0.00     0.112 C 
HETATM   19  C12         0      25.853  16.085  18.282  1.00  0.00     0.028 C 
BRANCH  17  20
HETATM   20  O9          0      29.090  15.921  19.865  1.00  0.00    -0.357 OA
HETATM   21  H9          0      29.707  15.303  20.240  1.00  0.00     0.218 HD
ENDBRANCH  17  20
BRANCH  18  22
HETATM   22  O11         0      27.199  17.893  19.194  1.00  0.00    -0.357 OA
HETATM   23  H11         0      28.109  18.089  19.382  1.00  0.00     0.218 HD
ENDBRANCH  18  22
ENDBRANCH   4  14
BRANCH   8  24
HETATM   24  O17         0      28.629  13.084  12.102  1.00  0.00    -0.359 OA
HETATM   25  H17         0      29.421  12.965  12.613  1.00  0.00     0.218 HD
ENDBRANCH   8  24
TORSDOF 5
ENDMDL
MODEL 6
REMARK VINA RESULT:      -4.0      7.157     10.462
REMARK  5 active torsions:
REMARK  status: ('A' for Active; 'I' for Inactive)
REMARK    1  A    between atoms: C4_4  and  C5_5 
REMARK    2  A    between atoms: C8_8  and  O9_9 
REMARK    3  A    between atoms: C10_11  and  O11_12 
REMARK    4  A    between atoms: C16_18  and  O17_19 
REMARK    5  A    between atoms: C19_22  and  O20_23 
ROOT
HETATM    1  O1          0      27.797  13.900  12.997  1.00  0.00    -0.286 OA
HETATM    2  C2          0      27.017  14.093  13.970  1.00  0.00     0.201 C 
HETATM    3  C3          0      26.229  15.225  14.087  1.00  0.00     0.067 C 
HETATM    4  C4          0      25.456  15.461  15.218  1.00  0.00     0.103 C 
HETATM    5  O13         0      25.465  14.567  16.191  1.00  0.00    -0.307 OA
HETATM    6  C14         0      26.223  13.493  16.147  1.00  0.00     0.107 C 
HETATM    7  C15         0      26.544  12.777  17.291  1.00  0.00     0.049 C 
HETATM    8  C16         0      27.540  11.808  17.280  1.00  0.00     0.093 C 
HETATM    9  C18         0      27.793  11.241  16.037  1.00  0.00     0.048 C 
HETATM   10  C19         0      27.443  11.909  14.872  1.00  0.00     0.096 C 
HETATM   11  C21         0      26.827  13.129  14.948  1.00  0.00     0.084 C 
ENDROOT
BRANCH  10  12
HETATM   12  O20         0      28.069  11.568  13.677  1.00  0.00    -0.359 OA
HETATM   13  H20         0      27.857  10.728  13.287  1.00  0.00     0.218 HD
ENDBRANCH  10  12
BRANCH   4  14
HETATM   14  C5          0      25.157  16.856  15.547  1.00  0.00     0.025 C 
HETATM   15  C6          0      24.329  17.651  14.767  1.00  0.00     0.004 C 
HETATM   16  C7          0      23.481  18.536  15.425  1.00  0.00     0.026 C 
HETATM   17  C8          0      23.546  18.723  16.801  1.00  0.00     0.112 C 
HETATM   18  C10         0      24.767  18.393  17.374  1.00  0.00     0.112 C 
HETATM   19  C12         0      25.558  17.442  16.740  1.00  0.00     0.028 C 
BRANCH  17  20
HETATM   20  O9          0      22.407  19.009  17.533  1.00  0.00    -0.357 OA
HETATM   21  H9          0      21.797  19.703  17.310  1.00  0.00     0.218 HD
ENDBRANCH  17  20
BRANCH  18  22
HETATM   22  O11         0      24.950  18.736  18.706  1.00  0.00    -0.357 OA
HETATM   23  H11         0      25.782  18.502  19.100  1.00  0.00     0.218 HD
ENDBRANCH  18  22
ENDBRANCH   4  14
BRANCH   8  24
HETATM   24  O17         0      28.431  11.666  18.349  1.00  0.00    -0.359 OA
HETATM   25  H17         0      28.131  11.455  19.225  1.00  0.00     0.218 HD
ENDBRANCH   8  24
TORSDOF 5
ENDMDL
MODEL 7
REMARK VINA RESULT:      -4.0      4.307      6.571
REMARK  5 active torsions:
REMARK  status: ('A' for Active; 'I' for Inactive)
REMARK    1  A    between atoms: C4_4  and  C5_5 
REMARK    2  A    between atoms: C8_8  and  O9_9 
REMARK    3  A    between atoms: C10_11  and  O11_12 
REMARK    4  A    between atoms: C16_18  and  O17_19 
REMARK    5  A    between atoms: C19_22  and  O20_23 
ROOT
HETATM    1  O1          0      23.057  18.654   2.262  1.00  0.00    -0.286 OA
HETATM    2  C2          0      23.310  19.170   3.385  1.00  0.00     0.201 C 
HETATM    3  C3          0      24.589  19.529   3.774  1.00  0.00     0.067 C 
HETATM    4  C4          0      24.855  20.001   5.055  1.00  0.00     0.103 C 
HETATM    5  O13         0      23.853  20.125   5.907  1.00  0.00    -0.307 OA
HETATM    6  C14         0      22.626  19.763   5.600  1.00  0.00     0.107 C 
HETATM    7  C15         0      21.673  19.512   6.576  1.00  0.00     0.049 C 
HETATM    8  C16         0      20.469  18.891   6.266  1.00  0.00     0.093 C 
HETATM    9  C18         0      20.061  19.028   4.945  1.00  0.00     0.048 C 
HETATM   10  C19         0      20.981  19.325   3.950  1.00  0.00     0.096 C 
HETATM   11  C21         0      22.299  19.502   4.274  1.00  0.00     0.084 C 
ENDROOT
BRANCH  10  12
HETATM   12  O20         0      20.669  19.035   2.625  1.00  0.00    -0.359 OA
HETATM   13  H20         0      21.377  18.781   2.046  1.00  0.00     0.218 HD
ENDBRANCH  10  12
BRANCH   4  14
HETATM   14  C5          0      26.204  19.786   5.581  1.00  0.00     0.025 C 
HETATM   15  C6          0      26.494  19.803   6.937  1.00  0.00     0.004 C 
HETATM   16  C7          0      27.427  18.884   7.409  1.00  0.00     0.026 C 
HETATM   17  C8          0      28.147  18.067   6.544  1.00  0.00     0.112 C 
HETATM   18  C10         0      28.257  18.550   5.247  1.00  0.00     0.112 C 
HETATM   19  C12         0      27.266  19.400   4.772  1.00  0.00     0.028 C 
BRANCH  17  20
HETATM   20  O9          0      28.521  16.790   6.924  1.00  0.00    -0.357 OA
HETATM   21  H9          0      28.730  16.096   6.308  1.00  0.00     0.218 HD
ENDBRANCH  17  20
BRANCH  18  22
HETATM   22  O11         0      29.119  17.873   4.396  1.00  0.00    -0.357 OA
HETATM   23  H11         0      29.924  18.318   4.157  1.00  0.00     0.218 HD
ENDBRANCH  18  22
ENDBRANCH   4  14
BRANCH   8  24
HETATM   24  O17         0      19.902  17.934   7.116  1.00  0.00    -0.359 OA
HETATM   25  H17         0      19.796  18.094   8.047  1.00  0.00     0.218 HD
ENDBRANCH   8  24
TORSDOF 5
ENDMDL
MODEL 8
REMARK VINA RESULT:      -4.0      8.811     11.228
REMARK  5 active torsions:
REMARK  status: ('A' for Active; 'I' for Inactive)
REMARK    1  A    between atoms: C4_4  and  C5_5 
REMARK    2  A    between atoms: C8_8  and  O9_9 
REMARK    3  A    between atoms: C10_11  and  O11_12 
REMARK    4  A    between atoms: C16_18  and  O17_19 
REMARK    5  A    between atoms: C19_22  and  O20_23 
ROOT
HETATM    1  O1          0      25.959  14.480  17.277  1.00  0.00    -0.286 OA
HETATM    2  C2          0      25.162  15.455  17.343  1.00  0.00     0.201 C 
HETATM    3  C3          0      23.982  15.510  16.620  1.00  0.00     0.067 C 
HETATM    4  C4          0      23.173  16.641  16.631  1.00  0.00     0.103 C 
HETATM    5  O13         0      23.537  17.674  17.369  1.00  0.00    -0.307 OA
HETATM    6  C14         0      24.665  17.688  18.045  1.00  0.00     0.107 C 
HETATM    7  C15         0      25.241  18.873  18.481  1.00  0.00     0.049 C 
HETATM    8  C16         0      26.544  18.907  18.964  1.00  0.00     0.093 C 
HETATM    9  C18         0      27.012  17.702  19.473  1.00  0.00     0.048 C 
HETATM   10  C19         0      26.429  16.501  19.094  1.00  0.00     0.096 C 
HETATM   11  C21         0      25.372  16.504  18.224  1.00  0.00     0.084 C 
ENDROOT
BRANCH  10  12
HETATM   12  O20         0      27.147  15.318  19.243  1.00  0.00    -0.359 OA
HETATM   13  H20         0      26.950  14.601  18.653  1.00  0.00     0.218 HD
ENDBRANCH  10  12
BRANCH   4  14
HETATM   14  C5          0      22.333  16.875  15.455  1.00  0.00     0.025 C 
HETATM   15  C6          0      21.936  18.143  15.055  1.00  0.00     0.004 C 
HETATM   16  C7          0      21.893  18.405  13.690  1.00  0.00     0.026 C 
HETATM   17  C8          0      22.107  17.404  12.748  1.00  0.00     0.112 C 
HETATM   18  C10         0      21.865  16.116  13.206  1.00  0.00     0.112 C 
HETATM   19  C12         0      21.998  15.862  14.566  1.00  0.00     0.028 C 
BRANCH  17  20
HETATM   20  O9          0      22.715  17.688  11.538  1.00  0.00    -0.357 OA
HETATM   21  H9          0      22.387  17.386  10.699  1.00  0.00     0.218 HD
ENDBRANCH  17  20
BRANCH  18  22
HETATM   22  O11         0      21.880  15.100  12.261  1.00  0.00    -0.357 OA
HETATM   23  H11         0      22.261  15.305  11.415  1.00  0.00     0.218 HD
ENDBRANCH  18  22
ENDBRANCH   4  14
BRANCH   8  24
HETATM   24  O17         0      27.410  19.961  18.652  1.00  0.00    -0.359 OA
HETATM   25  H17         0      27.084  20.820  18.411  1.00  0.00     0.218 HD
ENDBRANCH   8  24
TORSDOF 5
ENDMDL
MODEL 9
REMARK VINA RESULT:      -3.8      7.159     10.184
REMARK  5 active torsions:
REMARK  status: ('A' for Active; 'I' for Inactive)
REMARK    1  A    between atoms: C4_4  and  C5_5 
REMARK    2  A    between atoms: C8_8  and  O9_9 
REMARK    3  A    between atoms: C10_11  and  O11_12 
REMARK    4  A    between atoms: C16_18  and  O17_19 
REMARK    5  A    between atoms: C19_22  and  O20_23 
ROOT
HETATM    1  O1          0      27.947  14.061  13.012  1.00  0.00    -0.286 OA
HETATM    2  C2          0      27.074  13.886  13.906  1.00  0.00     0.201 C 
HETATM    3  C3          0      26.039  14.779  14.129  1.00  0.00     0.067 C 
HETATM    4  C4          0      25.152  14.615  15.187  1.00  0.00     0.103 C 
HETATM    5  O13         0      25.296  13.569  15.980  1.00  0.00    -0.307 OA
HETATM    6  C14         0      26.283  12.713  15.836  1.00  0.00     0.107 C 
HETATM    7  C15         0      26.676  11.870  16.865  1.00  0.00     0.049 C 
HETATM    8  C16         0      27.867  11.156  16.799  1.00  0.00     0.093 C 
HETATM    9  C18         0      28.336  10.914  15.514  1.00  0.00     0.048 C 
HETATM   10  C19         0      27.926  11.709  14.452  1.00  0.00     0.096 C 
HETATM   11  C21         0      27.041  12.730  14.670  1.00  0.00     0.084 C 
ENDROOT
BRANCH  10  12
HETATM   12  O20         0      28.700  11.753  13.296  1.00  0.00    -0.359 OA
HETATM   13  H20         0      28.888  10.933  12.855  1.00  0.00     0.218 HD
ENDBRANCH  10  12
BRANCH   4  14
HETATM   14  C5          0      24.515  15.822  15.719  1.00  0.00     0.025 C 
HETATM   15  C6          0      25.237  16.922  16.157  1.00  0.00     0.004 C 
HETATM   16  C7          0      24.720  18.184  15.880  1.00  0.00     0.026 C 
HETATM   17  C8          0      23.464  18.348  15.307  1.00  0.00     0.112 C 
HETATM   18  C10         0      22.597  17.279  15.496  1.00  0.00     0.112 C 
HETATM   19  C12         0      23.140  16.014  15.685  1.00  0.00     0.028 C 
BRANCH  17  20
HETATM   20  O9          0      23.207  19.403  14.450  1.00  0.00    -0.357 OA
HETATM   21  H9          0      23.632  19.513  13.607  1.00  0.00     0.218 HD
ENDBRANCH  17  20
BRANCH  18  22
HETATM   22  O11         0      21.277  17.466  15.111  1.00  0.00    -0.357 OA
HETATM   23  H11         0      21.106  17.540  14.180  1.00  0.00     0.218 HD
ENDBRANCH  18  22
ENDBRANCH   4  14
BRANCH   8  24
HETATM   24  O17         0      28.687  11.000  17.923  1.00  0.00    -0.359 OA
HETATM   25  H17         0      29.215  11.714  18.259  1.00  0.00     0.218 HD
ENDBRANCH   8  24
TORSDOF 5
ENDMDL
