MODEL 1
REMARK VINA RESULT:      -2.0      0.000      0.000
REMARK  5 active torsions:
REMARK  status: ('A' for Active; 'I' for Inactive)
REMARK    1  A    between atoms: C4_4  and  C5_5 
REMARK    2  A    between atoms: C8_8  and  O9_9 
REMARK    3  A    between atoms: C10_11  and  O11_12 
REMARK    4  A    between atoms: C16_18  and  O17_19 
REMARK    5  A    between atoms: C19_22  and  O20_23 
ROOT
HETATM    1  O1          0      50.469 104.378   0.056  1.00  0.00    -0.286 OA
HETATM    2  C2          0      50.230 104.345   1.294  1.00  0.00     0.201 C 
HETATM    3  C3          0      50.118 105.488   2.067  1.00  0.00     0.067 C 
HETATM    4  C4          0      49.956 105.422   3.447  1.00  0.00     0.103 C 
HETATM    5  O13         0      49.889 104.234   4.021  1.00  0.00    -0.307 OA
HETATM    6  C14         0      50.027 103.119   3.339  1.00  0.00     0.107 C 
HETATM    7  C15         0      50.355 101.920   3.956  1.00  0.00     0.049 C 
HETATM    8  C16         0      50.748 100.811   3.216  1.00  0.00     0.093 C 
HETATM    9  C18         0      50.293 100.791   1.903  1.00  0.00     0.048 C 
HETATM   10  C19         0      49.912 101.966   1.270  1.00  0.00     0.096 C 
HETATM   11  C21         0      49.968 103.152   1.950  1.00  0.00     0.084 C 
ENDROOT
BRANCH  10  12
HETATM   12  O20         0      49.883 102.011  -0.120  1.00  0.00    -0.359 OA
HETATM   13  H20         0      49.996 101.197  -0.595  1.00  0.00     0.218 HD
ENDBRANCH  10  12
BRANCH   4  14
HETATM   14  C5          0      50.438 106.559   4.233  1.00  0.00     0.025 C 
HETATM   15  C6          0      50.216 106.678   5.597  1.00  0.00     0.004 C 
HETATM   16  C7          0      51.243 107.204   6.374  1.00  0.00     0.026 C 
HETATM   17  C8          0      52.400 107.719   5.801  1.00  0.00     0.112 C 
HETATM   18  C10         0      52.261 108.130   4.482  1.00  0.00     0.112 C 
HETATM   19  C12         0      51.281 107.527   3.702  1.00  0.00     0.028 C 
BRANCH  17  20
HETATM   20  O9          0      53.619 107.616   6.448  1.00  0.00    -0.357 OA
HETATM   21  H9          0      54.416 107.315   6.029  1.00  0.00     0.218 HD
ENDBRANCH  17  20
BRANCH  18  22
HETATM   22  O11         0      53.326 108.823   3.923  1.00  0.00    -0.357 OA
HETATM   23  H11         0      53.905 109.277   4.524  1.00  0.00     0.218 HD
ENDBRANCH  18  22
ENDBRANCH   4  14
BRANCH   8  24
HETATM   24  O17         0      51.782  99.974   3.650  1.00  0.00    -0.359 OA
HETATM   25  H17         0      52.047  99.939   4.561  1.00  0.00     0.218 HD
ENDBRANCH   8  24
TORSDOF 5
ENDMDL
MODEL 2
REMARK VINA RESULT:      -1.9      1.830      6.731
REMARK  5 active torsions:
REMARK  status: ('A' for Active; 'I' for Inactive)
REMARK    1  A    between atoms: C4_4  and  C5_5 
REMARK    2  A    between atoms: C8_8  and  O9_9 
REMARK    3  A    between atoms: C10_11  and  O11_12 
REMARK    4  A    between atoms: C16_18  and  O17_19 
REMARK    5  A    between atoms: C19_22  and  O20_23 
ROOT
HETATM    1  O1          0      51.437 106.384   7.257  1.00  0.00    -0.286 OA
HETATM    2  C2          0      50.926 106.197   6.119  1.00  0.00     0.201 C 
HETATM    3  C3          0      50.917 104.962   5.494  1.00  0.00     0.067 C 
HETATM    4  C4          0      50.440 104.804   4.198  1.00  0.00     0.103 C 
HETATM    5  O13         0      49.966 105.862   3.563  1.00  0.00    -0.307 OA
HETATM    6  C14         0      49.986 107.064   4.096  1.00  0.00     0.107 C 
HETATM    7  C15         0      49.875 108.209   3.320  1.00  0.00     0.049 C 
HETATM    8  C16         0      50.150 109.466   3.846  1.00  0.00     0.093 C 
HETATM    9  C18         0      50.009 109.569   5.225  1.00  0.00     0.048 C 
HETATM   10  C19         0      50.068 108.438   6.026  1.00  0.00     0.096 C 
HETATM   11  C21         0      50.249 107.208   5.454  1.00  0.00     0.084 C 
ENDROOT
BRANCH  10  12
HETATM   12  O20         0      50.362 108.577   7.379  1.00  0.00    -0.359 OA
HETATM   13  H20         0      51.245 108.376   7.665  1.00  0.00     0.218 HD
ENDBRANCH  10  12
BRANCH   4  14
HETATM   14  C5          0      50.988 103.697   3.412  1.00  0.00     0.025 C 
HETATM   15  C6          0      50.727 102.367   3.703  1.00  0.00     0.004 C 
HETATM   16  C7          0      50.544 101.496   2.633  1.00  0.00     0.026 C 
HETATM   17  C8          0      50.746 101.904   1.319  1.00  0.00     0.112 C 
HETATM   18  C10         0      51.588 102.999   1.174  1.00  0.00     0.112 C 
HETATM   19  C12         0      51.687 103.899   2.228  1.00  0.00     0.028 C 
BRANCH  17  20
HETATM   20  O9          0      49.989 101.375   0.289  1.00  0.00    -0.357 OA
HETATM   21  H9          0      49.127 101.696   0.049  1.00  0.00     0.218 HD
ENDBRANCH  17  20
BRANCH  18  22
HETATM   22  O11         0      51.973 103.329  -0.117  1.00  0.00    -0.357 OA
HETATM   23  H11         0      51.377 103.092  -0.818  1.00  0.00     0.218 HD
ENDBRANCH  18  22
ENDBRANCH   4  14
BRANCH   8  24
HETATM   24  O17         0      50.832 110.435   3.102  1.00  0.00    -0.359 OA
HETATM   25  H17         0      51.746 110.330   2.866  1.00  0.00     0.218 HD
ENDBRANCH   8  24
TORSDOF 5
ENDMDL
MODEL 3
REMARK VINA RESULT:      -1.8      2.765      4.197
REMARK  5 active torsions:
REMARK  status: ('A' for Active; 'I' for Inactive)
REMARK    1  A    between atoms: C4_4  and  C5_5 
REMARK    2  A    between atoms: C8_8  and  O9_9 
REMARK    3  A    between atoms: C10_11  and  O11_12 
REMARK    4  A    between atoms: C16_18  and  O17_19 
REMARK    5  A    between atoms: C19_22  and  O20_23 
ROOT
HETATM    1  O1          0      52.348 105.851   2.111  1.00  0.00    -0.286 OA
HETATM    2  C2          0      51.570 105.056   2.708  1.00  0.00     0.201 C 
HETATM    3  C3          0      51.398 105.063   4.081  1.00  0.00     0.067 C 
HETATM    4  C4          0      50.614 104.111   4.722  1.00  0.00     0.103 C 
HETATM    5  O13         0      50.006 103.193   3.992  1.00  0.00    -0.307 OA
HETATM    6  C14         0      50.166 103.118   2.689  1.00  0.00     0.107 C 
HETATM    7  C15         0      49.875 101.960   1.982  1.00  0.00     0.049 C 
HETATM    8  C16         0      50.280 101.799   0.663  1.00  0.00     0.093 C 
HETATM    9  C18         0      50.485 102.982  -0.037  1.00  0.00     0.048 C 
HETATM   10  C19         0      50.732 104.169   0.640  1.00  0.00     0.096 C 
HETATM   11  C21         0      50.758 104.177   2.008  1.00  0.00     0.084 C 
ENDROOT
BRANCH  10  12
HETATM   12  O20         0      51.353 105.218  -0.030  1.00  0.00    -0.359 OA
HETATM   13  H20         0      51.368 106.069   0.391  1.00  0.00     0.218 HD
ENDBRANCH  10  12
BRANCH   4  14
HETATM   14  C5          0      50.943 103.800   6.115  1.00  0.00     0.025 C 
HETATM   15  C6          0      50.107 104.120   7.175  1.00  0.00     0.004 C 
HETATM   16  C7          0      50.008 103.204   8.217  1.00  0.00     0.026 C 
HETATM   17  C8          0      50.813 102.071   8.271  1.00  0.00     0.112 C 
HETATM   18  C10         0      51.999 102.167   7.555  1.00  0.00     0.112 C 
HETATM   19  C12         0      52.044 103.028   6.465  1.00  0.00     0.028 C 
BRANCH  17  20
HETATM   20  O9          0      50.342 100.893   8.822  1.00  0.00    -0.357 OA
HETATM   21  H9          0      49.422 100.658   8.861  1.00  0.00     0.218 HD
ENDBRANCH  17  20
BRANCH  18  22
HETATM   22  O11         0      52.921 101.145   7.727  1.00  0.00    -0.357 OA
HETATM   23  H11         0      53.544 101.243   8.438  1.00  0.00     0.218 HD
ENDBRANCH  18  22
ENDBRANCH   4  14
BRANCH   8  24
HETATM   24  O17         0      50.765 100.573   0.193  1.00  0.00    -0.359 OA
HETATM   25  H17         0      50.259 100.031  -0.401  1.00  0.00     0.218 HD
ENDBRANCH   8  24
TORSDOF 5
ENDMDL
MODEL 4
REMARK VINA RESULT:      -1.8      2.387      3.138
REMARK  5 active torsions:
REMARK  status: ('A' for Active; 'I' for Inactive)
REMARK    1  A    between atoms: C4_4  and  C5_5 
REMARK    2  A    between atoms: C8_8  and  O9_9 
REMARK    3  A    between atoms: C10_11  and  O11_12 
REMARK    4  A    between atoms: C16_18  and  O17_19 
REMARK    5  A    between atoms: C19_22  and  O20_23 
ROOT
HETATM    1  O1          0      54.747 103.101   1.475  1.00  0.00    -0.286 OA
HETATM    2  C2          0      53.591 103.472   1.133  1.00  0.00     0.201 C 
HETATM    3  C3          0      53.202 104.801   1.124  1.00  0.00     0.067 C 
HETATM    4  C4          0      51.893 105.175   0.842  1.00  0.00     0.103 C 
HETATM    5  O13         0      51.011 104.233   0.558  1.00  0.00    -0.307 OA
HETATM    6  C14         0      51.318 102.955   0.590  1.00  0.00     0.107 C 
HETATM    7  C15         0      50.345 101.972   0.692  1.00  0.00     0.049 C 
HETATM    8  C16         0      50.678 100.654   0.980  1.00  0.00     0.093 C 
HETATM    9  C18         0      51.974 100.287   0.636  1.00  0.00     0.048 C 
HETATM   10  C19         0      52.962 101.250   0.480  1.00  0.00     0.096 C 
HETATM   11  C21         0      52.654 102.572   0.650  1.00  0.00     0.084 C 
ENDROOT
BRANCH  10  12
HETATM   12  O20         0      54.298 100.874   0.571  1.00  0.00    -0.359 OA
HETATM   13  H20         0      54.501  99.946   0.570  1.00  0.00     0.218 HD
ENDBRANCH  10  12
BRANCH   4  14
HETATM   14  C5          0      51.418 106.435   1.416  1.00  0.00     0.025 C 
HETATM   15  C6          0      50.114 106.619   1.852  1.00  0.00     0.004 C 
HETATM   16  C7          0      49.920 107.372   3.005  1.00  0.00     0.026 C 
HETATM   17  C8          0      50.972 108.034   3.630  1.00  0.00     0.112 C 
HETATM   18  C10         0      52.054 108.312   2.806  1.00  0.00     0.112 C 
HETATM   19  C12         0      52.274 107.490   1.706  1.00  0.00     0.028 C 
BRANCH  17  20
HETATM   20  O9          0      50.993 108.192   5.005  1.00  0.00    -0.357 OA
HETATM   21  H9          0      51.562 107.700   5.585  1.00  0.00     0.218 HD
ENDBRANCH  17  20
BRANCH  18  22
HETATM   22  O11         0      53.045 109.132   3.325  1.00  0.00    -0.357 OA
HETATM   23  H11         0      52.779 109.765   3.982  1.00  0.00     0.218 HD
ENDBRANCH  18  22
ENDBRANCH   4  14
BRANCH   8  24
HETATM   24  O17         0      49.899  99.877   1.844  1.00  0.00    -0.359 OA
HETATM   25  H17         0      49.941  99.984   2.787  1.00  0.00     0.218 HD
ENDBRANCH   8  24
TORSDOF 5
ENDMDL
MODEL 5
REMARK VINA RESULT:      -1.7      2.256      6.391
REMARK  5 active torsions:
REMARK  status: ('A' for Active; 'I' for Inactive)
REMARK    1  A    between atoms: C4_4  and  C5_5 
REMARK    2  A    between atoms: C8_8  and  O9_9 
REMARK    3  A    between atoms: C10_11  and  O11_12 
REMARK    4  A    between atoms: C16_18  and  O17_19 
REMARK    5  A    between atoms: C19_22  and  O20_23 
ROOT
HETATM    1  O1          0      51.249 105.926   5.269  1.00  0.00    -0.286 OA
HETATM    2  C2          0      50.808 105.367   4.228  1.00  0.00     0.201 C 
HETATM    3  C3          0      50.860 103.998   4.032  1.00  0.00     0.067 C 
HETATM    4  C4          0      50.462 103.418   2.833  1.00  0.00     0.103 C 
HETATM    5  O13         0      50.005 104.199   1.870  1.00  0.00    -0.307 OA
HETATM    6  C14         0      49.970 105.509   1.990  1.00  0.00     0.107 C 
HETATM    7  C15         0      49.882 106.342   0.885  1.00  0.00     0.049 C 
HETATM    8  C16         0      50.101 107.710   0.993  1.00  0.00     0.093 C 
HETATM    9  C18         0      49.878 108.242   2.257  1.00  0.00     0.048 C 
HETATM   10  C19         0      49.913 107.428   3.381  1.00  0.00     0.096 C 
HETATM   11  C21         0      50.151 106.088   3.242  1.00  0.00     0.084 C 
ENDROOT
BRANCH  10  12
HETATM   12  O20         0      50.126 108.002   4.631  1.00  0.00    -0.359 OA
HETATM   13  H20         0      50.837 107.663   5.161  1.00  0.00     0.218 HD
ENDBRANCH  10  12
BRANCH   4  14
HETATM   14  C5          0      51.077 102.139   2.470  1.00  0.00     0.025 C 
HETATM   15  C6          0      50.586 101.329   1.457  1.00  0.00     0.004 C 
HETATM   16  C7          0      51.510 100.669   0.654  1.00  0.00     0.026 C 
HETATM   17  C8          0      52.873 100.703   0.932  1.00  0.00     0.112 C 
HETATM   18  C10         0      53.188 100.978   2.256  1.00  0.00     0.112 C 
HETATM   19  C12         0      52.283 101.714   3.011  1.00  0.00     0.028 C 
BRANCH  17  20
HETATM   20  O9          0      53.805 100.675  -0.090  1.00  0.00    -0.357 OA
HETATM   21  H9          0      53.577 100.647  -1.013  1.00  0.00     0.218 HD
ENDBRANCH  17  20
BRANCH  18  22
HETATM   22  O11         0      54.518 100.839   2.627  1.00  0.00    -0.357 OA
HETATM   23  H11         0      55.046 101.629   2.639  1.00  0.00     0.218 HD
ENDBRANCH  18  22
ENDBRANCH   4  14
BRANCH   8  24
HETATM   24  O17         0      50.806 108.416   0.012  1.00  0.00    -0.359 OA
HETATM   25  H17         0      51.142 109.290   0.170  1.00  0.00     0.218 HD
ENDBRANCH   8  24
TORSDOF 5
ENDMDL
MODEL 6
REMARK VINA RESULT:      -1.7      2.425      2.678
REMARK  5 active torsions:
REMARK  status: ('A' for Active; 'I' for Inactive)
REMARK    1  A    between atoms: C4_4  and  C5_5 
REMARK    2  A    between atoms: C8_8  and  O9_9 
REMARK    3  A    between atoms: C10_11  and  O11_12 
REMARK    4  A    between atoms: C16_18  and  O17_19 
REMARK    5  A    between atoms: C19_22  and  O20_23 
ROOT
HETATM    1  O1          0      54.163 104.963   2.923  1.00  0.00    -0.286 OA
HETATM    2  C2          0      52.924 105.100   2.726  1.00  0.00     0.201 C 
HETATM    3  C3          0      52.241 106.264   3.030  1.00  0.00     0.067 C 
HETATM    4  C4          0      50.859 106.354   2.900  1.00  0.00     0.103 C 
HETATM    5  O13         0      50.195 105.302   2.454  1.00  0.00    -0.307 OA
HETATM    6  C14         0      50.790 104.161   2.186  1.00  0.00     0.107 C 
HETATM    7  C15         0      50.085 102.968   2.111  1.00  0.00     0.049 C 
HETATM    8  C16         0      50.740 101.743   2.083  1.00  0.00     0.093 C 
HETATM    9  C18         0      52.045 101.786   1.606  1.00  0.00     0.048 C 
HETATM   10  C19         0      52.763 102.973   1.624  1.00  0.00     0.096 C 
HETATM   11  C21         0      52.177 104.115   2.098  1.00  0.00     0.084 C 
ENDROOT
BRANCH  10  12
HETATM   12  O20         0      54.153 102.928   1.567  1.00  0.00    -0.359 OA
HETATM   13  H20         0      54.633 103.718   1.785  1.00  0.00     0.218 HD
ENDBRANCH  10  12
BRANCH   4  14
HETATM   14  C5          0      50.166 107.313   3.761  1.00  0.00     0.025 C 
HETATM   15  C6          0      49.878 107.055   5.094  1.00  0.00     0.004 C 
HETATM   16  C7          0      49.998 108.109   5.994  1.00  0.00     0.026 C 
HETATM   17  C8          0      50.262 109.406   5.568  1.00  0.00     0.112 C 
HETATM   18  C10         0      49.907 109.668   4.251  1.00  0.00     0.112 C 
HETATM   19  C12         0      49.878 108.608   3.352  1.00  0.00     0.028 C 
BRANCH  17  20
HETATM   20  O9          0      51.012 110.270   6.347  1.00  0.00    -0.357 OA
HETATM   21  H9          0      51.847 110.039   6.737  1.00  0.00     0.218 HD
ENDBRANCH  17  20
BRANCH  18  22
HETATM   22  O11         0      49.973 110.989   3.833  1.00  0.00    -0.357 OA
HETATM   23  H11         0      49.882 111.657   4.503  1.00  0.00     0.218 HD
ENDBRANCH  18  22
ENDBRANCH   4  14
BRANCH   8  24
HETATM   24  O17         0      50.250 100.638   2.788  1.00  0.00    -0.359 OA
HETATM   25  H17         0      49.318 100.484   2.889  1.00  0.00     0.218 HD
ENDBRANCH   8  24
TORSDOF 5
ENDMDL
MODEL 7
REMARK VINA RESULT:      -1.7      4.818      6.889
REMARK  5 active torsions:
REMARK  status: ('A' for Active; 'I' for Inactive)
REMARK    1  A    between atoms: C4_4  and  C5_5 
REMARK    2  A    between atoms: C8_8  and  O9_9 
REMARK    3  A    between atoms: C10_11  and  O11_12 
REMARK    4  A    between atoms: C16_18  and  O17_19 
REMARK    5  A    between atoms: C19_22  and  O20_23 
ROOT
HETATM    1  O1          0      55.866 104.682   3.688  1.00  0.00    -0.286 OA
HETATM    2  C2          0      55.328 104.257   2.629  1.00  0.00     0.201 C 
HETATM    3  C3          0      53.962 104.311   2.407  1.00  0.00     0.067 C 
HETATM    4  C4          0      53.385 103.743   1.277  1.00  0.00     0.103 C 
HETATM    5  O13         0      54.169 103.158   0.390  1.00  0.00    -0.307 OA
HETATM    6  C14         0      55.467 103.046   0.570  1.00  0.00     0.107 C 
HETATM    7  C15         0      56.224 102.113  -0.125  1.00  0.00     0.049 C 
HETATM    8  C16         0      57.531 101.824   0.246  1.00  0.00     0.093 C 
HETATM    9  C18         0      58.182 102.836   0.941  1.00  0.00     0.048 C 
HETATM   10  C19         0      57.455 103.813   1.609  1.00  0.00     0.096 C 
HETATM   11  C21         0      56.088 103.789   1.568  1.00  0.00     0.084 C 
ENDROOT
BRANCH  10  12
HETATM   12  O20         0      58.065 104.536   2.630  1.00  0.00    -0.359 OA
HETATM   13  H20         0      57.603 105.288   2.980  1.00  0.00     0.218 HD
ENDBRANCH  10  12
BRANCH   4  14
HETATM   14  C5          0      51.992 103.304   1.386  1.00  0.00     0.025 C 
HETATM   15  C6          0      51.227 102.951   0.283  1.00  0.00     0.004 C 
HETATM   16  C7          0      50.353 101.878   0.423  1.00  0.00     0.026 C 
HETATM   17  C8          0      50.146 101.261   1.651  1.00  0.00     0.112 C 
HETATM   18  C10         0      50.440 102.051   2.754  1.00  0.00     0.112 C 
HETATM   19  C12         0      51.381 103.064   2.609  1.00  0.00     0.028 C 
BRANCH  17  20
HETATM   20  O9          0      49.875  99.906   1.727  1.00  0.00    -0.357 OA
HETATM   21  H9          0      49.139  99.540   2.203  1.00  0.00     0.218 HD
ENDBRANCH  17  20
BRANCH  18  22
HETATM   22  O11         0      50.074 101.556   3.998  1.00  0.00    -0.357 OA
HETATM   23  H11         0      50.595 100.841   4.346  1.00  0.00     0.218 HD
ENDBRANCH  18  22
ENDBRANCH   4  14
BRANCH   8  24
HETATM   24  O17         0      58.023 100.514   0.222  1.00  0.00    -0.359 OA
HETATM   25  H17         0      58.956 100.331   0.226  1.00  0.00     0.218 HD
ENDBRANCH   8  24
TORSDOF 5
ENDMDL
MODEL 8
REMARK VINA RESULT:      -1.7      2.186      6.703
REMARK  5 active torsions:
REMARK  status: ('A' for Active; 'I' for Inactive)
REMARK    1  A    between atoms: C4_4  and  C5_5 
REMARK    2  A    between atoms: C8_8  and  O9_9 
REMARK    3  A    between atoms: C10_11  and  O11_12 
REMARK    4  A    between atoms: C16_18  and  O17_19 
REMARK    5  A    between atoms: C19_22  and  O20_23 
ROOT
HETATM    1  O1          0      53.804 104.258   6.952  1.00  0.00    -0.286 OA
HETATM    2  C2          0      52.782 103.983   6.264  1.00  0.00     0.201 C 
HETATM    3  C3          0      52.670 102.821   5.520  1.00  0.00     0.067 C 
HETATM    4  C4          0      51.578 102.590   4.691  1.00  0.00     0.103 C 
HETATM    5  O13         0      50.620 103.498   4.635  1.00  0.00    -0.307 OA
HETATM    6  C14         0      50.695 104.634   5.292  1.00  0.00     0.107 C 
HETATM    7  C15         0      49.924 105.734   4.942  1.00  0.00     0.049 C 
HETATM    8  C16         0      50.186 106.994   5.465  1.00  0.00     0.093 C 
HETATM    9  C18         0      50.847 106.997   6.687  1.00  0.00     0.048 C 
HETATM   10  C19         0      51.589 105.895   7.090  1.00  0.00     0.096 C 
HETATM   11  C21         0      51.656 104.790   6.285  1.00  0.00     0.084 C 
ENDROOT
BRANCH  10  12
HETATM   12  O20         0      52.573 106.055   8.061  1.00  0.00    -0.359 OA
HETATM   13  H20         0      52.298 106.298   8.937  1.00  0.00     0.218 HD
ENDBRANCH  10  12
BRANCH   4  14
HETATM   14  C5          0      51.787 101.714   3.536  1.00  0.00     0.025 C 
HETATM   15  C6          0      51.103 100.519   3.366  1.00  0.00     0.004 C 
HETATM   16  C7          0      50.709 100.180   2.075  1.00  0.00     0.026 C 
HETATM   17  C8          0      51.096 100.935   0.973  1.00  0.00     0.112 C 
HETATM   18  C10         0      52.247 101.688   1.161  1.00  0.00     0.112 C 
HETATM   19  C12         0      52.572 102.085   2.453  1.00  0.00     0.028 C 
BRANCH  17  20
HETATM   20  O9          0      50.264 101.065  -0.125  1.00  0.00    -0.357 OA
HETATM   21  H9          0      49.502 101.632  -0.145  1.00  0.00     0.218 HD
ENDBRANCH  17  20
BRANCH  18  22
HETATM   22  O11         0      52.782 102.309   0.041  1.00  0.00    -0.357 OA
HETATM   23  H11         0      53.371 101.792  -0.497  1.00  0.00     0.218 HD
ENDBRANCH  18  22
ENDBRANCH   4  14
BRANCH   8  24
HETATM   24  O17         0      50.097 108.145   4.674  1.00  0.00    -0.359 OA
HETATM   25  H17         0      50.572 108.938   4.891  1.00  0.00     0.218 HD
ENDBRANCH   8  24
TORSDOF 5
ENDMDL
MODEL 9
REMARK VINA RESULT:      -1.7      2.277      3.043
REMARK  5 active torsions:
REMARK  status: ('A' for Active; 'I' for Inactive)
REMARK    1  A    between atoms: C4_4  and  C5_5 
REMARK    2  A    between atoms: C8_8  and  O9_9 
REMARK    3  A    between atoms: C10_11  and  O11_12 
REMARK    4  A    between atoms: C16_18  and  O17_19 
REMARK    5  A    between atoms: C19_22  and  O20_23 
ROOT
HETATM    1  O1          0      54.255 104.177   4.950  1.00  0.00    -0.286 OA
HETATM    2  C2          0      53.111 104.291   4.432  1.00  0.00     0.201 C 
HETATM    3  C3          0      52.439 105.500   4.357  1.00  0.00     0.067 C 
HETATM    4  C4          0      51.137 105.580   3.875  1.00  0.00     0.103 C 
HETATM    5  O13         0      50.543 104.474   3.462  1.00  0.00    -0.307 OA
HETATM    6  C14         0      51.122 103.297   3.547  1.00  0.00     0.107 C 
HETATM    7  C15         0      50.392 102.118   3.501  1.00  0.00     0.049 C 
HETATM    8  C16         0      50.965 100.900   3.844  1.00  0.00     0.093 C 
HETATM    9  C18         0      52.347 100.842   3.705  1.00  0.00     0.048 C 
HETATM   10  C19         0      53.105 102.005   3.699  1.00  0.00     0.096 C 
HETATM   11  C21         0      52.485 103.220   3.814  1.00  0.00     0.084 C 
ENDROOT
BRANCH  10  12
HETATM   12  O20         0      54.462 101.935   3.998  1.00  0.00    -0.359 OA
HETATM   13  H20         0      54.827 102.599   4.570  1.00  0.00     0.218 HD
ENDBRANCH  10  12
BRANCH   4  14
HETATM   14  C5          0      50.309 106.685   4.363  1.00  0.00     0.025 C 
HETATM   15  C6          0      49.904 106.793   5.685  1.00  0.00     0.004 C 
HETATM   16  C7          0      49.875 108.065   6.249  1.00  0.00     0.026 C 
HETATM   17  C8          0      50.111 109.205   5.488  1.00  0.00     0.112 C 
HETATM   18  C10         0      49.875 109.053   4.128  1.00  0.00     0.112 C 
HETATM   19  C12         0      49.994 107.784   3.575  1.00  0.00     0.028 C 
BRANCH  17  20
HETATM   20  O9          0      50.730 110.311   6.042  1.00  0.00    -0.357 OA
HETATM   21  H9          0      50.441 110.732   6.844  1.00  0.00     0.218 HD
ENDBRANCH  17  20
BRANCH  18  22
HETATM   22  O11         0      49.911 110.203   3.352  1.00  0.00    -0.357 OA
HETATM   23  H11         0      49.909 110.086   2.409  1.00  0.00     0.218 HD
ENDBRANCH  18  22
ENDBRANCH   4  14
BRANCH   8  24
HETATM   24  O17         0      50.259  99.942   4.581  1.00  0.00    -0.359 OA
HETATM   25  H17         0      49.334  99.785   4.437  1.00  0.00     0.218 HD
ENDBRANCH   8  24
TORSDOF 5
ENDMDL
