MODEL 1
REMARK VINA RESULT:      -6.4      0.000      0.000
REMARK  5 active torsions:
REMARK  status: ('A' for Active; 'I' for Inactive)
REMARK    1  A    between atoms: C4_4  and  C5_5 
REMARK    2  A    between atoms: C8_8  and  O9_9 
REMARK    3  A    between atoms: C10_11  and  O11_12 
REMARK    4  A    between atoms: C16_18  and  O17_19 
REMARK    5  A    between atoms: C19_22  and  O20_23 
ROOT
HETATM    1  O1          0      75.478  52.332  24.589  1.00  0.00    -0.286 OA
HETATM    2  C2          0      74.684  53.245  24.231  1.00  0.00     0.201 C 
HETATM    3  C3          0      74.371  54.327  25.036  1.00  0.00     0.067 C 
HETATM    4  C4          0      73.415  55.263  24.659  1.00  0.00     0.103 C 
HETATM    5  O13         0      72.812  55.120  23.493  1.00  0.00    -0.307 OA
HETATM    6  C14         0      73.044  54.092  22.707  1.00  0.00     0.107 C 
HETATM    7  C15         0      72.158  53.722  21.706  1.00  0.00     0.049 C 
HETATM    8  C16         0      72.276  52.500  21.053  1.00  0.00     0.093 C 
HETATM    9  C18         0      73.553  51.952  21.059  1.00  0.00     0.048 C 
HETATM   10  C19         0      74.480  52.335  22.019  1.00  0.00     0.096 C 
HETATM   11  C21         0      74.140  53.272  22.956  1.00  0.00     0.084 C 
ENDROOT
BRANCH  10  12
HETATM   12  O20         0      75.560  51.501  22.292  1.00  0.00    -0.359 OA
HETATM   13  H20         0      76.151  51.753  22.991  1.00  0.00     0.218 HD
ENDBRANCH  10  12
BRANCH   4  14
HETATM   14  C5          0      72.719  55.978  25.731  1.00  0.00     0.025 C 
HETATM   15  C6          0      71.954  57.113  25.504  1.00  0.00     0.004 C 
HETATM   16  C7          0      70.779  57.256  26.235  1.00  0.00     0.026 C 
HETATM   17  C8          0      70.441  56.370  27.252  1.00  0.00     0.112 C 
HETATM   18  C10         0      71.516  55.690  27.810  1.00  0.00     0.112 C 
HETATM   19  C12         0      72.647  55.487  27.028  1.00  0.00     0.028 C 
BRANCH  17  20
HETATM   20  O9          0      69.118  56.061  27.512  1.00  0.00    -0.357 OA
HETATM   21  H9          0      68.423  56.708  27.554  1.00  0.00     0.218 HD
ENDBRANCH  17  20
BRANCH  18  22
HETATM   22  O11         0      71.262  54.940  28.949  1.00  0.00    -0.357 OA
HETATM   23  H11         0      72.011  54.699  29.482  1.00  0.00     0.218 HD
ENDBRANCH  18  22
ENDBRANCH   4  14
BRANCH   8  24
HETATM   24  O17         0      71.149  51.738  20.723  1.00  0.00    -0.359 OA
HETATM   25  H17         0      70.605  51.338  21.391  1.00  0.00     0.218 HD
ENDBRANCH   8  24
TORSDOF 5
ENDMDL
MODEL 2
REMARK VINA RESULT:      -6.2      1.742      6.479
REMARK  5 active torsions:
REMARK  status: ('A' for Active; 'I' for Inactive)
REMARK    1  A    between atoms: C4_4  and  C5_5 
REMARK    2  A    between atoms: C8_8  and  O9_9 
REMARK    3  A    between atoms: C10_11  and  O11_12 
REMARK    4  A    between atoms: C16_18  and  O17_19 
REMARK    5  A    between atoms: C19_22  and  O20_23 
ROOT
HETATM    1  O1          0      69.738  55.408  23.552  1.00  0.00    -0.286 OA
HETATM    2  C2          0      70.815  55.585  24.185  1.00  0.00     0.201 C 
HETATM    3  C3          0      72.061  55.395  23.613  1.00  0.00     0.067 C 
HETATM    4  C4          0      73.229  55.497  24.361  1.00  0.00     0.103 C 
HETATM    5  O13         0      73.137  55.801  25.644  1.00  0.00    -0.307 OA
HETATM    6  C14         0      71.977  55.954  26.244  1.00  0.00     0.107 C 
HETATM    7  C15         0      71.852  55.874  27.624  1.00  0.00     0.049 C 
HETATM    8  C16         0      70.606  55.781  28.231  1.00  0.00     0.093 C 
HETATM    9  C18         0      69.551  56.296  27.488  1.00  0.00     0.048 C 
HETATM   10  C19         0      69.659  56.434  26.111  1.00  0.00     0.096 C 
HETATM   11  C21         0      70.820  56.076  25.482  1.00  0.00     0.084 C 
ENDROOT
BRANCH  10  12
HETATM   12  O20         0      68.502  56.523  25.343  1.00  0.00    -0.359 OA
HETATM   13  H20         0      68.216  55.746  24.877  1.00  0.00     0.218 HD
ENDBRANCH  10  12
BRANCH   4  14
HETATM   14  C5          0      74.388  54.731  23.900  1.00  0.00     0.025 C 
HETATM   15  C6          0      75.604  54.730  24.569  1.00  0.00     0.004 C 
HETATM   16  C7          0      76.305  53.530  24.631  1.00  0.00     0.026 C 
HETATM   17  C8          0      75.881  52.401  23.939  1.00  0.00     0.112 C 
HETATM   18  C10         0      75.069  52.664  22.843  1.00  0.00     0.112 C 
HETATM   19  C12         0      74.314  53.830  22.846  1.00  0.00     0.028 C 
BRANCH  17  20
HETATM   20  O9          0      76.092  51.134  24.452  1.00  0.00    -0.357 OA
HETATM   21  H9          0      76.649  50.483  24.040  1.00  0.00     0.218 HD
ENDBRANCH  17  20
BRANCH  18  22
HETATM   22  O11         0      74.774  51.594  22.009  1.00  0.00    -0.357 OA
HETATM   23  H11         0      74.614  51.794  21.094  1.00  0.00     0.218 HD
ENDBRANCH  18  22
ENDBRANCH   4  14
BRANCH   8  24
HETATM   24  O17         0      70.391  54.942  29.331  1.00  0.00    -0.359 OA
HETATM   25  H17         0      70.578  54.012  29.292  1.00  0.00     0.218 HD
ENDBRANCH   8  24
TORSDOF 5
ENDMDL
MODEL 3
REMARK VINA RESULT:      -6.0     10.104     12.380
REMARK  5 active torsions:
REMARK  status: ('A' for Active; 'I' for Inactive)
REMARK    1  A    between atoms: C4_4  and  C5_5 
REMARK    2  A    between atoms: C8_8  and  O9_9 
REMARK    3  A    between atoms: C10_11  and  O11_12 
REMARK    4  A    between atoms: C16_18  and  O17_19 
REMARK    5  A    between atoms: C19_22  and  O20_23 
ROOT
HETATM    1  O1          0      75.206  49.026  31.754  1.00  0.00    -0.286 OA
HETATM    2  C2          0      75.258  49.380  32.964  1.00  0.00     0.201 C 
HETATM    3  C3          0      74.490  48.789  33.953  1.00  0.00     0.067 C 
HETATM    4  C4          0      74.490  49.266  35.259  1.00  0.00     0.103 C 
HETATM    5  O13         0      75.261  50.296  35.558  1.00  0.00    -0.307 OA
HETATM    6  C14         0      75.982  50.917  34.649  1.00  0.00     0.107 C 
HETATM    7  C15         0      76.463  52.203  34.851  1.00  0.00     0.049 C 
HETATM    8  C16         0      76.997  52.946  33.806  1.00  0.00     0.093 C 
HETATM    9  C18         0      77.502  52.196  32.751  1.00  0.00     0.048 C 
HETATM   10  C19         0      77.077  50.890  32.547  1.00  0.00     0.096 C 
HETATM   11  C21         0      76.167  50.331  33.402  1.00  0.00     0.084 C 
ENDROOT
BRANCH  10  12
HETATM   12  O20         0      77.232  50.312  31.291  1.00  0.00    -0.359 OA
HETATM   13  H20         0      77.918  50.649  30.727  1.00  0.00     0.218 HD
ENDBRANCH  10  12
BRANCH   4  14
HETATM   14  C5          0      73.286  49.031  36.058  1.00  0.00     0.025 C 
HETATM   15  C6          0      72.107  48.542  35.515  1.00  0.00     0.004 C 
HETATM   16  C7          0      71.373  47.638  36.277  1.00  0.00     0.026 C 
HETATM   17  C8          0      71.727  47.332  37.587  1.00  0.00     0.112 C 
HETATM   18  C10         0      72.489  48.302  38.223  1.00  0.00     0.112 C 
HETATM   19  C12         0      73.279  49.138  37.443  1.00  0.00     0.028 C 
BRANCH  17  20
HETATM   20  O9          0      71.503  46.069  38.105  1.00  0.00    -0.357 OA
HETATM   21  H9          0      72.046  45.314  37.908  1.00  0.00     0.218 HD
ENDBRANCH  17  20
BRANCH  18  22
HETATM   22  O11         0      72.709  48.137  39.583  1.00  0.00    -0.357 OA
HETATM   23  H11         0      72.729  48.925  40.114  1.00  0.00     0.218 HD
ENDBRANCH  18  22
ENDBRANCH   4  14
BRANCH   8  24
HETATM   24  O17         0      76.740  54.315  33.678  1.00  0.00    -0.359 OA
HETATM   25  H17         0      77.315  54.969  34.058  1.00  0.00     0.218 HD
ENDBRANCH   8  24
TORSDOF 5
ENDMDL
MODEL 4
REMARK VINA RESULT:      -6.0      1.590      2.237
REMARK  5 active torsions:
REMARK  status: ('A' for Active; 'I' for Inactive)
REMARK    1  A    between atoms: C4_4  and  C5_5 
REMARK    2  A    between atoms: C8_8  and  O9_9 
REMARK    3  A    between atoms: C10_11  and  O11_12 
REMARK    4  A    between atoms: C16_18  and  O17_19 
REMARK    5  A    between atoms: C19_22  and  O20_23 
ROOT
HETATM    1  O1          0      74.938  54.630  25.575  1.00  0.00    -0.286 OA
HETATM    2  C2          0      73.839  55.160  25.257  1.00  0.00     0.201 C 
HETATM    3  C3          0      73.061  55.871  26.156  1.00  0.00     0.067 C 
HETATM    4  C4          0      71.806  56.357  25.807  1.00  0.00     0.103 C 
HETATM    5  O13         0      71.363  56.148  24.580  1.00  0.00    -0.307 OA
HETATM    6  C14         0      72.045  55.448  23.700  1.00  0.00     0.107 C 
HETATM    7  C15         0      71.440  54.892  22.582  1.00  0.00     0.049 C 
HETATM    8  C16         0      72.098  53.951  21.799  1.00  0.00     0.093 C 
HETATM    9  C18         0      73.486  54.004  21.859  1.00  0.00     0.048 C 
HETATM   10  C19         0      74.123  54.595  22.941  1.00  0.00     0.096 C 
HETATM   11  C21         0      73.379  55.145  23.950  1.00  0.00     0.084 C 
ENDROOT
BRANCH  10  12
HETATM   12  O20         0      75.448  54.269  23.212  1.00  0.00    -0.359 OA
HETATM   13  H20         0      76.123  54.670  22.677  1.00  0.00     0.218 HD
ENDBRANCH  10  12
BRANCH   4  14
HETATM   14  C5          0      70.834  56.536  26.887  1.00  0.00     0.025 C 
HETATM   15  C6          0      69.469  56.638  26.660  1.00  0.00     0.004 C 
HETATM   16  C7          0      68.617  56.024  27.572  1.00  0.00     0.026 C 
HETATM   17  C8          0      69.096  55.444  28.742  1.00  0.00     0.112 C 
HETATM   18  C10         0      70.320  55.936  29.174  1.00  0.00     0.112 C 
HETATM   19  C12         0      71.189  56.468  28.227  1.00  0.00     0.028 C 
BRANCH  17  20
HETATM   20  O9          0      68.483  54.328  29.283  1.00  0.00    -0.357 OA
HETATM   21  H9          0      68.829  53.842  30.023  1.00  0.00     0.218 HD
ENDBRANCH  17  20
BRANCH  18  22
HETATM   22  O11         0      70.753  55.532  30.428  1.00  0.00    -0.357 OA
HETATM   23  H11         0      70.274  54.823  30.841  1.00  0.00     0.218 HD
ENDBRANCH  18  22
ENDBRANCH   4  14
BRANCH   8  24
HETATM   24  O17         0      71.427  52.841  21.274  1.00  0.00    -0.359 OA
HETATM   25  H17         0      70.560  52.594  21.574  1.00  0.00     0.218 HD
ENDBRANCH   8  24
TORSDOF 5
ENDMDL
MODEL 5
REMARK VINA RESULT:      -5.9     10.521     12.303
REMARK  5 active torsions:
REMARK  status: ('A' for Active; 'I' for Inactive)
REMARK    1  A    between atoms: C4_4  and  C5_5 
REMARK    2  A    between atoms: C8_8  and  O9_9 
REMARK    3  A    between atoms: C10_11  and  O11_12 
REMARK    4  A    between atoms: C16_18  and  O17_19 
REMARK    5  A    between atoms: C19_22  and  O20_23 
ROOT
HETATM    1  O1          0      77.713  49.612  35.382  1.00  0.00    -0.286 OA
HETATM    2  C2          0      76.570  49.519  34.856  1.00  0.00     0.201 C 
HETATM    3  C3          0      75.398  49.714  35.568  1.00  0.00     0.067 C 
HETATM    4  C4          0      74.151  49.505  34.990  1.00  0.00     0.103 C 
HETATM    5  O13         0      74.093  49.131  33.724  1.00  0.00    -0.307 OA
HETATM    6  C14         0      75.175  48.895  33.014  1.00  0.00     0.107 C 
HETATM    7  C15         0      75.137  48.136  31.853  1.00  0.00     0.049 C 
HETATM    8  C16         0      76.303  47.679  31.252  1.00  0.00     0.093 C 
HETATM    9  C18         0      77.440  48.427  31.531  1.00  0.00     0.048 C 
HETATM   10  C19         0      77.495  49.233  32.660  1.00  0.00     0.096 C 
HETATM   11  C21         0      76.414  49.305  33.495  1.00  0.00     0.084 C 
ENDROOT
BRANCH  10  12
HETATM   12  O20         0      78.734  49.618  33.161  1.00  0.00    -0.359 OA
HETATM   13  H20         0      78.812  49.755  34.098  1.00  0.00     0.218 HD
ENDBRANCH  10  12
BRANCH   4  14
HETATM   14  C5          0      73.051  49.140  35.884  1.00  0.00     0.025 C 
HETATM   15  C6          0      71.902  48.500  35.441  1.00  0.00     0.004 C 
HETATM   16  C7          0      71.348  47.527  36.266  1.00  0.00     0.026 C 
HETATM   17  C8          0      71.837  47.291  37.546  1.00  0.00     0.112 C 
HETATM   18  C10         0      72.521  48.359  38.112  1.00  0.00     0.112 C 
HETATM   19  C12         0      73.139  49.270  37.264  1.00  0.00     0.028 C 
BRANCH  17  20
HETATM   20  O9          0      71.812  46.019  38.091  1.00  0.00    -0.357 OA
HETATM   21  H9          0      72.583  45.476  38.198  1.00  0.00     0.218 HD
ENDBRANCH  17  20
BRANCH  18  22
HETATM   22  O11         0      72.865  48.246  39.451  1.00  0.00    -0.357 OA
HETATM   23  H11         0      72.848  49.043  39.968  1.00  0.00     0.218 HD
ENDBRANCH  18  22
ENDBRANCH   4  14
BRANCH   8  24
HETATM   24  O17         0      76.383  46.395  30.700  1.00  0.00    -0.359 OA
HETATM   25  H17         0      75.625  45.965  30.324  1.00  0.00     0.218 HD
ENDBRANCH   8  24
TORSDOF 5
ENDMDL
MODEL 6
REMARK VINA RESULT:      -5.8      2.109      6.385
REMARK  5 active torsions:
REMARK  status: ('A' for Active; 'I' for Inactive)
REMARK    1  A    between atoms: C4_4  and  C5_5 
REMARK    2  A    between atoms: C8_8  and  O9_9 
REMARK    3  A    between atoms: C10_11  and  O11_12 
REMARK    4  A    between atoms: C16_18  and  O17_19 
REMARK    5  A    between atoms: C19_22  and  O20_23 
ROOT
HETATM    1  O1          0      69.722  55.428  23.441  1.00  0.00    -0.286 OA
HETATM    2  C2          0      70.812  55.575  24.059  1.00  0.00     0.201 C 
HETATM    3  C3          0      72.045  55.353  23.469  1.00  0.00     0.067 C 
HETATM    4  C4          0      73.226  55.423  24.200  1.00  0.00     0.103 C 
HETATM    5  O13         0      73.160  55.730  25.483  1.00  0.00    -0.307 OA
HETATM    6  C14         0      72.014  55.914  26.101  1.00  0.00     0.107 C 
HETATM    7  C15         0      71.907  55.837  27.482  1.00  0.00     0.049 C 
HETATM    8  C16         0      70.668  55.778  28.107  1.00  0.00     0.093 C 
HETATM    9  C18         0      69.616  56.321  27.379  1.00  0.00     0.048 C 
HETATM   10  C19         0      69.708  56.455  26.000  1.00  0.00     0.096 C 
HETATM   11  C21         0      70.850  56.066  25.355  1.00  0.00     0.084 C 
ENDROOT
BRANCH  10  12
HETATM   12  O20         0      68.543  56.576  25.249  1.00  0.00    -0.359 OA
HETATM   13  H20         0      67.712  56.458  25.694  1.00  0.00     0.218 HD
ENDBRANCH  10  12
BRANCH   4  14
HETATM   14  C5          0      74.357  54.625  23.722  1.00  0.00     0.025 C 
HETATM   15  C6          0      75.375  55.155  22.942  1.00  0.00     0.004 C 
HETATM   16  C7          0      76.671  54.712  23.186  1.00  0.00     0.026 C 
HETATM   17  C8          0      76.933  53.680  24.080  1.00  0.00     0.112 C 
HETATM   18  C10         0      75.863  52.824  24.307  1.00  0.00     0.112 C 
HETATM   19  C12         0      74.575  53.318  24.139  1.00  0.00     0.028 C 
BRANCH  17  20
HETATM   20  O9          0      78.100  53.664  24.822  1.00  0.00    -0.357 OA
HETATM   21  H9          0      78.946  53.411  24.470  1.00  0.00     0.218 HD
ENDBRANCH  17  20
BRANCH  18  22
HETATM   22  O11         0      76.123  51.674  25.039  1.00  0.00    -0.357 OA
HETATM   23  H11         0      75.861  50.848  24.649  1.00  0.00     0.218 HD
ENDBRANCH  18  22
ENDBRANCH   4  14
BRANCH   8  24
HETATM   24  O17         0      70.447  54.945  29.210  1.00  0.00    -0.359 OA
HETATM   25  H17         0      69.858  55.194  29.913  1.00  0.00     0.218 HD
ENDBRANCH   8  24
TORSDOF 5
ENDMDL
MODEL 7
REMARK VINA RESULT:      -5.7     12.297     14.864
REMARK  5 active torsions:
REMARK  status: ('A' for Active; 'I' for Inactive)
REMARK    1  A    between atoms: C4_4  and  C5_5 
REMARK    2  A    between atoms: C8_8  and  O9_9 
REMARK    3  A    between atoms: C10_11  and  O11_12 
REMARK    4  A    between atoms: C16_18  and  O17_19 
REMARK    5  A    between atoms: C19_22  and  O20_23 
ROOT
HETATM    1  O1          0      75.037  49.171  33.670  1.00  0.00    -0.286 OA
HETATM    2  C2          0      74.792  48.103  34.294  1.00  0.00     0.201 C 
HETATM    3  C3          0      75.193  46.858  33.838  1.00  0.00     0.067 C 
HETATM    4  C4          0      74.822  45.689  34.492  1.00  0.00     0.103 C 
HETATM    5  O13         0      74.087  45.779  35.586  1.00  0.00    -0.307 OA
HETATM    6  C14         0      73.649  46.932  36.041  1.00  0.00     0.107 C 
HETATM    7  C15         0      72.579  47.012  36.920  1.00  0.00     0.049 C 
HETATM    8  C16         0      71.961  48.226  37.196  1.00  0.00     0.093 C 
HETATM    9  C18         0      72.756  49.348  36.999  1.00  0.00     0.048 C 
HETATM   10  C19         0      73.863  49.290  36.162  1.00  0.00     0.096 C 
HETATM   11  C21         0      74.182  48.115  35.539  1.00  0.00     0.084 C 
ENDROOT
BRANCH  10  12
HETATM   12  O20         0      74.378  50.470  35.634  1.00  0.00    -0.359 OA
HETATM   13  H20         0      73.940  50.850  34.882  1.00  0.00     0.218 HD
ENDBRANCH  10  12
BRANCH   4  14
HETATM   14  C5          0      74.742  44.468  33.687  1.00  0.00     0.025 C 
HETATM   15  C6          0      75.729  44.094  32.787  1.00  0.00     0.004 C 
HETATM   16  C7          0      76.036  42.741  32.692  1.00  0.00     0.026 C 
HETATM   17  C8          0      75.297  41.776  33.368  1.00  0.00     0.112 C 
HETATM   18  C10         0      74.006  42.163  33.701  1.00  0.00     0.112 C 
HETATM   19  C12         0      73.746  43.518  33.874  1.00  0.00     0.028 C 
BRANCH  17  20
HETATM   20  O9          0      75.899  40.623  33.840  1.00  0.00    -0.357 OA
HETATM   21  H9          0      76.215  39.925  33.278  1.00  0.00     0.218 HD
ENDBRANCH  17  20
BRANCH  18  22
HETATM   22  O11         0      73.165  41.181  34.205  1.00  0.00    -0.357 OA
HETATM   23  H11         0      72.568  40.770  33.591  1.00  0.00     0.218 HD
ENDBRANCH  18  22
ENDBRANCH   4  14
BRANCH   8  24
HETATM   24  O17         0      70.571  48.324  37.327  1.00  0.00    -0.359 OA
HETATM   25  H17         0      70.007  47.564  37.243  1.00  0.00     0.218 HD
ENDBRANCH   8  24
TORSDOF 5
ENDMDL
MODEL 8
REMARK VINA RESULT:      -5.7      7.075     12.335
REMARK  5 active torsions:
REMARK  status: ('A' for Active; 'I' for Inactive)
REMARK    1  A    between atoms: C4_4  and  C5_5 
REMARK    2  A    between atoms: C8_8  and  O9_9 
REMARK    3  A    between atoms: C10_11  and  O11_12 
REMARK    4  A    between atoms: C16_18  and  O17_19 
REMARK    5  A    between atoms: C19_22  and  O20_23 
ROOT
HETATM    1  O1          0      63.334  58.476  32.330  1.00  0.00    -0.286 OA
HETATM    2  C2          0      64.565  58.341  32.573  1.00  0.00     0.201 C 
HETATM    3  C3          0      65.545  58.546  31.617  1.00  0.00     0.067 C 
HETATM    4  C4          0      66.886  58.291  31.882  1.00  0.00     0.103 C 
HETATM    5  O13         0      67.225  57.864  33.085  1.00  0.00    -0.307 OA
HETATM    6  C14         0      66.330  57.617  34.017  1.00  0.00     0.107 C 
HETATM    7  C15         0      66.616  56.811  35.109  1.00  0.00     0.049 C 
HETATM    8  C16         0      65.609  56.349  35.948  1.00  0.00     0.093 C 
HETATM    9  C18         0      64.458  57.128  35.968  1.00  0.00     0.048 C 
HETATM   10  C19         0      64.165  57.981  34.913  1.00  0.00     0.096 C 
HETATM   11  C21         0      65.025  58.068  33.852  1.00  0.00     0.084 C 
ENDROOT
BRANCH  10  12
HETATM   12  O20         0      62.854  58.408  34.727  1.00  0.00    -0.359 OA
HETATM   13  H20         0      62.627  58.796  33.890  1.00  0.00     0.218 HD
ENDBRANCH  10  12
BRANCH   4  14
HETATM   14  C5          0      67.739  57.944  30.744  1.00  0.00     0.025 C 
HETATM   15  C6          0      68.966  58.549  30.512  1.00  0.00     0.004 C 
HETATM   16  C7          0      69.999  57.749  30.033  1.00  0.00     0.026 C 
HETATM   17  C8          0      69.786  56.424  29.669  1.00  0.00     0.112 C 
HETATM   18  C10         0      68.473  56.118  29.337  1.00  0.00     0.112 C 
HETATM   19  C12         0      67.455  56.881  29.897  1.00  0.00     0.028 C 
BRANCH  17  20
HETATM   20  O9          0      70.777  55.474  29.841  1.00  0.00    -0.357 OA
HETATM   21  H9          0      71.571  55.439  29.321  1.00  0.00     0.218 HD
ENDBRANCH  17  20
BRANCH  18  22
HETATM   22  O11         0      68.239  54.865  28.787  1.00  0.00    -0.357 OA
HETATM   23  H11         0      68.517  54.732  27.888  1.00  0.00     0.218 HD
ENDBRANCH  18  22
ENDBRANCH   4  14
BRANCH   8  24
HETATM   24  O17         0      65.624  55.045  36.456  1.00  0.00    -0.359 OA
HETATM   25  H17         0      65.350  54.853  37.345  1.00  0.00     0.218 HD
ENDBRANCH   8  24
TORSDOF 5
ENDMDL
MODEL 9
REMARK VINA RESULT:      -5.7     10.529     12.145
REMARK  5 active torsions:
REMARK  status: ('A' for Active; 'I' for Inactive)
REMARK    1  A    between atoms: C4_4  and  C5_5 
REMARK    2  A    between atoms: C8_8  and  O9_9 
REMARK    3  A    between atoms: C10_11  and  O11_12 
REMARK    4  A    between atoms: C16_18  and  O17_19 
REMARK    5  A    between atoms: C19_22  and  O20_23 
ROOT
HETATM    1  O1          0      75.370  45.486  32.179  1.00  0.00    -0.286 OA
HETATM    2  C2          0      75.554  46.499  32.908  1.00  0.00     0.201 C 
HETATM    3  C3          0      74.893  46.688  34.110  1.00  0.00     0.067 C 
HETATM    4  C4          0      75.037  47.860  34.844  1.00  0.00     0.103 C 
HETATM    5  O13         0      75.841  48.802  34.384  1.00  0.00    -0.307 OA
HETATM    6  C14         0      76.463  48.689  33.231  1.00  0.00     0.107 C 
HETATM    7  C15         0      76.970  49.794  32.562  1.00  0.00     0.049 C 
HETATM    8  C16         0      77.394  49.706  31.241  1.00  0.00     0.093 C 
HETATM    9  C18         0      77.777  48.435  30.831  1.00  0.00     0.048 C 
HETATM   10  C19         0      77.326  47.309  31.506  1.00  0.00     0.096 C 
HETATM   11  C21         0      76.510  47.453  32.595  1.00  0.00     0.084 C 
ENDROOT
BRANCH  10  12
HETATM   12  O20         0      77.342  46.077  30.861  1.00  0.00    -0.359 OA
HETATM   13  H20         0      76.757  45.953  30.123  1.00  0.00     0.218 HD
ENDBRANCH  10  12
BRANCH   4  14
HETATM   14  C5          0      73.924  48.247  35.713  1.00  0.00     0.025 C 
HETATM   15  C6          0      72.751  48.807  35.230  1.00  0.00     0.004 C 
HETATM   16  C7          0      71.557  48.423  35.832  1.00  0.00     0.026 C 
HETATM   17  C8          0      71.538  47.614  36.964  1.00  0.00     0.112 C 
HETATM   18  C10         0      72.706  47.640  37.714  1.00  0.00     0.112 C 
HETATM   19  C12         0      73.899  47.944  37.069  1.00  0.00     0.028 C 
BRANCH  17  20
HETATM   20  O9          0      70.509  46.713  37.174  1.00  0.00    -0.357 OA
HETATM   21  H9          0      69.769  46.881  37.746  1.00  0.00     0.218 HD
ENDBRANCH  17  20
BRANCH  18  22
HETATM   22  O11         0      72.675  47.004  38.947  1.00  0.00    -0.357 OA
HETATM   23  H11         0      71.819  46.843  39.326  1.00  0.00     0.218 HD
ENDBRANCH  18  22
ENDBRANCH   4  14
BRANCH   8  24
HETATM   24  O17         0      77.131  50.728  30.322  1.00  0.00    -0.359 OA
HETATM   25  H17         0      77.615  50.804  29.508  1.00  0.00     0.218 HD
ENDBRANCH   8  24
TORSDOF 5
ENDMDL
