MODEL 1
REMARK VINA RESULT:      -8.3      0.000      0.000
REMARK  5 active torsions:
REMARK  status: ('A' for Active; 'I' for Inactive)
REMARK    1  A    between atoms: C4_4  and  C5_5 
REMARK    2  A    between atoms: C8_8  and  O9_9 
REMARK    3  A    between atoms: C10_11  and  O11_12 
REMARK    4  A    between atoms: C16_18  and  O17_19 
REMARK    5  A    between atoms: C19_22  and  O20_23 
ROOT
HETATM    1  O1          0      44.340  33.866  13.331  1.00  0.00    -0.286 OA
HETATM    2  C2          0      43.869  32.892  13.980  1.00  0.00     0.201 C 
HETATM    3  C3          0      44.619  32.164  14.889  1.00  0.00     0.067 C 
HETATM    4  C4          0      44.107  31.033  15.514  1.00  0.00     0.103 C 
HETATM    5  O13         0      42.868  30.663  15.243  1.00  0.00    -0.307 OA
HETATM    6  C14         0      42.126  31.297  14.361  1.00  0.00     0.107 C 
HETATM    7  C15         0      41.012  30.706  13.784  1.00  0.00     0.049 C 
HETATM    8  C16         0      40.387  31.271  12.679  1.00  0.00     0.093 C 
HETATM    9  C18         0      40.575  32.640  12.534  1.00  0.00     0.048 C 
HETATM   10  C19         0      41.654  33.271  13.137  1.00  0.00     0.096 C 
HETATM   11  C21         0      42.530  32.543  13.894  1.00  0.00     0.084 C 
ENDROOT
BRANCH  10  12
HETATM   12  O20         0      42.080  34.504  12.650  1.00  0.00    -0.359 OA
HETATM   13  H20         0      41.571  35.272  12.878  1.00  0.00     0.218 HD
ENDBRANCH  10  12
BRANCH   4  14
HETATM   14  C5          0      45.067  30.016  15.948  1.00  0.00     0.025 C 
HETATM   15  C6          0      45.061  28.718  15.457  1.00  0.00     0.004 C 
HETATM   16  C7          0      46.291  28.108  15.233  1.00  0.00     0.026 C 
HETATM   17  C8          0      47.485  28.714  15.610  1.00  0.00     0.112 C 
HETATM   18  C10         0      47.363  29.656  16.622  1.00  0.00     0.112 C 
HETATM   19  C12         0      46.147  30.313  16.769  1.00  0.00     0.028 C 
BRANCH  17  20
HETATM   20  O9          0      48.639  28.525  14.871  1.00  0.00    -0.357 OA
HETATM   21  H9          0      49.354  29.150  14.838  1.00  0.00     0.218 HD
ENDBRANCH  17  20
BRANCH  18  22
HETATM   22  O11         0      48.540  30.152  17.164  1.00  0.00    -0.357 OA
HETATM   23  H11         0      48.504  30.458  18.063  1.00  0.00     0.218 HD
ENDBRANCH  18  22
ENDBRANCH   4  14
BRANCH   8  24
HETATM   24  O17         0      39.904  30.479  11.630  1.00  0.00    -0.359 OA
HETATM   25  H17         0      39.090  30.683  11.185  1.00  0.00     0.218 HD
ENDBRANCH   8  24
TORSDOF 5
ENDMDL
MODEL 2
REMARK VINA RESULT:      -8.2      1.527      3.062
REMARK  5 active torsions:
REMARK  status: ('A' for Active; 'I' for Inactive)
REMARK    1  A    between atoms: C4_4  and  C5_5 
REMARK    2  A    between atoms: C8_8  and  O9_9 
REMARK    3  A    between atoms: C10_11  and  O11_12 
REMARK    4  A    between atoms: C16_18  and  O17_19 
REMARK    5  A    between atoms: C19_22  and  O20_23 
ROOT
HETATM    1  O1          0      41.223  31.803  14.124  1.00  0.00    -0.286 OA
HETATM    2  C2          0      42.480  31.900  14.084  1.00  0.00     0.201 C 
HETATM    3  C3          0      43.323  30.826  14.311  1.00  0.00     0.067 C 
HETATM    4  C4          0      44.704  30.981  14.363  1.00  0.00     0.103 C 
HETATM    5  O13         0      45.215  32.185  14.170  1.00  0.00    -0.307 OA
HETATM    6  C14         0      44.458  33.245  13.989  1.00  0.00     0.107 C 
HETATM    7  C15         0      44.941  34.530  14.185  1.00  0.00     0.049 C 
HETATM    8  C16         0      44.084  35.623  14.242  1.00  0.00     0.093 C 
HETATM    9  C18         0      42.870  35.451  13.586  1.00  0.00     0.048 C 
HETATM   10  C19         0      42.379  34.178  13.332  1.00  0.00     0.096 C 
HETATM   11  C21         0      43.104  33.082  13.715  1.00  0.00     0.084 C 
ENDROOT
BRANCH  10  12
HETATM   12  O20         0      41.020  34.009  13.090  1.00  0.00    -0.359 OA
HETATM   13  H20         0      40.451  34.761  13.202  1.00  0.00     0.218 HD
ENDBRANCH  10  12
BRANCH   4  14
HETATM   14  C5          0      45.457  30.016  15.166  1.00  0.00     0.025 C 
HETATM   15  C6          0      45.521  28.666  14.854  1.00  0.00     0.004 C 
HETATM   16  C7          0      46.734  28.015  15.056  1.00  0.00     0.026 C 
HETATM   17  C8          0      47.808  28.648  15.673  1.00  0.00     0.112 C 
HETATM   18  C10         0      47.460  29.716  16.489  1.00  0.00     0.112 C 
HETATM   19  C12         0      46.284  30.404  16.212  1.00  0.00     0.028 C 
BRANCH  17  20
HETATM   20  O9          0      49.110  28.349  15.312  1.00  0.00    -0.357 OA
HETATM   21  H9          0      49.557  28.745  14.573  1.00  0.00     0.218 HD
ENDBRANCH  17  20
BRANCH  18  22
HETATM   22  O11         0      48.467  30.262  17.273  1.00  0.00    -0.357 OA
HETATM   23  H11         0      48.213  30.603  18.123  1.00  0.00     0.218 HD
ENDBRANCH  18  22
ENDBRANCH   4  14
BRANCH   8  24
HETATM   24  O17         0      44.284  36.660  15.159  1.00  0.00    -0.359 OA
HETATM   25  H17         0      44.859  36.559  15.909  1.00  0.00     0.218 HD
ENDBRANCH   8  24
TORSDOF 5
ENDMDL
MODEL 3
REMARK VINA RESULT:      -7.8     12.927     15.476
REMARK  5 active torsions:
REMARK  status: ('A' for Active; 'I' for Inactive)
REMARK    1  A    between atoms: C4_4  and  C5_5 
REMARK    2  A    between atoms: C8_8  and  O9_9 
REMARK    3  A    between atoms: C10_11  and  O11_12 
REMARK    4  A    between atoms: C16_18  and  O17_19 
REMARK    5  A    between atoms: C19_22  and  O20_23 
ROOT
HETATM    1  O1          0      55.248  20.834  16.880  1.00  0.00    -0.286 OA
HETATM    2  C2          0      55.952  21.639  16.211  1.00  0.00     0.201 C 
HETATM    3  C3          0      57.138  22.172  16.685  1.00  0.00     0.067 C 
HETATM    4  C4          0      57.842  23.135  15.971  1.00  0.00     0.103 C 
HETATM    5  O13         0      57.369  23.529  14.801  1.00  0.00    -0.307 OA
HETATM    6  C14         0      56.228  23.083  14.322  1.00  0.00     0.107 C 
HETATM    7  C15         0      55.538  23.761  13.328  1.00  0.00     0.049 C 
HETATM    8  C16         0      54.226  23.431  13.007  1.00  0.00     0.093 C 
HETATM    9  C18         0      53.856  22.128  13.316  1.00  0.00     0.048 C 
HETATM   10  C19         0      54.555  21.404  14.272  1.00  0.00     0.096 C 
HETATM   11  C21         0      55.627  21.972  14.905  1.00  0.00     0.084 C 
ENDROOT
BRANCH  10  12
HETATM   12  O20         0      53.944  20.311  14.880  1.00  0.00    -0.359 OA
HETATM   13  H20         0      53.503  20.452  15.708  1.00  0.00     0.218 HD
ENDBRANCH  10  12
BRANCH   4  14
HETATM   14  C5          0      58.684  24.056  16.737  1.00  0.00     0.025 C 
HETATM   15  C6          0      58.657  25.431  16.551  1.00  0.00     0.004 C 
HETATM   16  C7          0      58.774  26.236  17.680  1.00  0.00     0.026 C 
HETATM   17  C8          0      59.042  25.699  18.934  1.00  0.00     0.112 C 
HETATM   18  C10         0      59.663  24.457  18.912  1.00  0.00     0.112 C 
HETATM   19  C12         0      59.461  23.637  17.809  1.00  0.00     0.028 C 
BRANCH  17  20
HETATM   20  O9          0      58.528  26.280  20.079  1.00  0.00    -0.357 OA
HETATM   21  H9          0      57.807  25.915  20.579  1.00  0.00     0.218 HD
ENDBRANCH  17  20
BRANCH  18  22
HETATM   22  O11         0      60.123  23.963  20.125  1.00  0.00    -0.357 OA
HETATM   23  H11         0      60.949  23.493  20.112  1.00  0.00     0.218 HD
ENDBRANCH  18  22
ENDBRANCH   4  14
BRANCH   8  24
HETATM   24  O17         0      53.276  24.417  12.720  1.00  0.00    -0.359 OA
HETATM   25  H17         0      52.345  24.260  12.828  1.00  0.00     0.218 HD
ENDBRANCH   8  24
TORSDOF 5
ENDMDL
MODEL 4
REMARK VINA RESULT:      -7.8      2.046      2.836
REMARK  5 active torsions:
REMARK  status: ('A' for Active; 'I' for Inactive)
REMARK    1  A    between atoms: C4_4  and  C5_5 
REMARK    2  A    between atoms: C8_8  and  O9_9 
REMARK    3  A    between atoms: C10_11  and  O11_12 
REMARK    4  A    between atoms: C16_18  and  O17_19 
REMARK    5  A    between atoms: C19_22  and  O20_23 
ROOT
HETATM    1  O1          0      45.482  36.168  14.053  1.00  0.00    -0.286 OA
HETATM    2  C2          0      45.007  35.000  14.080  1.00  0.00     0.201 C 
HETATM    3  C3          0      45.752  33.895  14.456  1.00  0.00     0.067 C 
HETATM    4  C4          0      45.235  32.607  14.378  1.00  0.00     0.103 C 
HETATM    5  O13         0      43.994  32.446  13.953  1.00  0.00    -0.307 OA
HETATM    6  C14         0      43.257  33.456  13.548  1.00  0.00     0.107 C 
HETATM    7  C15         0      42.141  33.272  12.745  1.00  0.00     0.049 C 
HETATM    8  C16         0      41.519  34.343  12.115  1.00  0.00     0.093 C 
HETATM    9  C18         0      41.713  35.576  12.726  1.00  0.00     0.048 C 
HETATM   10  C19         0      42.794  35.782  13.573  1.00  0.00     0.096 C 
HETATM   11  C21         0      43.667  34.757  13.821  1.00  0.00     0.084 C 
ENDROOT
BRANCH  10  12
HETATM   12  O20         0      43.226  37.081  13.823  1.00  0.00    -0.359 OA
HETATM   13  H20         0      42.653  37.652  14.320  1.00  0.00     0.218 HD
ENDBRANCH  10  12
BRANCH   4  14
HETATM   14  C5          0      46.190  31.512  14.198  1.00  0.00     0.025 C 
HETATM   15  C6          0      47.562  31.711  14.147  1.00  0.00     0.004 C 
HETATM   16  C7          0      48.374  30.763  14.761  1.00  0.00     0.026 C 
HETATM   17  C8          0      47.852  29.588  15.291  1.00  0.00     0.112 C 
HETATM   18  C10         0      46.635  29.198  14.748  1.00  0.00     0.112 C 
HETATM   19  C12         0      45.804  30.178  14.217  1.00  0.00     0.028 C 
BRANCH  17  20
HETATM   20  O9          0      48.417  29.003  16.410  1.00  0.00    -0.357 OA
HETATM   21  H9          0      48.796  28.131  16.415  1.00  0.00     0.218 HD
ENDBRANCH  17  20
BRANCH  18  22
HETATM   22  O11         0      46.163  27.942  15.101  1.00  0.00    -0.357 OA
HETATM   23  H11         0      45.957  27.344  14.392  1.00  0.00     0.218 HD
ENDBRANCH  18  22
ENDBRANCH   4  14
BRANCH   8  24
HETATM   24  O17         0      41.035  34.239  10.806  1.00  0.00    -0.359 OA
HETATM   25  H17         0      41.614  34.289  10.055  1.00  0.00     0.218 HD
ENDBRANCH   8  24
TORSDOF 5
ENDMDL
MODEL 5
REMARK VINA RESULT:      -7.8      1.856      6.849
REMARK  5 active torsions:
REMARK  status: ('A' for Active; 'I' for Inactive)
REMARK    1  A    between atoms: C4_4  and  C5_5 
REMARK    2  A    between atoms: C8_8  and  O9_9 
REMARK    3  A    between atoms: C10_11  and  O11_12 
REMARK    4  A    between atoms: C16_18  and  O17_19 
REMARK    5  A    between atoms: C19_22  and  O20_23 
ROOT
HETATM    1  O1          0      45.349  27.374  14.874  1.00  0.00    -0.286 OA
HETATM    2  C2          0      45.107  28.609  14.781  1.00  0.00     0.201 C 
HETATM    3  C3          0      43.858  29.106  14.447  1.00  0.00     0.067 C 
HETATM    4  C4          0      43.643  30.465  14.252  1.00  0.00     0.103 C 
HETATM    5  O13         0      44.657  31.297  14.411  1.00  0.00    -0.307 OA
HETATM    6  C14         0      45.871  30.875  14.691  1.00  0.00     0.107 C 
HETATM    7  C15         0      46.989  31.665  14.468  1.00  0.00     0.049 C 
HETATM    8  C16         0      48.272  31.133  14.522  1.00  0.00     0.093 C 
HETATM    9  C18         0      48.399  29.988  15.300  1.00  0.00     0.048 C 
HETATM   10  C19         0      47.292  29.199  15.581  1.00  0.00     0.096 C 
HETATM   11  C21         0      46.062  29.561  15.104  1.00  0.00     0.084 C 
ENDROOT
BRANCH  10  12
HETATM   12  O20         0      47.480  27.875  15.964  1.00  0.00    -0.359 OA
HETATM   13  H20         0      47.857  27.278  15.329  1.00  0.00     0.218 HD
ENDBRANCH  10  12
BRANCH   4  14
HETATM   14  C5          0      42.551  30.848  13.355  1.00  0.00     0.025 C 
HETATM   15  C6          0      41.226  30.515  13.599  1.00  0.00     0.004 C 
HETATM   16  C7          0      40.255  31.461  13.286  1.00  0.00     0.026 C 
HETATM   17  C8          0      40.575  32.644  12.629  1.00  0.00     0.112 C 
HETATM   18  C10         0      41.749  32.598  11.889  1.00  0.00     0.112 C 
HETATM   19  C12         0      42.738  31.702  12.276  1.00  0.00     0.028 C 
BRANCH  17  20
HETATM   20  O9          0      39.875  33.810  12.888  1.00  0.00    -0.357 OA
HETATM   21  H9          0      39.312  34.239  12.254  1.00  0.00     0.218 HD
ENDBRANCH  17  20
BRANCH  18  22
HETATM   22  O11         0      42.016  33.683  11.066  1.00  0.00    -0.357 OA
HETATM   23  H11         0      41.270  34.112  10.664  1.00  0.00     0.218 HD
ENDBRANCH  18  22
ENDBRANCH   4  14
BRANCH   8  24
HETATM   24  O17         0      49.259  31.515  13.608  1.00  0.00    -0.359 OA
HETATM   25  H17         0      49.113  31.475  12.670  1.00  0.00     0.218 HD
ENDBRANCH   8  24
TORSDOF 5
ENDMDL
MODEL 6
REMARK VINA RESULT:      -7.7      2.466      6.608
REMARK  5 active torsions:
REMARK  status: ('A' for Active; 'I' for Inactive)
REMARK    1  A    between atoms: C4_4  and  C5_5 
REMARK    2  A    between atoms: C8_8  and  O9_9 
REMARK    3  A    between atoms: C10_11  and  O11_12 
REMARK    4  A    between atoms: C16_18  and  O17_19 
REMARK    5  A    between atoms: C19_22  and  O20_23 
ROOT
HETATM    1  O1          0      41.571  30.182  13.087  1.00  0.00    -0.286 OA
HETATM    2  C2          0      42.364  31.031  13.580  1.00  0.00     0.201 C 
HETATM    3  C3          0      42.105  32.391  13.575  1.00  0.00     0.067 C 
HETATM    4  C4          0      43.041  33.312  14.032  1.00  0.00     0.103 C 
HETATM    5  O13         0      44.194  32.867  14.499  1.00  0.00    -0.307 OA
HETATM    6  C14         0      44.505  31.589  14.491  1.00  0.00     0.107 C 
HETATM    7  C15         0      45.819  31.156  14.594  1.00  0.00     0.049 C 
HETATM    8  C16         0      46.167  29.837  14.332  1.00  0.00     0.093 C 
HETATM    9  C18         0      45.139  28.916  14.495  1.00  0.00     0.048 C 
HETATM   10  C19         0      43.813  29.323  14.444  1.00  0.00     0.096 C 
HETATM   11  C21         0      43.515  30.644  14.250  1.00  0.00     0.084 C 
ENDROOT
BRANCH  10  12
HETATM   12  O20         0      42.823  28.383  14.171  1.00  0.00    -0.359 OA
HETATM   13  H20         0      43.072  27.467  14.151  1.00  0.00     0.218 HD
ENDBRANCH  10  12
BRANCH   4  14
HETATM   14  C5          0      42.983  34.662  13.467  1.00  0.00     0.025 C 
HETATM   15  C6          0      41.838  35.183  12.881  1.00  0.00     0.004 C 
HETATM   16  C7          0      41.554  36.526  13.105  1.00  0.00     0.026 C 
HETATM   17  C8          0      42.444  37.358  13.775  1.00  0.00     0.112 C 
HETATM   18  C10         0      43.766  36.933  13.750  1.00  0.00     0.112 C 
HETATM   19  C12         0      44.020  35.574  13.611  1.00  0.00     0.028 C 
BRANCH  17  20
HETATM   20  O9          0      41.986  38.396  14.568  1.00  0.00    -0.357 OA
HETATM   21  H9          0      41.813  39.272  14.243  1.00  0.00     0.218 HD
ENDBRANCH  17  20
BRANCH  18  22
HETATM   22  O11         0      44.719  37.816  14.237  1.00  0.00    -0.357 OA
HETATM   23  H11         0      45.592  37.755  13.865  1.00  0.00     0.218 HD
ENDBRANCH  18  22
ENDBRANCH   4  14
BRANCH   8  24
HETATM   24  O17         0      47.340  29.515  13.641  1.00  0.00    -0.359 OA
HETATM   25  H17         0      47.954  28.870  13.972  1.00  0.00     0.218 HD
ENDBRANCH   8  24
TORSDOF 5
ENDMDL
MODEL 7
REMARK VINA RESULT:      -7.5      2.636      6.288
REMARK  5 active torsions:
REMARK  status: ('A' for Active; 'I' for Inactive)
REMARK    1  A    between atoms: C4_4  and  C5_5 
REMARK    2  A    between atoms: C8_8  and  O9_9 
REMARK    3  A    between atoms: C10_11  and  O11_12 
REMARK    4  A    between atoms: C16_18  and  O17_19 
REMARK    5  A    between atoms: C19_22  and  O20_23 
ROOT
HETATM    1  O1          0      44.859  30.998  15.593  1.00  0.00    -0.286 OA
HETATM    2  C2          0      44.286  31.663  14.687  1.00  0.00     0.201 C 
HETATM    3  C3          0      44.432  33.034  14.555  1.00  0.00     0.067 C 
HETATM    4  C4          0      43.709  33.756  13.613  1.00  0.00     0.103 C 
HETATM    5  O13         0      42.881  33.107  12.814  1.00  0.00    -0.307 OA
HETATM    6  C14         0      42.677  31.812  12.921  1.00  0.00     0.107 C 
HETATM    7  C15         0      41.552  31.202  12.385  1.00  0.00     0.049 C 
HETATM    8  C16         0      41.213  29.895  12.715  1.00  0.00     0.093 C 
HETATM    9  C18         0      42.274  29.102  13.135  1.00  0.00     0.048 C 
HETATM   10  C19         0      43.434  29.681  13.634  1.00  0.00     0.096 C 
HETATM   11  C21         0      43.540  31.044  13.696  1.00  0.00     0.084 C 
ENDROOT
BRANCH  10  12
HETATM   12  O20         0      44.282  28.923  14.435  1.00  0.00    -0.359 OA
HETATM   13  H20         0      44.033  28.786  15.341  1.00  0.00     0.218 HD
ENDBRANCH  10  12
BRANCH   4  14
HETATM   14  C5          0      43.444  35.165  13.909  1.00  0.00     0.025 C 
HETATM   15  C6          0      44.428  36.041  14.342  1.00  0.00     0.004 C 
HETATM   16  C7          0      44.390  37.345  13.858  1.00  0.00     0.026 C 
HETATM   17  C8          0      43.335  37.802  13.076  1.00  0.00     0.112 C 
HETATM   18  C10         0      42.150  37.094  13.230  1.00  0.00     0.112 C 
HETATM   19  C12         0      42.222  35.766  13.634  1.00  0.00     0.028 C 
BRANCH  17  20
HETATM   20  O9          0      43.543  38.744  12.085  1.00  0.00    -0.357 OA
HETATM   21  H9          0      43.770  38.526  11.188  1.00  0.00     0.218 HD
ENDBRANCH  17  20
BRANCH  18  22
HETATM   22  O11         0      41.020  37.620  12.620  1.00  0.00    -0.357 OA
HETATM   23  H11         0      40.237  37.081  12.628  1.00  0.00     0.218 HD
ENDBRANCH  18  22
ENDBRANCH   4  14
BRANCH   8  24
HETATM   24  O17         0      39.883  29.519  12.930  1.00  0.00    -0.359 OA
HETATM   25  H17         0      39.220  29.620  12.257  1.00  0.00     0.218 HD
ENDBRANCH   8  24
TORSDOF 5
ENDMDL
MODEL 8
REMARK VINA RESULT:      -7.5      3.162      6.323
REMARK  5 active torsions:
REMARK  status: ('A' for Active; 'I' for Inactive)
REMARK    1  A    between atoms: C4_4  and  C5_5 
REMARK    2  A    between atoms: C8_8  and  O9_9 
REMARK    3  A    between atoms: C10_11  and  O11_12 
REMARK    4  A    between atoms: C16_18  and  O17_19 
REMARK    5  A    between atoms: C19_22  and  O20_23 
ROOT
HETATM    1  O1          0      44.841  32.279  16.394  1.00  0.00    -0.286 OA
HETATM    2  C2          0      44.420  32.751  15.302  1.00  0.00     0.201 C 
HETATM    3  C3          0      44.627  34.067  14.924  1.00  0.00     0.067 C 
HETATM    4  C4          0      44.065  34.589  13.765  1.00  0.00     0.103 C 
HETATM    5  O13         0      43.334  33.796  13.001  1.00  0.00    -0.307 OA
HETATM    6  C14         0      43.076  32.550  13.332  1.00  0.00     0.107 C 
HETATM    7  C15         0      42.017  31.849  12.773  1.00  0.00     0.049 C 
HETATM    8  C16         0      41.594  30.636  13.304  1.00  0.00     0.093 C 
HETATM    9  C18         0      42.560  29.939  14.019  1.00  0.00     0.048 C 
HETATM   10  C19         0      43.658  30.602  14.552  1.00  0.00     0.096 C 
HETATM   11  C21         0      43.798  31.949  14.358  1.00  0.00     0.084 C 
ENDROOT
BRANCH  10  12
HETATM   12  O20         0      44.363  30.017  15.599  1.00  0.00    -0.359 OA
HETATM   13  H20         0      44.391  30.478  16.429  1.00  0.00     0.218 HD
ENDBRANCH  10  12
BRANCH   4  14
HETATM   14  C5          0      43.806  36.030  13.736  1.00  0.00     0.025 C 
HETATM   15  C6          0      42.589  36.567  13.345  1.00  0.00     0.004 C 
HETATM   16  C7          0      42.124  37.681  14.038  1.00  0.00     0.026 C 
HETATM   17  C8          0      42.902  38.320  14.996  1.00  0.00     0.112 C 
HETATM   18  C10         0      44.269  38.121  14.861  1.00  0.00     0.112 C 
HETATM   19  C12         0      44.708  36.958  14.239  1.00  0.00     0.028 C 
BRANCH  17  20
HETATM   20  O9          0      42.318  38.918  16.099  1.00  0.00    -0.357 OA
HETATM   21  H9          0      42.352  39.851  16.274  1.00  0.00     0.218 HD
ENDBRANCH  17  20
BRANCH  18  22
HETATM   22  O11         0      45.099  38.884  15.670  1.00  0.00    -0.357 OA
HETATM   23  H11         0      45.829  39.321  15.247  1.00  0.00     0.218 HD
ENDBRANCH  18  22
ENDBRANCH   4  14
BRANCH   8  24
HETATM   24  O17         0      40.235  30.316  13.399  1.00  0.00    -0.359 OA
HETATM   25  H17         0      39.763  29.924  12.674  1.00  0.00     0.218 HD
ENDBRANCH   8  24
TORSDOF 5
ENDMDL
MODEL 9
REMARK VINA RESULT:      -7.4      3.499      7.336
REMARK  5 active torsions:
REMARK  status: ('A' for Active; 'I' for Inactive)
REMARK    1  A    between atoms: C4_4  and  C5_5 
REMARK    2  A    between atoms: C8_8  and  O9_9 
REMARK    3  A    between atoms: C10_11  and  O11_12 
REMARK    4  A    between atoms: C16_18  and  O17_19 
REMARK    5  A    between atoms: C19_22  and  O20_23 
ROOT
HETATM    1  O1          0      48.802  33.668  13.381  1.00  0.00    -0.286 OA
HETATM    2  C2          0      47.590  33.558  13.711  1.00  0.00     0.201 C 
HETATM    3  C3          0      46.667  34.573  13.527  1.00  0.00     0.067 C 
HETATM    4  C4          0      45.361  34.464  13.993  1.00  0.00     0.103 C 
HETATM    5  O13         0      44.997  33.353  14.608  1.00  0.00    -0.307 OA
HETATM    6  C14         0      45.844  32.374  14.842  1.00  0.00     0.107 C 
HETATM    7  C15         0      45.597  31.410  15.808  1.00  0.00     0.049 C 
HETATM    8  C16         0      46.594  30.537  16.228  1.00  0.00     0.093 C 
HETATM    9  C18         0      47.613  30.324  15.308  1.00  0.00     0.048 C 
HETATM   10  C19         0      47.857  31.246  14.299  1.00  0.00     0.096 C 
HETATM   11  C21         0      47.078  32.366  14.200  1.00  0.00     0.084 C 
ENDROOT
BRANCH  10  12
HETATM   12  O20         0      49.102  31.260  13.677  1.00  0.00    -0.359 OA
HETATM   13  H20         0      49.421  30.449  13.301  1.00  0.00     0.218 HD
ENDBRANCH  10  12
BRANCH   4  14
HETATM   14  C5          0      44.658  35.708  14.310  1.00  0.00     0.025 C 
HETATM   15  C6          0      44.796  36.361  15.527  1.00  0.00     0.004 C 
HETATM   16  C7          0      44.827  37.751  15.512  1.00  0.00     0.026 C 
HETATM   17  C8          0      44.594  38.474  14.347  1.00  0.00     0.112 C 
HETATM   18  C10         0      43.863  37.796  13.380  1.00  0.00     0.112 C 
HETATM   19  C12         0      43.918  36.407  13.365  1.00  0.00     0.028 C 
BRANCH  17  20
HETATM   20  O9          0      45.233  39.680  14.122  1.00  0.00    -0.357 OA
HETATM   21  H9          0      45.904  40.037  14.692  1.00  0.00     0.218 HD
ENDBRANCH  17  20
BRANCH  18  22
HETATM   22  O11         0      43.442  38.530  12.281  1.00  0.00    -0.357 OA
HETATM   23  H11         0      43.316  39.463  12.410  1.00  0.00     0.218 HD
ENDBRANCH  18  22
ENDBRANCH   4  14
BRANCH   8  24
HETATM   24  O17         0      46.732  30.181  17.574  1.00  0.00    -0.359 OA
HETATM   25  H17         0      47.341  29.507  17.852  1.00  0.00     0.218 HD
ENDBRANCH   8  24
TORSDOF 5
ENDMDL
