MODEL 1
REMARK VINA RESULT:      -5.6      0.000      0.000
REMARK  5 active torsions:
REMARK  status: ('A' for Active; 'I' for Inactive)
REMARK    1  A    between atoms: C4_4  and  C5_5 
REMARK    2  A    between atoms: C8_8  and  O9_9 
REMARK    3  A    between atoms: C10_11  and  O11_12 
REMARK    4  A    between atoms: C16_18  and  O17_19 
REMARK    5  A    between atoms: C19_22  and  O20_23 
ROOT
HETATM    1  O1          0      48.829   2.645 -17.588  1.00  0.00    -0.286 OA
HETATM    2  C2          0      49.586   1.731 -18.017  1.00  0.00     0.201 C 
HETATM    3  C3          0      49.376   0.391 -17.739  1.00  0.00     0.067 C 
HETATM    4  C4          0      50.281  -0.586 -18.137  1.00  0.00     0.103 C 
HETATM    5  O13         0      51.354  -0.219 -18.815  1.00  0.00    -0.307 OA
HETATM    6  C14         0      51.620   1.043 -19.073  1.00  0.00     0.107 C 
HETATM    7  C15         0      52.897   1.466 -19.414  1.00  0.00     0.049 C 
HETATM    8  C16         0      53.228   2.816 -19.435  1.00  0.00     0.093 C 
HETATM    9  C18         0      52.157   3.680 -19.630  1.00  0.00     0.048 C 
HETATM   10  C19         0      50.861   3.273 -19.344  1.00  0.00     0.096 C 
HETATM   11  C21         0      50.634   2.005 -18.882  1.00  0.00     0.084 C 
ENDROOT
BRANCH  10  12
HETATM   12  O20         0      49.880   4.234 -19.121  1.00  0.00    -0.359 OA
HETATM   13  H20         0      49.404   4.566 -19.873  1.00  0.00     0.218 HD
ENDBRANCH  10  12
BRANCH   4  14
HETATM   14  C5          0      50.337  -1.812 -17.339  1.00  0.00     0.025 C 
HETATM   15  C6          0      49.212  -2.569 -17.043  1.00  0.00     0.004 C 
HETATM   16  C7          0      49.348  -3.953 -17.046  1.00  0.00     0.026 C 
HETATM   17  C8          0      50.587  -4.564 -17.203  1.00  0.00     0.112 C 
HETATM   18  C10         0      51.673  -3.771 -16.858  1.00  0.00     0.112 C 
HETATM   19  C12         0      51.537  -2.391 -16.946  1.00  0.00     0.028 C 
BRANCH  17  20
HETATM   20  O9          0      50.700  -5.781 -17.853  1.00  0.00    -0.357 OA
HETATM   21  H9          0      50.639  -6.621 -17.414  1.00  0.00     0.218 HD
ENDBRANCH  17  20
BRANCH  18  22
HETATM   22  O11         0      52.915  -4.389 -16.815  1.00  0.00    -0.357 OA
HETATM   23  H11         0      53.629  -3.893 -16.433  1.00  0.00     0.218 HD
ENDBRANCH  18  22
ENDBRANCH   4  14
BRANCH   8  24
HETATM   24  O17         0      54.464   3.271 -18.964  1.00  0.00    -0.359 OA
HETATM   25  H17         0      55.015   2.733 -18.406  1.00  0.00     0.218 HD
ENDBRANCH   8  24
TORSDOF 5
ENDMDL
MODEL 2
REMARK VINA RESULT:      -5.2      9.120     12.292
REMARK  5 active torsions:
REMARK  status: ('A' for Active; 'I' for Inactive)
REMARK    1  A    between atoms: C4_4  and  C5_5 
REMARK    2  A    between atoms: C8_8  and  O9_9 
REMARK    3  A    between atoms: C10_11  and  O11_12 
REMARK    4  A    between atoms: C16_18  and  O17_19 
REMARK    5  A    between atoms: C19_22  and  O20_23 
ROOT
HETATM    1  O1          0      51.307  -6.461  -7.836  1.00  0.00    -0.286 OA
HETATM    2  C2          0      52.357  -6.625  -8.517  1.00  0.00     0.201 C 
HETATM    3  C3          0      53.625  -6.412  -8.003  1.00  0.00     0.067 C 
HETATM    4  C4          0      54.759  -6.500  -8.802  1.00  0.00     0.103 C 
HETATM    5  O13         0      54.615  -6.814 -10.077  1.00  0.00    -0.307 OA
HETATM    6  C14         0      53.432  -6.989 -10.624  1.00  0.00     0.107 C 
HETATM    7  C15         0      53.243  -6.919 -11.997  1.00  0.00     0.049 C 
HETATM    8  C16         0      51.969  -6.850 -12.548  1.00  0.00     0.093 C 
HETATM    9  C18         0      50.957  -7.376 -11.755  1.00  0.00     0.048 C 
HETATM   10  C19         0      51.130  -7.504 -10.383  1.00  0.00     0.096 C 
HETATM   11  C21         0      52.312  -7.123  -9.809  1.00  0.00     0.084 C 
ENDROOT
BRANCH  10  12
HETATM   12  O20         0      50.010  -7.607  -9.563  1.00  0.00    -0.359 OA
HETATM   13  H20         0      49.460  -8.375  -9.656  1.00  0.00     0.218 HD
ENDBRANCH  10  12
BRANCH   4  14
HETATM   14  C5          0      55.926  -5.712  -8.398  1.00  0.00     0.025 C 
HETATM   15  C6          0      56.734  -5.045  -9.307  1.00  0.00     0.004 C 
HETATM   16  C7          0      57.224  -3.797  -8.938  1.00  0.00     0.026 C 
HETATM   17  C8          0      57.030  -3.285  -7.660  1.00  0.00     0.112 C 
HETATM   18  C10         0      56.792  -4.242  -6.683  1.00  0.00     0.112 C 
HETATM   19  C12         0      56.222  -5.450  -7.066  1.00  0.00     0.028 C 
BRANCH  17  20
HETATM   20  O9          0      56.881  -1.925  -7.456  1.00  0.00    -0.357 OA
HETATM   21  H9          0      57.459  -1.268  -7.829  1.00  0.00     0.218 HD
ENDBRANCH  17  20
BRANCH  18  22
HETATM   22  O11         0      56.779  -3.805  -5.365  1.00  0.00    -0.357 OA
HETATM   23  H11         0      55.980  -3.395  -5.056  1.00  0.00     0.218 HD
ENDBRANCH  18  22
ENDBRANCH   4  14
BRANCH   8  24
HETATM   24  O17         0      51.692  -6.021 -13.641  1.00  0.00    -0.359 OA
HETATM   25  H17         0      50.862  -5.567 -13.725  1.00  0.00     0.218 HD
ENDBRANCH   8  24
TORSDOF 5
ENDMDL
MODEL 3
REMARK VINA RESULT:      -5.2      1.978      2.723
REMARK  5 active torsions:
REMARK  status: ('A' for Active; 'I' for Inactive)
REMARK    1  A    between atoms: C4_4  and  C5_5 
REMARK    2  A    between atoms: C8_8  and  O9_9 
REMARK    3  A    between atoms: C10_11  and  O11_12 
REMARK    4  A    between atoms: C16_18  and  O17_19 
REMARK    5  A    between atoms: C19_22  and  O20_23 
ROOT
HETATM    1  O1          0      46.937   0.621 -16.907  1.00  0.00    -0.286 OA
HETATM    2  C2          0      48.005   0.651 -17.577  1.00  0.00     0.201 C 
HETATM    3  C3          0      48.681  -0.495 -17.963  1.00  0.00     0.067 C 
HETATM    4  C4          0      49.909  -0.432 -18.612  1.00  0.00     0.103 C 
HETATM    5  O13         0      50.425   0.754 -18.881  1.00  0.00    -0.307 OA
HETATM    6  C14         0      49.843   1.872 -18.505  1.00  0.00     0.107 C 
HETATM    7  C15         0      50.542   3.067 -18.420  1.00  0.00     0.049 C 
HETATM    8  C16         0      49.998   4.177 -17.785  1.00  0.00     0.093 C 
HETATM    9  C18         0      48.609   4.203 -17.735  1.00  0.00     0.048 C 
HETATM   10  C19         0      47.877   3.031 -17.863  1.00  0.00     0.096 C 
HETATM   11  C21         0      48.526   1.842 -18.057  1.00  0.00     0.084 C 
ENDROOT
BRANCH  10  12
HETATM   12  O20         0      46.570   2.990 -17.387  1.00  0.00    -0.359 OA
HETATM   13  H20         0      46.440   2.910 -16.450  1.00  0.00     0.218 HD
ENDBRANCH  10  12
BRANCH   4  14
HETATM   14  C5          0      50.812  -1.573 -18.449  1.00  0.00     0.025 C 
HETATM   15  C6          0      51.817  -1.605 -17.493  1.00  0.00     0.004 C 
HETATM   16  C7          0      52.058  -2.816 -16.852  1.00  0.00     0.026 C 
HETATM   17  C8          0      51.416  -3.987 -17.240  1.00  0.00     0.112 C 
HETATM   18  C10         0      50.949  -3.986 -18.547  1.00  0.00     0.112 C 
HETATM   19  C12         0      50.635  -2.767 -19.135  1.00  0.00     0.028 C 
BRANCH  17  20
HETATM   20  O9          0      51.100  -4.963 -16.311  1.00  0.00    -0.357 OA
HETATM   21  H9          0      50.258  -5.023 -15.874  1.00  0.00     0.218 HD
ENDBRANCH  17  20
BRANCH  18  22
HETATM   22  O11         0      50.471  -5.191 -19.045  1.00  0.00    -0.357 OA
HETATM   23  H11         0      49.671  -5.158 -19.556  1.00  0.00     0.218 HD
ENDBRANCH  18  22
ENDBRANCH   4  14
BRANCH   8  24
HETATM   24  O17         0      50.779   5.011 -16.977  1.00  0.00    -0.359 OA
HETATM   25  H17         0      50.790   4.921 -16.031  1.00  0.00     0.218 HD
ENDBRANCH   8  24
TORSDOF 5
ENDMDL
MODEL 4
REMARK VINA RESULT:      -5.1      3.522      5.739
REMARK  5 active torsions:
REMARK  status: ('A' for Active; 'I' for Inactive)
REMARK    1  A    between atoms: C4_4  and  C5_5 
REMARK    2  A    between atoms: C8_8  and  O9_9 
REMARK    3  A    between atoms: C10_11  and  O11_12 
REMARK    4  A    between atoms: C16_18  and  O17_19 
REMARK    5  A    between atoms: C19_22  and  O20_23 
ROOT
HETATM    1  O1          0      47.114  -3.738 -18.575  1.00  0.00    -0.286 OA
HETATM    2  C2          0      48.126  -4.142 -17.940  1.00  0.00     0.201 C 
HETATM    3  C3          0      48.065  -5.149 -16.992  1.00  0.00     0.067 C 
HETATM    4  C4          0      49.175  -5.504 -16.234  1.00  0.00     0.103 C 
HETATM    5  O13         0      50.316  -4.873 -16.445  1.00  0.00    -0.307 OA
HETATM    6  C14         0      50.420  -3.884 -17.306  1.00  0.00     0.107 C 
HETATM    7  C15         0      51.464  -2.973 -17.251  1.00  0.00     0.049 C 
HETATM    8  C16         0      51.435  -1.796 -17.989  1.00  0.00     0.093 C 
HETATM    9  C18         0      50.634  -1.835 -19.124  1.00  0.00     0.048 C 
HETATM   10  C19         0      49.609  -2.765 -19.233  1.00  0.00     0.096 C 
HETATM   11  C21         0      49.396  -3.662 -18.221  1.00  0.00     0.084 C 
ENDROOT
BRANCH  10  12
HETATM   12  O20         0      48.568  -2.529 -20.125  1.00  0.00    -0.359 OA
HETATM   13  H20         0      48.757  -2.581 -21.054  1.00  0.00     0.218 HD
ENDBRANCH  10  12
BRANCH   4  14
HETATM   14  C5          0      48.926  -6.088 -14.915  1.00  0.00     0.025 C 
HETATM   15  C6          0      47.716  -5.953 -14.250  1.00  0.00     0.004 C 
HETATM   16  C7          0      47.250  -7.050 -13.531  1.00  0.00     0.026 C 
HETATM   17  C8          0      48.022  -8.195 -13.367  1.00  0.00     0.112 C 
HETATM   18  C10         0      49.389  -7.998 -13.504  1.00  0.00     0.112 C 
HETATM   19  C12         0      49.828  -6.944 -14.297  1.00  0.00     0.028 C 
BRANCH  17  20
HETATM   20  O9          0      47.430  -9.443 -13.288  1.00  0.00    -0.357 OA
HETATM   21  H9          0      47.123  -9.931 -14.044  1.00  0.00     0.218 HD
ENDBRANCH  17  20
BRANCH  18  22
HETATM   22  O11         0      50.215  -9.060 -13.165  1.00  0.00    -0.357 OA
HETATM   23  H11         0      50.233  -9.316 -12.250  1.00  0.00     0.218 HD
ENDBRANCH  18  22
ENDBRANCH   4  14
BRANCH   8  24
HETATM   24  O17         0      51.894  -0.587 -17.454  1.00  0.00    -0.359 OA
HETATM   25  H17         0      52.212  -0.526 -16.561  1.00  0.00     0.218 HD
ENDBRANCH   8  24
TORSDOF 5
ENDMDL
MODEL 5
REMARK VINA RESULT:      -5.1      9.514     12.286
REMARK  5 active torsions:
REMARK  status: ('A' for Active; 'I' for Inactive)
REMARK    1  A    between atoms: C4_4  and  C5_5 
REMARK    2  A    between atoms: C8_8  and  O9_9 
REMARK    3  A    between atoms: C10_11  and  O11_12 
REMARK    4  A    between atoms: C16_18  and  O17_19 
REMARK    5  A    between atoms: C19_22  and  O20_23 
ROOT
HETATM    1  O1          0      58.510  -6.949  -9.716  1.00  0.00    -0.286 OA
HETATM    2  C2          0      57.364  -6.736  -9.234  1.00  0.00     0.201 C 
HETATM    3  C3          0      56.243  -7.450  -9.620  1.00  0.00     0.067 C 
HETATM    4  C4          0      54.975  -7.126  -9.150  1.00  0.00     0.103 C 
HETATM    5  O13         0      54.851  -6.124  -8.298  1.00  0.00    -0.307 OA
HETATM    6  C14         0      55.877  -5.390  -7.928  1.00  0.00     0.107 C 
HETATM    7  C15         0      55.712  -4.128  -7.375  1.00  0.00     0.049 C 
HETATM    8  C16         0      56.787  -3.261  -7.223  1.00  0.00     0.093 C 
HETATM    9  C18         0      58.030  -3.875  -7.140  1.00  0.00     0.048 C 
HETATM   10  C19         0      58.219  -5.156  -7.641  1.00  0.00     0.096 C 
HETATM   11  C21         0      57.168  -5.826  -8.207  1.00  0.00     0.084 C 
ENDROOT
BRANCH  10  12
HETATM   12  O20         0      59.507  -5.583  -7.951  1.00  0.00    -0.359 OA
HETATM   13  H20         0      59.943  -6.162  -7.337  1.00  0.00     0.218 HD
ENDBRANCH  10  12
BRANCH   4  14
HETATM   14  C5          0      53.836  -7.472 -10.002  1.00  0.00     0.025 C 
HETATM   15  C6          0      52.708  -8.123  -9.523  1.00  0.00     0.004 C 
HETATM   16  C7          0      51.473  -7.731 -10.031  1.00  0.00     0.026 C 
HETATM   17  C8          0      51.371  -6.819 -11.076  1.00  0.00     0.112 C 
HETATM   18  C10         0      52.501  -6.726 -11.877  1.00  0.00     0.112 C 
HETATM   19  C12         0      53.734  -7.042 -11.319  1.00  0.00     0.028 C 
BRANCH  17  20
HETATM   20  O9          0      50.301  -5.945 -11.151  1.00  0.00    -0.357 OA
HETATM   21  H9          0      49.933  -5.630 -11.968  1.00  0.00     0.218 HD
ENDBRANCH  17  20
BRANCH  18  22
HETATM   22  O11         0      52.387  -5.977 -13.039  1.00  0.00    -0.357 OA
HETATM   23  H11         0      51.544  -5.988 -13.477  1.00  0.00     0.218 HD
ENDBRANCH  18  22
ENDBRANCH   4  14
BRANCH   8  24
HETATM   24  O17         0      56.659  -1.890  -7.476  1.00  0.00    -0.359 OA
HETATM   25  H17         0      55.825  -1.444  -7.396  1.00  0.00     0.218 HD
ENDBRANCH   8  24
TORSDOF 5
ENDMDL
MODEL 6
REMARK VINA RESULT:      -5.1      2.796      7.469
REMARK  5 active torsions:
REMARK  status: ('A' for Active; 'I' for Inactive)
REMARK    1  A    between atoms: C4_4  and  C5_5 
REMARK    2  A    between atoms: C8_8  and  O9_9 
REMARK    3  A    between atoms: C10_11  and  O11_12 
REMARK    4  A    between atoms: C16_18  and  O17_19 
REMARK    5  A    between atoms: C19_22  and  O20_23 
ROOT
HETATM    1  O1          0      52.633   1.459 -18.054  1.00  0.00    -0.286 OA
HETATM    2  C2          0      51.432   1.784 -18.263  1.00  0.00     0.201 C 
HETATM    3  C3          0      51.057   3.056 -18.661  1.00  0.00     0.067 C 
HETATM    4  C4          0      49.720   3.416 -18.784  1.00  0.00     0.103 C 
HETATM    5  O13         0      48.792   2.509 -18.533  1.00  0.00    -0.307 OA
HETATM    6  C14         0      49.093   1.299 -18.116  1.00  0.00     0.107 C 
HETATM    7  C15         0      48.161   0.493 -17.479  1.00  0.00     0.049 C 
HETATM    8  C16         0      48.543  -0.669 -16.818  1.00  0.00     0.093 C 
HETATM    9  C18         0      49.729  -1.236 -17.267  1.00  0.00     0.048 C 
HETATM   10  C19         0      50.664  -0.469 -17.949  1.00  0.00     0.096 C 
HETATM   11  C21         0      50.408   0.852 -18.197  1.00  0.00     0.084 C 
ENDROOT
BRANCH  10  12
HETATM   12  O20         0      51.987  -0.898 -18.004  1.00  0.00    -0.359 OA
HETATM   13  H20         0      52.620  -0.334 -18.431  1.00  0.00     0.218 HD
ENDBRANCH  10  12
BRANCH   4  14
HETATM   14  C5          0      49.388   4.831 -18.607  1.00  0.00     0.025 C 
HETATM   15  C6          0      48.087   5.285 -18.450  1.00  0.00     0.004 C 
HETATM   16  C7          0      47.870   6.326 -17.553  1.00  0.00     0.026 C 
HETATM   17  C8          0      48.926   6.985 -16.933  1.00  0.00     0.112 C 
HETATM   18  C10         0      50.137   6.903 -17.608  1.00  0.00     0.112 C 
HETATM   19  C12         0      50.361   5.807 -18.433  1.00  0.00     0.028 C 
BRANCH  17  20
HETATM   20  O9          0      48.794   7.486 -15.650  1.00  0.00    -0.357 OA
HETATM   21  H9          0      48.635   6.944 -14.886  1.00  0.00     0.218 HD
ENDBRANCH  17  20
BRANCH  18  22
HETATM   22  O11         0      51.174   7.696 -17.136  1.00  0.00    -0.357 OA
HETATM   23  H11         0      51.950   7.758 -17.681  1.00  0.00     0.218 HD
ENDBRANCH  18  22
ENDBRANCH   4  14
BRANCH   8  24
HETATM   24  O17         0      47.967  -1.036 -15.597  1.00  0.00    -0.359 OA
HETATM   25  H17         0      47.071  -0.808 -15.378  1.00  0.00     0.218 HD
ENDBRANCH   8  24
TORSDOF 5
ENDMDL
MODEL 7
REMARK VINA RESULT:      -5.1      1.811      6.534
REMARK  5 active torsions:
REMARK  status: ('A' for Active; 'I' for Inactive)
REMARK    1  A    between atoms: C4_4  and  C5_5 
REMARK    2  A    between atoms: C8_8  and  O9_9 
REMARK    3  A    between atoms: C10_11  and  O11_12 
REMARK    4  A    between atoms: C16_18  and  O17_19 
REMARK    5  A    between atoms: C19_22  and  O20_23 
ROOT
HETATM    1  O1          0      47.106  -2.413 -17.154  1.00  0.00    -0.286 OA
HETATM    2  C2          0      48.242  -1.867 -17.204  1.00  0.00     0.201 C 
HETATM    3  C3          0      48.413  -0.493 -17.230  1.00  0.00     0.067 C 
HETATM    4  C4          0      49.669   0.082 -17.389  1.00  0.00     0.103 C 
HETATM    5  O13         0      50.720  -0.711 -17.498  1.00  0.00    -0.307 OA
HETATM    6  C14         0      50.609  -2.021 -17.518  1.00  0.00     0.107 C 
HETATM    7  C15         0      51.615  -2.832 -18.022  1.00  0.00     0.049 C 
HETATM    8  C16         0      51.396  -4.181 -18.276  1.00  0.00     0.093 C 
HETATM    9  C18         0      50.372  -4.759 -17.535  1.00  0.00     0.048 C 
HETATM   10  C19         0      49.374  -3.971 -16.977  1.00  0.00     0.096 C 
HETATM   11  C21         0      49.408  -2.613 -17.143  1.00  0.00     0.084 C 
ENDROOT
BRANCH  10  12
HETATM   12  O20         0      48.160  -4.556 -16.630  1.00  0.00    -0.359 OA
HETATM   13  H20         0      47.758  -5.149 -17.253  1.00  0.00     0.218 HD
ENDBRANCH  10  12
BRANCH   4  14
HETATM   14  C5          0      49.724   1.413 -17.995  1.00  0.00     0.025 C 
HETATM   15  C6          0      48.691   2.333 -17.886  1.00  0.00     0.004 C 
HETATM   16  C7          0      49.034   3.671 -17.725  1.00  0.00     0.026 C 
HETATM   17  C8          0      50.354   4.101 -17.805  1.00  0.00     0.112 C 
HETATM   18  C10         0      51.195   3.260 -18.523  1.00  0.00     0.112 C 
HETATM   19  C12         0      50.873   1.910 -18.597  1.00  0.00     0.028 C 
BRANCH  17  20
HETATM   20  O9          0      50.801   5.165 -17.042  1.00  0.00    -0.357 OA
HETATM   21  H9          0      50.225   5.755 -16.570  1.00  0.00     0.218 HD
ENDBRANCH  17  20
BRANCH  18  22
HETATM   22  O11         0      52.472   3.731 -18.794  1.00  0.00    -0.357 OA
HETATM   23  H11         0      52.690   4.596 -18.468  1.00  0.00     0.218 HD
ENDBRANCH  18  22
ENDBRANCH   4  14
BRANCH   8  24
HETATM   24  O17         0      51.924  -4.805 -19.412  1.00  0.00    -0.359 OA
HETATM   25  H17         0      51.942  -5.750 -19.499  1.00  0.00     0.218 HD
ENDBRANCH   8  24
TORSDOF 5
ENDMDL
MODEL 8
REMARK VINA RESULT:      -5.0      5.822      8.761
REMARK  5 active torsions:
REMARK  status: ('A' for Active; 'I' for Inactive)
REMARK    1  A    between atoms: C4_4  and  C5_5 
REMARK    2  A    between atoms: C8_8  and  O9_9 
REMARK    3  A    between atoms: C10_11  and  O11_12 
REMARK    4  A    between atoms: C16_18  and  O17_19 
REMARK    5  A    between atoms: C19_22  and  O20_23 
ROOT
HETATM    1  O1          0      49.140   8.236 -15.962  1.00  0.00    -0.286 OA
HETATM    2  C2          0      48.409   7.274 -16.324  1.00  0.00     0.201 C 
HETATM    3  C3          0      47.056   7.210 -16.038  1.00  0.00     0.067 C 
HETATM    4  C4          0      46.295   6.091 -16.360  1.00  0.00     0.103 C 
HETATM    5  O13         0      46.883   5.078 -16.971  1.00  0.00    -0.307 OA
HETATM    6  C14         0      48.172   5.072 -17.231  1.00  0.00     0.107 C 
HETATM    7  C15         0      48.859   3.895 -17.493  1.00  0.00     0.049 C 
HETATM    8  C16         0      50.248   3.860 -17.514  1.00  0.00     0.093 C 
HETATM    9  C18         0      50.862   5.075 -17.794  1.00  0.00     0.048 C 
HETATM   10  C19         0      50.186   6.270 -17.588  1.00  0.00     0.096 C 
HETATM   11  C21         0      48.900   6.252 -17.122  1.00  0.00     0.084 C 
ENDROOT
BRANCH  10  12
HETATM   12  O20         0      50.914   7.447 -17.447  1.00  0.00    -0.359 OA
HETATM   13  H20         0      50.998   7.818 -16.577  1.00  0.00     0.218 HD
ENDBRANCH  10  12
BRANCH   4  14
HETATM   14  C5          0      45.111   5.829 -15.540  1.00  0.00     0.025 C 
HETATM   15  C6          0      44.777   4.562 -15.085  1.00  0.00     0.004 C 
HETATM   16  C7          0      44.250   4.456 -13.802  1.00  0.00     0.026 C 
HETATM   17  C8          0      43.939   5.581 -13.046  1.00  0.00     0.112 C 
HETATM   18  C10         0      43.709   6.732 -13.787  1.00  0.00     0.112 C 
HETATM   19  C12         0      44.317   6.849 -15.031  1.00  0.00     0.028 C 
BRANCH  17  20
HETATM   20  O9          0      44.068   5.567 -11.668  1.00  0.00    -0.357 OA
HETATM   21  H9          0      44.889   5.405 -11.216  1.00  0.00     0.218 HD
ENDBRANCH  17  20
BRANCH  18  22
HETATM   22  O11         0      43.212   7.831 -13.102  1.00  0.00    -0.357 OA
HETATM   23  H11         0      43.827   8.528 -12.903  1.00  0.00     0.218 HD
ENDBRANCH  18  22
ENDBRANCH   4  14
BRANCH   8  24
HETATM   24  O17         0      50.959   2.785 -16.969  1.00  0.00    -0.359 OA
HETATM   25  H17         0      51.840   2.890 -16.630  1.00  0.00     0.218 HD
ENDBRANCH   8  24
TORSDOF 5
ENDMDL
MODEL 9
REMARK VINA RESULT:      -5.0      4.194      9.119
REMARK  5 active torsions:
REMARK  status: ('A' for Active; 'I' for Inactive)
REMARK    1  A    between atoms: C4_4  and  C5_5 
REMARK    2  A    between atoms: C8_8  and  O9_9 
REMARK    3  A    between atoms: C10_11  and  O11_12 
REMARK    4  A    between atoms: C16_18  and  O17_19 
REMARK    5  A    between atoms: C19_22  and  O20_23 
ROOT
HETATM    1  O1          0      45.122  -7.134 -16.804  1.00  0.00    -0.286 OA
HETATM    2  C2          0      46.074  -6.566 -16.203  1.00  0.00     0.201 C 
HETATM    3  C3          0      46.748  -5.475 -16.726  1.00  0.00     0.067 C 
HETATM    4  C4          0      47.859  -4.932 -16.091  1.00  0.00     0.103 C 
HETATM    5  O13         0      48.263  -5.465 -14.951  1.00  0.00    -0.307 OA
HETATM    6  C14         0      47.682  -6.524 -14.430  1.00  0.00     0.107 C 
HETATM    7  C15         0      48.319  -7.316 -13.485  1.00  0.00     0.049 C 
HETATM    8  C16         0      47.815  -8.561 -13.130  1.00  0.00     0.093 C 
HETATM    9  C18         0      46.450  -8.723 -13.336  1.00  0.00     0.048 C 
HETATM   10  C19         0      45.773  -7.917 -14.241  1.00  0.00     0.096 C 
HETATM   11  C21         0      46.451  -6.944 -14.923  1.00  0.00     0.084 C 
ENDROOT
BRANCH  10  12
HETATM   12  O20         0      44.556  -8.349 -14.759  1.00  0.00    -0.359 OA
HETATM   13  H20         0      44.156  -9.118 -14.372  1.00  0.00     0.218 HD
ENDBRANCH  10  12
BRANCH   4  14
HETATM   14  C5          0      48.839  -4.240 -16.931  1.00  0.00     0.025 C 
HETATM   15  C6          0      48.819  -2.868 -17.134  1.00  0.00     0.004 C 
HETATM   16  C7          0      50.042  -2.207 -17.192  1.00  0.00     0.026 C 
HETATM   17  C8          0      51.247  -2.901 -17.184  1.00  0.00     0.112 C 
HETATM   18  C10         0      51.160  -4.219 -17.613  1.00  0.00     0.112 C 
HETATM   19  C12         0      49.948  -4.883 -17.465  1.00  0.00     0.028 C 
BRANCH  17  20
HETATM   20  O9          0      52.373  -2.359 -16.591  1.00  0.00    -0.357 OA
HETATM   21  H9          0      52.754  -2.686 -15.784  1.00  0.00     0.218 HD
ENDBRANCH  17  20
BRANCH  18  22
HETATM   22  O11         0      52.355  -4.898 -17.804  1.00  0.00    -0.357 OA
HETATM   23  H11         0      52.811  -4.743 -18.624  1.00  0.00     0.218 HD
ENDBRANCH  18  22
ENDBRANCH   4  14
BRANCH   8  24
HETATM   24  O17         0      48.661  -9.654 -12.910  1.00  0.00    -0.359 OA
HETATM   25  H17         0      49.256  -9.683 -12.171  1.00  0.00     0.218 HD
ENDBRANCH   8  24
TORSDOF 5
ENDMDL
