MODEL 1
REMARK VINA RESULT:      -0.0      0.000      0.000
REMARK  5 active torsions:
REMARK  status: ('A' for Active; 'I' for Inactive)
REMARK    1  A    between atoms: C4_4  and  C5_5 
REMARK    2  A    between atoms: C8_8  and  O9_9 
REMARK    3  A    between atoms: C10_11  and  O11_12 
REMARK    4  A    between atoms: C16_18  and  O17_19 
REMARK    5  A    between atoms: C19_22  and  O20_23 
ROOT
HETATM    1  O1          0      30.830  17.087 -30.534  1.00  0.00    -0.286 OA
HETATM    2  C2          0      31.585  16.077 -30.495  1.00  0.00     0.201 C 
HETATM    3  C3          0      31.175  14.853 -29.995  1.00  0.00     0.067 C 
HETATM    4  C4          0      32.057  13.785 -29.868  1.00  0.00     0.103 C 
HETATM    5  O13         0      33.309  13.947 -30.256  1.00  0.00    -0.307 OA
HETATM    6  C14         0      33.760  15.099 -30.702  1.00  0.00     0.107 C 
HETATM    7  C15         0      35.115  15.394 -30.729  1.00  0.00     0.049 C 
HETATM    8  C16         0      35.569  16.687 -30.956  1.00  0.00     0.093 C 
HETATM    9  C18         0      34.688  17.503 -31.656  1.00  0.00     0.048 C 
HETATM   10  C19         0      33.331  17.212 -31.689  1.00  0.00     0.096 C 
HETATM   11  C21         0      32.859  16.103 -31.042  1.00  0.00     0.084 C 
ENDROOT
BRANCH  10  12
HETATM   12  O20         0      32.426  18.222 -31.998  1.00  0.00    -0.359 OA
HETATM   13  H20         0      32.204  18.357 -32.911  1.00  0.00     0.218 HD
ENDBRANCH  10  12
BRANCH   4  14
HETATM   14  C5          0      31.762  12.792 -28.833  1.00  0.00     0.025 C 
HETATM   15  C6          0      32.745  12.023 -28.228  1.00  0.00     0.004 C 
HETATM   16  C7          0      32.613  11.763 -26.868  1.00  0.00     0.026 C 
HETATM   17  C8          0      31.478  12.141 -26.159  1.00  0.00     0.112 C 
HETATM   18  C10         0      30.339  12.310 -26.936  1.00  0.00     0.112 C 
HETATM   19  C12         0      30.498  12.653 -28.274  1.00  0.00     0.028 C 
BRANCH  17  20
HETATM   20  O9          0      31.563  12.515 -24.830  1.00  0.00    -0.357 OA
HETATM   21  H9          0      30.996  12.173 -24.148  1.00  0.00     0.218 HD
ENDBRANCH  17  20
BRANCH  18  22
HETATM   22  O11         0      29.141  12.501 -26.263  1.00  0.00    -0.357 OA
HETATM   23  H11         0      29.116  13.199 -25.619  1.00  0.00     0.218 HD
ENDBRANCH  18  22
ENDBRANCH   4  14
BRANCH   8  24
HETATM   24  O17         0      36.656  17.214 -30.250  1.00  0.00    -0.359 OA
HETATM   25  H17         0      37.124  16.703 -29.600  1.00  0.00     0.218 HD
ENDBRANCH   8  24
TORSDOF 5
ENDMDL
MODEL 2
REMARK VINA RESULT:      -0.0      8.887      9.934
REMARK  5 active torsions:
REMARK  status: ('A' for Active; 'I' for Inactive)
REMARK    1  A    between atoms: C4_4  and  C5_5 
REMARK    2  A    between atoms: C8_8  and  O9_9 
REMARK    3  A    between atoms: C10_11  and  O11_12 
REMARK    4  A    between atoms: C16_18  and  O17_19 
REMARK    5  A    between atoms: C19_22  and  O20_23 
ROOT
HETATM    1  O1          0      23.733  18.808 -32.182  1.00  0.00    -0.286 OA
HETATM    2  C2          0      23.428  18.007 -31.256  1.00  0.00     0.201 C 
HETATM    3  C3          0      23.323  18.397 -29.931  1.00  0.00     0.067 C 
HETATM    4  C4          0      23.087  17.476 -28.917  1.00  0.00     0.103 C 
HETATM    5  O13         0      22.940  16.202 -29.238  1.00  0.00    -0.307 OA
HETATM    6  C14         0      23.067  15.774 -30.475  1.00  0.00     0.107 C 
HETATM    7  C15         0      23.312  14.440 -30.765  1.00  0.00     0.049 C 
HETATM    8  C16         0      23.696  14.036 -32.038  1.00  0.00     0.093 C 
HETATM    9  C18         0      23.310  14.889 -33.065  1.00  0.00     0.048 C 
HETATM   10  C19         0      23.012  16.219 -32.803  1.00  0.00     0.096 C 
HETATM   11  C21         0      23.082  16.691 -31.521  1.00  0.00     0.084 C 
ENDROOT
BRANCH  10  12
HETATM   12  O20         0      23.057  17.144 -33.842  1.00  0.00    -0.359 OA
HETATM   13  H20         0      22.560  17.947 -33.745  1.00  0.00     0.218 HD
ENDBRANCH  10  12
BRANCH   4  14
HETATM   14  C5          0      23.574  17.813 -27.579  1.00  0.00     0.025 C 
HETATM   15  C6          0      23.905  16.853 -26.634  1.00  0.00     0.004 C 
HETATM   16  C7          0      25.011  17.097 -25.826  1.00  0.00     0.026 C 
HETATM   17  C8          0      25.685  18.313 -25.860  1.00  0.00     0.112 C 
HETATM   18  C10         0      24.932  19.381 -26.331  1.00  0.00     0.112 C 
HETATM   19  C12         0      23.885  19.115 -27.206  1.00  0.00     0.028 C 
BRANCH  17  20
HETATM   20  O9          0      27.049  18.374 -25.641  1.00  0.00    -0.357 OA
HETATM   21  H9          0      27.627  17.621 -25.695  1.00  0.00     0.218 HD
ENDBRANCH  17  20
BRANCH  18  22
HETATM   22  O11         0      25.490  20.645 -26.210  1.00  0.00    -0.357 OA
HETATM   23  H11         0      26.386  20.692 -25.897  1.00  0.00     0.218 HD
ENDBRANCH  18  22
ENDBRANCH   4  14
BRANCH   8  24
HETATM   24  O17         0      24.670  13.050 -32.228  1.00  0.00    -0.359 OA
HETATM   25  H17         0      25.390  12.936 -31.620  1.00  0.00     0.218 HD
ENDBRANCH   8  24
TORSDOF 5
ENDMDL
MODEL 3
REMARK VINA RESULT:      -0.0      9.203     11.581
REMARK  5 active torsions:
REMARK  status: ('A' for Active; 'I' for Inactive)
REMARK    1  A    between atoms: C4_4  and  C5_5 
REMARK    2  A    between atoms: C8_8  and  O9_9 
REMARK    3  A    between atoms: C10_11  and  O11_12 
REMARK    4  A    between atoms: C16_18  and  O17_19 
REMARK    5  A    between atoms: C19_22  and  O20_23 
ROOT
HETATM    1  O1          0      21.702  17.171 -31.471  1.00  0.00    -0.286 OA
HETATM    2  C2          0      21.497  16.695 -30.320  1.00  0.00     0.201 C 
HETATM    3  C3          0      21.820  17.375 -29.158  1.00  0.00     0.067 C 
HETATM    4  C4          0      21.678  16.786 -27.907  1.00  0.00     0.103 C 
HETATM    5  O13         0      21.204  15.555 -27.834  1.00  0.00    -0.307 OA
HETATM    6  C14         0      20.917  14.852 -28.908  1.00  0.00     0.107 C 
HETATM    7  C15         0      20.809  13.469 -28.869  1.00  0.00     0.049 C 
HETATM    8  C16         0      20.760  12.716 -30.036  1.00  0.00     0.093 C 
HETATM    9  C18         0      20.297  13.397 -31.155  1.00  0.00     0.048 C 
HETATM   10  C19         0      20.347  14.783 -31.208  1.00  0.00     0.096 C 
HETATM   11  C21         0      20.841  15.486 -30.143  1.00  0.00     0.084 C 
ENDROOT
BRANCH  10  12
HETATM   12  O20         0      20.303  15.419 -32.445  1.00  0.00    -0.359 OA
HETATM   13  H20         0      20.638  14.949 -33.199  1.00  0.00     0.218 HD
ENDBRANCH  10  12
BRANCH   4  14
HETATM   14  C5          0      22.554  17.268 -26.837  1.00  0.00     0.025 C 
HETATM   15  C6          0      22.922  16.482 -25.755  1.00  0.00     0.004 C 
HETATM   16  C7          0      24.226  16.603 -25.284  1.00  0.00     0.026 C 
HETATM   17  C8          0      25.095  17.568 -25.783  1.00  0.00     0.112 C 
HETATM   18  C10         0      24.472  18.665 -26.362  1.00  0.00     0.112 C 
HETATM   19  C12         0      23.202  18.495 -26.902  1.00  0.00     0.028 C 
BRANCH  17  20
HETATM   20  O9          0      26.453  17.322 -25.869  1.00  0.00    -0.357 OA
HETATM   21  H9          0      27.061  17.455 -25.150  1.00  0.00     0.218 HD
ENDBRANCH  17  20
BRANCH  18  22
HETATM   22  O11         0      25.281  19.739 -26.704  1.00  0.00    -0.357 OA
HETATM   23  H11         0      25.277  20.485 -26.114  1.00  0.00     0.218 HD
ENDBRANCH  18  22
ENDBRANCH   4  14
BRANCH   8  24
HETATM   24  O17         0      21.436  11.496 -30.145  1.00  0.00    -0.359 OA
HETATM   25  H17         0      22.288  11.432 -30.561  1.00  0.00     0.218 HD
ENDBRANCH   8  24
TORSDOF 5
ENDMDL
MODEL 4
REMARK VINA RESULT:       0.0      8.988     11.013
REMARK  5 active torsions:
REMARK  status: ('A' for Active; 'I' for Inactive)
REMARK    1  A    between atoms: C4_4  and  C5_5 
REMARK    2  A    between atoms: C8_8  and  O9_9 
REMARK    3  A    between atoms: C10_11  and  O11_12 
REMARK    4  A    between atoms: C16_18  and  O17_19 
REMARK    5  A    between atoms: C19_22  and  O20_23 
ROOT
HETATM    1  O1          0      24.222  23.922 -34.525  1.00  0.00    -0.286 OA
HETATM    2  C2          0      25.364  23.738 -34.021  1.00  0.00     0.201 C 
HETATM    3  C3          0      25.881  22.478 -33.775  1.00  0.00     0.067 C 
HETATM    4  C4          0      27.098  22.304 -33.125  1.00  0.00     0.103 C 
HETATM    5  O13         0      27.779  23.375 -32.755  1.00  0.00    -0.307 OA
HETATM    6  C14         0      27.315  24.593 -32.931  1.00  0.00     0.107 C 
HETATM    7  C15         0      27.806  25.672 -32.211  1.00  0.00     0.049 C 
HETATM    8  C16         0      27.151  26.898 -32.210  1.00  0.00     0.093 C 
HETATM    9  C18         0      26.352  27.136 -33.322  1.00  0.00     0.048 C 
HETATM   10  C19         0      25.882  26.081 -34.093  1.00  0.00     0.096 C 
HETATM   11  C21         0      26.222  24.797 -33.765  1.00  0.00     0.084 C 
ENDROOT
BRANCH  10  12
HETATM   12  O20         0      24.768  26.275 -34.904  1.00  0.00    -0.359 OA
HETATM   13  H20         0      24.351  25.508 -35.277  1.00  0.00     0.218 HD
ENDBRANCH  10  12
BRANCH   4  14
HETATM   14  C5          0      27.289  21.057 -32.383  1.00  0.00     0.025 C 
HETATM   15  C6          0      28.142  20.952 -31.294  1.00  0.00     0.004 C 
HETATM   16  C7          0      27.733  20.158 -30.228  1.00  0.00     0.026 C 
HETATM   17  C8          0      26.577  19.387 -30.294  1.00  0.00     0.112 C 
HETATM   18  C10         0      26.166  19.069 -31.582  1.00  0.00     0.112 C 
HETATM   19  C12         0      26.517  19.925 -32.618  1.00  0.00     0.028 C 
BRANCH  17  20
HETATM   20  O9          0      25.813  19.157 -29.164  1.00  0.00    -0.357 OA
HETATM   21  H9          0      25.508  18.297 -28.899  1.00  0.00     0.218 HD
ENDBRANCH  17  20
BRANCH  18  22
HETATM   22  O11         0      25.134  18.149 -31.702  1.00  0.00    -0.357 OA
HETATM   23  H11         0      25.183  17.540 -32.430  1.00  0.00     0.218 HD
ENDBRANCH  18  22
ENDBRANCH   4  14
BRANCH   8  24
HETATM   24  O17         0      27.037  27.664 -31.045  1.00  0.00    -0.359 OA
HETATM   25  H17         0      26.805  28.584 -31.074  1.00  0.00     0.218 HD
ENDBRANCH   8  24
TORSDOF 5
ENDMDL
MODEL 5
REMARK VINA RESULT:       0.0      8.744      9.183
REMARK  5 active torsions:
REMARK  status: ('A' for Active; 'I' for Inactive)
REMARK    1  A    between atoms: C4_4  and  C5_5 
REMARK    2  A    between atoms: C8_8  and  O9_9 
REMARK    3  A    between atoms: C10_11  and  O11_12 
REMARK    4  A    between atoms: C16_18  and  O17_19 
REMARK    5  A    between atoms: C19_22  and  O20_23 
ROOT
HETATM    1  O1          0      31.558  21.398 -27.179  1.00  0.00    -0.286 OA
HETATM    2  C2          0      31.943  21.262 -25.985  1.00  0.00     0.201 C 
HETATM    3  C3          0      31.193  20.603 -25.025  1.00  0.00     0.067 C 
HETATM    4  C4          0      31.592  20.557 -23.694  1.00  0.00     0.103 C 
HETATM    5  O13         0      32.726  21.141 -23.351  1.00  0.00    -0.307 OA
HETATM    6  C14         0      33.456  21.812 -24.215  1.00  0.00     0.107 C 
HETATM    7  C15         0      34.402  22.741 -23.806  1.00  0.00     0.049 C 
HETATM    8  C16         0      34.984  23.623 -24.709  1.00  0.00     0.093 C 
HETATM    9  C18         0      34.990  23.191 -26.030  1.00  0.00     0.048 C 
HETATM   10  C19         0      34.088  22.228 -26.461  1.00  0.00     0.096 C 
HETATM   11  C21         0      33.197  21.687 -25.575  1.00  0.00     0.084 C 
ENDROOT
BRANCH  10  12
HETATM   12  O20         0      33.803  22.122 -27.819  1.00  0.00    -0.359 OA
HETATM   13  H20         0      34.464  22.413 -28.437  1.00  0.00     0.218 HD
ENDBRANCH  10  12
BRANCH   4  14
HETATM   14  C5          0      30.541  20.408 -22.685  1.00  0.00     0.025 C 
HETATM   15  C6          0      30.678  20.870 -21.384  1.00  0.00     0.004 C 
HETATM   16  C7          0      29.558  21.431 -20.779  1.00  0.00     0.026 C 
HETATM   17  C8          0      28.310  21.413 -21.393  1.00  0.00     0.112 C 
HETATM   18  C10         0      28.146  20.413 -22.343  1.00  0.00     0.112 C 
HETATM   19  C12         0      29.274  19.929 -22.994  1.00  0.00     0.028 C 
BRANCH  17  20
HETATM   20  O9          0      27.412  22.448 -21.205  1.00  0.00    -0.357 OA
HETATM   21  H9          0      27.591  23.211 -20.667  1.00  0.00     0.218 HD
ENDBRANCH  17  20
BRANCH  18  22
HETATM   22  O11         0      26.867  20.230 -22.848  1.00  0.00    -0.357 OA
HETATM   23  H11         0      26.150  20.611 -22.353  1.00  0.00     0.218 HD
ENDBRANCH  18  22
ENDBRANCH   4  14
BRANCH   8  24
HETATM   24  O17         0      35.228  24.958 -24.370  1.00  0.00    -0.359 OA
HETATM   25  H17         0      35.239  25.250 -23.466  1.00  0.00     0.218 HD
ENDBRANCH   8  24
TORSDOF 5
ENDMDL
MODEL 6
REMARK VINA RESULT:       0.0      5.735      6.769
REMARK  5 active torsions:
REMARK  status: ('A' for Active; 'I' for Inactive)
REMARK    1  A    between atoms: C4_4  and  C5_5 
REMARK    2  A    between atoms: C8_8  and  O9_9 
REMARK    3  A    between atoms: C10_11  and  O11_12 
REMARK    4  A    between atoms: C16_18  and  O17_19 
REMARK    5  A    between atoms: C19_22  and  O20_23 
ROOT
HETATM    1  O1          0      34.734  14.350 -25.969  1.00  0.00    -0.286 OA
HETATM    2  C2          0      34.656  15.606 -25.877  1.00  0.00     0.201 C 
HETATM    3  C3          0      34.948  16.293 -24.711  1.00  0.00     0.067 C 
HETATM    4  C4          0      34.755  17.666 -24.607  1.00  0.00     0.103 C 
HETATM    5  O13         0      34.299  18.324 -25.658  1.00  0.00    -0.307 OA
HETATM    6  C14         0      33.970  17.715 -26.776  1.00  0.00     0.107 C 
HETATM    7  C15         0      33.138  18.309 -27.714  1.00  0.00     0.049 C 
HETATM    8  C16         0      32.591  17.575 -28.760  1.00  0.00     0.093 C 
HETATM    9  C18         0      33.307  16.439 -29.117  1.00  0.00     0.048 C 
HETATM   10  C19         0      34.184  15.846 -28.219  1.00  0.00     0.096 C 
HETATM   11  C21         0      34.358  16.395 -26.977  1.00  0.00     0.084 C 
ENDROOT
BRANCH  10  12
HETATM   12  O20         0      34.548  14.516 -28.401  1.00  0.00    -0.359 OA
HETATM   13  H20         0      34.041  13.995 -29.012  1.00  0.00     0.218 HD
ENDBRANCH  10  12
BRANCH   4  14
HETATM   14  C5          0      34.497  18.206 -23.270  1.00  0.00     0.025 C 
HETATM   15  C6          0      33.780  19.374 -23.057  1.00  0.00     0.004 C 
HETATM   16  C7          0      32.922  19.412 -21.962  1.00  0.00     0.026 C 
HETATM   17  C8          0      32.877  18.377 -21.034  1.00  0.00     0.112 C 
HETATM   18  C10         0      34.027  17.601 -20.976  1.00  0.00     0.112 C 
HETATM   19  C12         0      34.822  17.512 -22.112  1.00  0.00     0.028 C 
BRANCH  17  20
HETATM   20  O9          0      31.694  18.049 -20.396  1.00  0.00    -0.357 OA
HETATM   21  H9          0      30.953  18.638 -20.321  1.00  0.00     0.218 HD
ENDBRANCH  17  20
BRANCH  18  22
HETATM   22  O11         0      34.110  16.678 -19.942  1.00  0.00    -0.357 OA
HETATM   23  H11         0      34.725  16.870 -19.243  1.00  0.00     0.218 HD
ENDBRANCH  18  22
ENDBRANCH   4  14
BRANCH   8  24
HETATM   24  O17         0      31.271  17.775 -29.179  1.00  0.00    -0.359 OA
HETATM   25  H17         0      30.924  17.351 -29.955  1.00  0.00     0.218 HD
ENDBRANCH   8  24
TORSDOF 5
ENDMDL
MODEL 7
REMARK VINA RESULT:       0.0      6.470      9.377
REMARK  5 active torsions:
REMARK  status: ('A' for Active; 'I' for Inactive)
REMARK    1  A    between atoms: C4_4  and  C5_5 
REMARK    2  A    between atoms: C8_8  and  O9_9 
REMARK    3  A    between atoms: C10_11  and  O11_12 
REMARK    4  A    between atoms: C16_18  and  O17_19 
REMARK    5  A    between atoms: C19_22  and  O20_23 
ROOT
HETATM    1  O1          0      35.146  17.173 -26.524  1.00  0.00    -0.286 OA
HETATM    2  C2          0      34.432  18.207 -26.417  1.00  0.00     0.201 C 
HETATM    3  C3          0      34.825  19.443 -26.901  1.00  0.00     0.067 C 
HETATM    4  C4          0      34.065  20.587 -26.681  1.00  0.00     0.103 C 
HETATM    5  O13         0      32.933  20.477 -26.009  1.00  0.00    -0.307 OA
HETATM    6  C14         0      32.532  19.334 -25.496  1.00  0.00     0.107 C 
HETATM    7  C15         0      31.590  19.280 -24.479  1.00  0.00     0.049 C 
HETATM    8  C16         0      31.360  18.107 -23.770  1.00  0.00     0.093 C 
HETATM    9  C18         0      31.691  16.939 -24.446  1.00  0.00     0.048 C 
HETATM   10  C19         0      32.594  16.964 -25.499  1.00  0.00     0.096 C 
HETATM   11  C21         0      33.152  18.152 -25.886  1.00  0.00     0.084 C 
ENDROOT
BRANCH  10  12
HETATM   12  O20         0      33.240  15.789 -25.871  1.00  0.00    -0.359 OA
HETATM   13  H20         0      33.823  15.383 -25.241  1.00  0.00     0.218 HD
ENDBRANCH  10  12
BRANCH   4  14
HETATM   14  C5          0      34.773  21.868 -26.663  1.00  0.00     0.025 C 
HETATM   15  C6          0      34.315  22.971 -25.957  1.00  0.00     0.004 C 
HETATM   16  C7          0      35.262  23.769 -25.323  1.00  0.00     0.026 C 
HETATM   17  C8          0      36.626  23.558 -25.494  1.00  0.00     0.112 C 
HETATM   18  C10         0      36.967  22.888 -26.661  1.00  0.00     0.112 C 
HETATM   19  C12         0      36.032  22.031 -27.228  1.00  0.00     0.028 C 
BRANCH  17  20
HETATM   20  O9          0      37.518  23.816 -24.467  1.00  0.00    -0.357 OA
HETATM   21  H9          0      38.255  23.255 -24.255  1.00  0.00     0.218 HD
ENDBRANCH  17  20
BRANCH  18  22
HETATM   22  O11         0      38.318  22.818 -26.974  1.00  0.00    -0.357 OA
HETATM   23  H11         0      38.867  22.302 -26.395  1.00  0.00     0.218 HD
ENDBRANCH  18  22
ENDBRANCH   4  14
BRANCH   8  24
HETATM   24  O17         0      31.142  18.121 -22.388  1.00  0.00    -0.359 OA
HETATM   25  H17         0      31.452  18.833 -21.841  1.00  0.00     0.218 HD
ENDBRANCH   8  24
TORSDOF 5
ENDMDL
MODEL 8
REMARK VINA RESULT:       0.0      3.226      5.492
REMARK  5 active torsions:
REMARK  status: ('A' for Active; 'I' for Inactive)
REMARK    1  A    between atoms: C4_4  and  C5_5 
REMARK    2  A    between atoms: C8_8  and  O9_9 
REMARK    3  A    between atoms: C10_11  and  O11_12 
REMARK    4  A    between atoms: C16_18  and  O17_19 
REMARK    5  A    between atoms: C19_22  and  O20_23 
ROOT
HETATM    1  O1          0      31.388  17.058 -33.540  1.00  0.00    -0.286 OA
HETATM    2  C2          0      31.511  17.116 -32.285  1.00  0.00     0.201 C 
HETATM    3  C3          0      32.741  17.101 -31.650  1.00  0.00     0.067 C 
HETATM    4  C4          0      32.845  17.062 -30.264  1.00  0.00     0.103 C 
HETATM    5  O13         0      31.737  17.058 -29.545  1.00  0.00    -0.307 OA
HETATM    6  C14         0      30.544  17.033 -30.098  1.00  0.00     0.107 C 
HETATM    7  C15         0      29.419  16.632 -29.392  1.00  0.00     0.049 C 
HETATM    8  C16         0      28.219  16.364 -30.039  1.00  0.00     0.093 C 
HETATM    9  C18         0      28.054  17.005 -31.261  1.00  0.00     0.048 C 
HETATM   10  C19         0      29.156  17.461 -31.972  1.00  0.00     0.096 C 
HETATM   11  C21         0      30.413  17.293 -31.458  1.00  0.00     0.084 C 
ENDROOT
BRANCH  10  12
HETATM   12  O20         0      29.035  17.691 -33.339  1.00  0.00    -0.359 OA
HETATM   13  H20         0      28.344  17.239 -33.807  1.00  0.00     0.218 HD
ENDBRANCH  10  12
BRANCH   4  14
HETATM   14  C5          0      34.053  16.458 -29.700  1.00  0.00     0.025 C 
HETATM   15  C6          0      34.083  15.866 -28.446  1.00  0.00     0.004 C 
HETATM   16  C7          0      34.846  14.713 -28.296  1.00  0.00     0.026 C 
HETATM   17  C8          0      35.660  14.238 -29.319  1.00  0.00     0.112 C 
HETATM   18  C10         0      36.045  15.197 -30.246  1.00  0.00     0.112 C 
HETATM   19  C12         0      35.220  16.299 -30.437  1.00  0.00     0.028 C 
BRANCH  17  20
HETATM   20  O9          0      35.870  12.881 -29.485  1.00  0.00    -0.357 OA
HETATM   21  H9          0      36.478  12.514 -30.117  1.00  0.00     0.218 HD
ENDBRANCH  17  20
BRANCH  18  22
HETATM   22  O11         0      37.005  14.823 -31.175  1.00  0.00    -0.357 OA
HETATM   23  H11         0      36.886  13.982 -31.602  1.00  0.00     0.218 HD
ENDBRANCH  18  22
ENDBRANCH   4  14
BRANCH   8  24
HETATM   24  O17         0      27.410  15.288 -29.658  1.00  0.00    -0.359 OA
HETATM   25  H17         0      27.691  14.659 -29.004  1.00  0.00     0.218 HD
ENDBRANCH   8  24
TORSDOF 5
ENDMDL
MODEL 9
REMARK VINA RESULT:       0.0      6.694      9.232
REMARK  5 active torsions:
REMARK  status: ('A' for Active; 'I' for Inactive)
REMARK    1  A    between atoms: C4_4  and  C5_5 
REMARK    2  A    between atoms: C8_8  and  O9_9 
REMARK    3  A    between atoms: C10_11  and  O11_12 
REMARK    4  A    between atoms: C16_18  and  O17_19 
REMARK    5  A    between atoms: C19_22  and  O20_23 
ROOT
HETATM    1  O1          0      28.443  23.857 -35.705  1.00  0.00    -0.286 OA
HETATM    2  C2          0      29.436  23.087 -35.595  1.00  0.00     0.201 C 
HETATM    3  C3          0      29.390  21.899 -34.884  1.00  0.00     0.067 C 
HETATM    4  C4          0      30.526  21.121 -34.692  1.00  0.00     0.103 C 
HETATM    5  O13         0      31.668  21.522 -35.222  1.00  0.00    -0.307 OA
HETATM    6  C14         0      31.775  22.659 -35.874  1.00  0.00     0.107 C 
HETATM    7  C15         0      33.002  23.272 -36.078  1.00  0.00     0.049 C 
HETATM    8  C16         0      33.088  24.582 -36.535  1.00  0.00     0.093 C 
HETATM    9  C18         0      31.985  25.026 -37.255  1.00  0.00     0.048 C 
HETATM   10  C19         0      30.752  24.405 -37.110  1.00  0.00     0.096 C 
HETATM   11  C21         0      30.625  23.337 -36.264  1.00  0.00     0.084 C 
ENDROOT
BRANCH  10  12
HETATM   12  O20         0      29.597  25.093 -37.470  1.00  0.00    -0.359 OA
HETATM   13  H20         0      29.671  25.769 -38.133  1.00  0.00     0.218 HD
ENDBRANCH  10  12
BRANCH   4  14
HETATM   14  C5          0      30.562  20.272 -33.500  1.00  0.00     0.025 C 
HETATM   15  C6          0      31.746  19.882 -32.890  1.00  0.00     0.004 C 
HETATM   16  C7          0      31.767  19.828 -31.500  1.00  0.00     0.026 C 
HETATM   17  C8          0      30.616  20.024 -30.745  1.00  0.00     0.112 C 
HETATM   18  C10         0      29.429  19.774 -31.421  1.00  0.00     0.112 C 
HETATM   19  C12         0      29.414  19.918 -32.803  1.00  0.00     0.028 C 
BRANCH  17  20
HETATM   20  O9          0      30.679  20.622 -29.499  1.00  0.00    -0.357 OA
HETATM   21  H9          0      31.142  21.434 -29.326  1.00  0.00     0.218 HD
ENDBRANCH  17  20
BRANCH  18  22
HETATM   22  O11         0      28.265  19.769 -30.666  1.00  0.00    -0.357 OA
HETATM   23  H11         0      27.879  18.922 -30.476  1.00  0.00     0.218 HD
ENDBRANCH  18  22
ENDBRANCH   4  14
BRANCH   8  24
HETATM   24  O17         0      34.040  25.472 -36.025  1.00  0.00    -0.359 OA
HETATM   25  H17         0      33.909  25.924 -35.200  1.00  0.00     0.218 HD
ENDBRANCH   8  24
TORSDOF 5
ENDMDL
