MODEL 1
REMARK VINA RESULT:      -0.0      0.000      0.000
REMARK  5 active torsions:
REMARK  status: ('A' for Active; 'I' for Inactive)
REMARK    1  A    between atoms: C4_4  and  C5_5 
REMARK    2  A    between atoms: C8_8  and  O9_9 
REMARK    3  A    between atoms: C10_11  and  O11_12 
REMARK    4  A    between atoms: C16_18  and  O17_19 
REMARK    5  A    between atoms: C19_22  and  O20_23 
ROOT
HETATM    1  O1          0      72.781  87.025  37.557  1.00  0.00    -0.286 OA
HETATM    2  C2          0      73.174  87.621  38.597  1.00  0.00     0.201 C 
HETATM    3  C3          0      73.603  88.938  38.590  1.00  0.00     0.067 C 
HETATM    4  C4          0      74.127  89.539  39.729  1.00  0.00     0.103 C 
HETATM    5  O13         0      74.193  88.835  40.845  1.00  0.00    -0.307 OA
HETATM    6  C14         0      73.834  87.571  40.897  1.00  0.00     0.107 C 
HETATM    7  C15         0      74.262  86.731  41.915  1.00  0.00     0.049 C 
HETATM    8  C16         0      74.095  85.353  41.832  1.00  0.00     0.093 C 
HETATM    9  C18         0      73.060  84.937  41.004  1.00  0.00     0.048 C 
HETATM   10  C19         0      72.576  85.771  40.005  1.00  0.00     0.096 C 
HETATM   11  C21         0      73.111  87.020  39.845  1.00  0.00     0.084 C 
ENDROOT
BRANCH  10  12
HETATM   12  O20         0      71.879  85.217  38.935  1.00  0.00    -0.359 OA
HETATM   13  H20         0      71.146  85.706  38.581  1.00  0.00     0.218 HD
ENDBRANCH  10  12
BRANCH   4  14
HETATM   14  C5          0      75.075  90.637  39.531  1.00  0.00     0.025 C 
HETATM   15  C6          0      76.054  90.962  40.459  1.00  0.00     0.004 C 
HETATM   16  C7          0      77.298  91.352  39.973  1.00  0.00     0.026 C 
HETATM   17  C8          0      77.524  91.543  38.614  1.00  0.00     0.112 C 
HETATM   18  C10         0      76.383  91.813  37.870  1.00  0.00     0.112 C 
HETATM   19  C12         0      75.163  91.338  38.335  1.00  0.00     0.028 C 
BRANCH  17  20
HETATM   20  O9          0      78.759  91.267  38.055  1.00  0.00    -0.357 OA
HETATM   21  H9          0      78.994  91.487  37.161  1.00  0.00     0.218 HD
ENDBRANCH  17  20
BRANCH  18  22
HETATM   22  O11         0      76.571  92.197  36.549  1.00  0.00    -0.357 OA
HETATM   23  H11         0      76.534  93.128  36.363  1.00  0.00     0.218 HD
ENDBRANCH  18  22
ENDBRANCH   4  14
BRANCH   8  24
HETATM   24  O17         0      75.089  84.471  42.267  1.00  0.00    -0.359 OA
HETATM   25  H17         0      75.729  84.724  42.922  1.00  0.00     0.218 HD
ENDBRANCH   8  24
TORSDOF 5
ENDMDL
MODEL 2
REMARK VINA RESULT:      -0.0      1.974      2.139
REMARK  5 active torsions:
REMARK  status: ('A' for Active; 'I' for Inactive)
REMARK    1  A    between atoms: C4_4  and  C5_5 
REMARK    2  A    between atoms: C8_8  and  O9_9 
REMARK    3  A    between atoms: C10_11  and  O11_12 
REMARK    4  A    between atoms: C16_18  and  O17_19 
REMARK    5  A    between atoms: C19_22  and  O20_23 
ROOT
HETATM    1  O1          0      72.781  87.025  37.557  1.00  0.00    -0.286 OA
HETATM    2  C2          0      72.476  87.618  38.628  1.00  0.00     0.201 C 
HETATM    3  C3          0      72.470  88.998  38.746  1.00  0.00     0.067 C 
HETATM    4  C4          0      72.230  89.624  39.963  1.00  0.00     0.103 C 
HETATM    5  O13         0      71.983  88.876  41.024  1.00  0.00    -0.307 OA
HETATM    6  C14         0      72.013  87.562  40.975  1.00  0.00     0.107 C 
HETATM    7  C15         0      72.154  86.792  42.120  1.00  0.00     0.049 C 
HETATM    8  C16         0      72.440  85.434  42.045  1.00  0.00     0.093 C 
HETATM    9  C18         0      72.055  84.817  40.861  1.00  0.00     0.048 C 
HETATM   10  C19         0      71.859  85.565  39.708  1.00  0.00     0.096 C 
HETATM   11  C21         0      72.031  86.922  39.741  1.00  0.00     0.084 C 
ENDROOT
BRANCH  10  12
HETATM   12  O20         0      71.908  84.931  38.470  1.00  0.00    -0.359 OA
HETATM   13  H20         0      71.848  83.984  38.452  1.00  0.00     0.218 HD
ENDBRANCH  10  12
BRANCH   4  14
HETATM   14  C5          0      72.811  90.954  40.159  1.00  0.00     0.025 C 
HETATM   15  C6          0      73.130  91.459  41.411  1.00  0.00     0.004 C 
HETATM   16  C7          0      74.292  92.216  41.524  1.00  0.00     0.026 C 
HETATM   17  C8          0      75.041  92.573  40.408  1.00  0.00     0.112 C 
HETATM   18  C10         0      74.335  92.578  39.213  1.00  0.00     0.112 C 
HETATM   19  C12         0      73.226  91.748  39.097  1.00  0.00     0.028 C 
BRANCH  17  20
HETATM   20  O9          0      76.417  92.697  40.488  1.00  0.00    -0.357 OA
HETATM   21  H9          0      76.985  92.769  39.730  1.00  0.00     0.218 HD
ENDBRANCH  17  20
BRANCH  18  22
HETATM   22  O11         0      74.980  93.107  38.104  1.00  0.00    -0.357 OA
HETATM   23  H11         0      75.919  92.972  38.048  1.00  0.00     0.218 HD
ENDBRANCH  18  22
ENDBRANCH   4  14
BRANCH   8  24
HETATM   24  O17         0      73.336  84.827  42.933  1.00  0.00    -0.359 OA
HETATM   25  H17         0      73.511  85.192  43.793  1.00  0.00     0.218 HD
ENDBRANCH   8  24
TORSDOF 5
ENDMDL
MODEL 3
REMARK VINA RESULT:      -0.0      9.567     10.893
REMARK  5 active torsions:
REMARK  status: ('A' for Active; 'I' for Inactive)
REMARK    1  A    between atoms: C4_4  and  C5_5 
REMARK    2  A    between atoms: C8_8  and  O9_9 
REMARK    3  A    between atoms: C10_11  and  O11_12 
REMARK    4  A    between atoms: C16_18  and  O17_19 
REMARK    5  A    between atoms: C19_22  and  O20_23 
ROOT
HETATM    1  O1          0      65.813  95.280  43.855  1.00  0.00    -0.286 OA
HETATM    2  C2          0      65.805  94.065  44.196  1.00  0.00     0.201 C 
HETATM    3  C3          0      66.931  93.411  44.668  1.00  0.00     0.067 C 
HETATM    4  C4          0      66.921  92.048  44.939  1.00  0.00     0.103 C 
HETATM    5  O13         0      65.800  91.372  44.758  1.00  0.00    -0.307 OA
HETATM    6  C14         0      64.714  91.937  44.277  1.00  0.00     0.107 C 
HETATM    7  C15         0      63.688  91.189  43.716  1.00  0.00     0.049 C 
HETATM    8  C16         0      62.671  91.792  42.986  1.00  0.00     0.093 C 
HETATM    9  C18         0      62.441  93.128  43.292  1.00  0.00     0.048 C 
HETATM   10  C19         0      63.429  93.893  43.897  1.00  0.00     0.096 C 
HETATM   11  C21         0      64.634  93.323  44.208  1.00  0.00     0.084 C 
ENDROOT
BRANCH  10  12
HETATM   12  O20         0      63.369  95.280  43.803  1.00  0.00    -0.359 OA
HETATM   13  H20         0      63.679  95.790  44.541  1.00  0.00     0.218 HD
ENDBRANCH  10  12
BRANCH   4  14
HETATM   14  C5          0      68.196  91.336  44.839  1.00  0.00     0.025 C 
HETATM   15  C6          0      68.281  89.982  44.545  1.00  0.00     0.004 C 
HETATM   16  C7          0      69.320  89.566  43.718  1.00  0.00     0.026 C 
HETATM   17  C8          0      70.319  90.441  43.306  1.00  0.00     0.112 C 
HETATM   18  C10         0      70.500  91.544  44.129  1.00  0.00     0.112 C 
HETATM   19  C12         0      69.420  91.991  44.881  1.00  0.00     0.028 C 
BRANCH  17  20
HETATM   20  O9          0      70.913  90.303  42.064  1.00  0.00    -0.357 OA
HETATM   21  H9          0      71.624  89.699  41.882  1.00  0.00     0.218 HD
ENDBRANCH  17  20
BRANCH  18  22
HETATM   22  O11         0      71.603  92.346  43.871  1.00  0.00    -0.357 OA
HETATM   23  H11         0      71.787  92.544  42.960  1.00  0.00     0.218 HD
ENDBRANCH  18  22
ENDBRANCH   4  14
BRANCH   8  24
HETATM   24  O17         0      62.165  91.207  41.820  1.00  0.00    -0.359 OA
HETATM   25  H17         0      61.491  90.538  41.849  1.00  0.00     0.218 HD
ENDBRANCH   8  24
TORSDOF 5
ENDMDL
MODEL 4
REMARK VINA RESULT:      -0.0      7.198      9.150
REMARK  5 active torsions:
REMARK  status: ('A' for Active; 'I' for Inactive)
REMARK    1  A    between atoms: C4_4  and  C5_5 
REMARK    2  A    between atoms: C8_8  and  O9_9 
REMARK    3  A    between atoms: C10_11  and  O11_12 
REMARK    4  A    between atoms: C16_18  and  O17_19 
REMARK    5  A    between atoms: C19_22  and  O20_23 
ROOT
HETATM    1  O1          0      69.508  94.178  43.051  1.00  0.00    -0.286 OA
HETATM    2  C2          0      69.005  93.137  43.555  1.00  0.00     0.201 C 
HETATM    3  C3          0      69.742  92.234  44.302  1.00  0.00     0.067 C 
HETATM    4  C4          0      69.189  91.043  44.759  1.00  0.00     0.103 C 
HETATM    5  O13         0      67.922  90.785  44.484  1.00  0.00    -0.307 OA
HETATM    6  C14         0      67.189  91.590  43.747  1.00  0.00     0.107 C 
HETATM    7  C15         0      66.024  91.158  43.130  1.00  0.00     0.049 C 
HETATM    8  C16         0      65.395  91.925  42.157  1.00  0.00     0.093 C 
HETATM    9  C18         0      65.655  93.289  42.226  1.00  0.00     0.048 C 
HETATM   10  C19         0      66.788  93.759  42.877  1.00  0.00     0.096 C 
HETATM   11  C21         0      67.647  92.874  43.470  1.00  0.00     0.084 C 
ENDROOT
BRANCH  10  12
HETATM   12  O20         0      67.266  95.031  42.577  1.00  0.00    -0.359 OA
HETATM   13  H20         0      67.950  95.106  41.923  1.00  0.00     0.218 HD
ENDBRANCH  10  12
BRANCH   4  14
HETATM   14  C5          0      70.104  89.922  44.983  1.00  0.00     0.025 C 
HETATM   15  C6          0      69.702  88.596  44.904  1.00  0.00     0.004 C 
HETATM   16  C7          0      70.589  87.687  44.337  1.00  0.00     0.026 C 
HETATM   17  C8          0      71.883  88.054  43.983  1.00  0.00     0.112 C 
HETATM   18  C10         0      72.378  89.161  44.660  1.00  0.00     0.112 C 
HETATM   19  C12         0      71.472  90.098  45.142  1.00  0.00     0.028 C 
BRANCH  17  20
HETATM   20  O9          0      72.511  87.475  42.895  1.00  0.00    -0.357 OA
HETATM   21  H9          0      73.265  87.854  42.457  1.00  0.00     0.218 HD
ENDBRANCH  17  20
BRANCH  18  22
HETATM   22  O11         0      73.722  89.455  44.485  1.00  0.00    -0.357 OA
HETATM   23  H11         0      74.346  88.914  44.956  1.00  0.00     0.218 HD
ENDBRANCH  18  22
ENDBRANCH   4  14
BRANCH   8  24
HETATM   24  O17         0      64.835  91.340  41.016  1.00  0.00    -0.359 OA
HETATM   25  H17         0      64.071  91.710  40.589  1.00  0.00     0.218 HD
ENDBRANCH   8  24
TORSDOF 5
ENDMDL
MODEL 5
REMARK VINA RESULT:      -0.0      8.492     11.406
REMARK  5 active torsions:
REMARK  status: ('A' for Active; 'I' for Inactive)
REMARK    1  A    between atoms: C4_4  and  C5_5 
REMARK    2  A    between atoms: C8_8  and  O9_9 
REMARK    3  A    between atoms: C10_11  and  O11_12 
REMARK    4  A    between atoms: C16_18  and  O17_19 
REMARK    5  A    between atoms: C19_22  and  O20_23 
ROOT
HETATM    1  O1          0      67.102  83.981  49.272  1.00  0.00    -0.286 OA
HETATM    2  C2          0      67.096  83.560  48.083  1.00  0.00     0.201 C 
HETATM    3  C3          0      68.244  83.467  47.315  1.00  0.00     0.067 C 
HETATM    4  C4          0      68.197  83.097  45.975  1.00  0.00     0.103 C 
HETATM    5  O13         0      67.025  82.811  45.437  1.00  0.00    -0.307 OA
HETATM    6  C14         0      65.901  82.919  46.111  1.00  0.00     0.107 C 
HETATM    7  C15         0      64.672  83.014  45.473  1.00  0.00     0.049 C 
HETATM    8  C16         0      63.525  83.382  46.167  1.00  0.00     0.093 C 
HETATM    9  C18         0      63.558  83.126  47.532  1.00  0.00     0.048 C 
HETATM   10  C19         0      64.770  82.979  48.194  1.00  0.00     0.096 C 
HETATM   11  C21         0      65.941  83.070  47.493  1.00  0.00     0.084 C 
ENDROOT
BRANCH  10  12
HETATM   12  O20         0      64.819  83.160  49.573  1.00  0.00    -0.359 OA
HETATM   13  H20         0      65.574  82.824  50.039  1.00  0.00     0.218 HD
ENDBRANCH  10  12
BRANCH   4  14
HETATM   14  C5          0      69.270  83.585  45.107  1.00  0.00     0.025 C 
HETATM   15  C6          0      69.106  83.776  43.743  1.00  0.00     0.004 C 
HETATM   16  C7          0      69.726  84.880  43.167  1.00  0.00     0.026 C 
HETATM   17  C8          0      70.590  85.693  43.894  1.00  0.00     0.112 C 
HETATM   18  C10         0      71.167  85.083  44.999  1.00  0.00     0.112 C 
HETATM   19  C12         0      70.485  84.036  45.607  1.00  0.00     0.028 C 
BRANCH  17  20
HETATM   20  O9          0      70.675  87.049  43.633  1.00  0.00    -0.357 OA
HETATM   21  H9          0      71.114  87.670  44.202  1.00  0.00     0.218 HD
ENDBRANCH  17  20
BRANCH  18  22
HETATM   22  O11         0      72.176  85.782  45.647  1.00  0.00    -0.357 OA
HETATM   23  H11         0      72.666  85.312  46.312  1.00  0.00     0.218 HD
ENDBRANCH  18  22
ENDBRANCH   4  14
BRANCH   8  24
HETATM   24  O17         0      62.574  84.238  45.601  1.00  0.00    -0.359 OA
HETATM   25  H17         0      62.742  84.706  44.792  1.00  0.00     0.218 HD
ENDBRANCH   8  24
TORSDOF 5
ENDMDL
MODEL 6
REMARK VINA RESULT:      -0.0      6.299      9.534
REMARK  5 active torsions:
REMARK  status: ('A' for Active; 'I' for Inactive)
REMARK    1  A    between atoms: C4_4  and  C5_5 
REMARK    2  A    between atoms: C8_8  and  O9_9 
REMARK    3  A    between atoms: C10_11  and  O11_12 
REMARK    4  A    between atoms: C16_18  and  O17_19 
REMARK    5  A    between atoms: C19_22  and  O20_23 
ROOT
HETATM    1  O1          0      65.907  83.978  37.566  1.00  0.00    -0.286 OA
HETATM    2  C2          0      66.690  84.346  38.484  1.00  0.00     0.201 C 
HETATM    3  C3          0      66.274  84.552  39.788  1.00  0.00     0.067 C 
HETATM    4  C4          0      67.135  85.057  40.756  1.00  0.00     0.103 C 
HETATM    5  O13         0      68.384  85.324  40.418  1.00  0.00    -0.307 OA
HETATM    6  C14         0      68.820  85.182  39.185  1.00  0.00     0.107 C 
HETATM    7  C15         0      69.969  85.819  38.739  1.00  0.00     0.049 C 
HETATM    8  C16         0      70.284  85.875  37.386  1.00  0.00     0.093 C 
HETATM    9  C18         0      69.731  84.861  36.613  1.00  0.00     0.048 C 
HETATM   10  C19         0      68.609  84.171  37.051  1.00  0.00     0.096 C 
HETATM   11  C21         0      68.053  84.480  38.263  1.00  0.00     0.084 C 
ENDROOT
BRANCH  10  12
HETATM   12  O20         0      67.821  83.494  36.125  1.00  0.00    -0.359 OA
HETATM   13  H20         0      67.767  83.846  35.245  1.00  0.00     0.218 HD
ENDBRANCH  10  12
BRANCH   4  14
HETATM   14  C5          0      66.534  85.793  41.869  1.00  0.00     0.025 C 
HETATM   15  C6          0      67.213  86.774  42.577  1.00  0.00     0.004 C 
HETATM   16  C7          0      66.494  87.896  42.976  1.00  0.00     0.026 C 
HETATM   17  C8          0      65.118  87.982  42.798  1.00  0.00     0.112 C 
HETATM   18  C10         0      64.470  86.759  42.685  1.00  0.00     0.112 C 
HETATM   19  C12         0      65.191  85.672  42.203  1.00  0.00     0.028 C 
BRANCH  17  20
HETATM   20  O9          0      64.510  89.199  42.544  1.00  0.00    -0.357 OA
HETATM   21  H9          0      64.762  90.013  42.964  1.00  0.00     0.218 HD
ENDBRANCH  17  20
BRANCH  18  22
HETATM   22  O11         0      63.083  86.778  42.696  1.00  0.00    -0.357 OA
HETATM   23  H11         0      62.646  86.745  41.852  1.00  0.00     0.218 HD
ENDBRANCH  18  22
ENDBRANCH   4  14
BRANCH   8  24
HETATM   24  O17         0      70.820  87.031  36.809  1.00  0.00    -0.359 OA
HETATM   25  H17         0      70.588  87.898  37.121  1.00  0.00     0.218 HD
ENDBRANCH   8  24
TORSDOF 5
ENDMDL
MODEL 7
REMARK VINA RESULT:       0.0      7.685      9.371
REMARK  5 active torsions:
REMARK  status: ('A' for Active; 'I' for Inactive)
REMARK    1  A    between atoms: C4_4  and  C5_5 
REMARK    2  A    between atoms: C8_8  and  O9_9 
REMARK    3  A    between atoms: C10_11  and  O11_12 
REMARK    4  A    between atoms: C16_18  and  O17_19 
REMARK    5  A    between atoms: C19_22  and  O20_23 
ROOT
HETATM    1  O1          0      65.850  86.492  45.633  1.00  0.00    -0.286 OA
HETATM    2  C2          0      66.363  87.601  45.322  1.00  0.00     0.201 C 
HETATM    3  C3          0      65.950  88.338  44.225  1.00  0.00     0.067 C 
HETATM    4  C4          0      66.601  89.506  43.845  1.00  0.00     0.103 C 
HETATM    5  O13         0      67.625  89.926  44.567  1.00  0.00    -0.307 OA
HETATM    6  C14         0      68.081  89.246  45.596  1.00  0.00     0.107 C 
HETATM    7  C15         0      69.357  89.449  46.099  1.00  0.00     0.049 C 
HETATM    8  C16         0      69.924  88.564  47.009  1.00  0.00     0.093 C 
HETATM    9  C18         0      69.013  87.830  47.758  1.00  0.00     0.048 C 
HETATM   10  C19         0      67.714  87.645  47.306  1.00  0.00     0.096 C 
HETATM   11  C21         0      67.321  88.206  46.121  1.00  0.00     0.084 C 
ENDROOT
BRANCH  10  12
HETATM   12  O20         0      66.963  86.587  47.808  1.00  0.00    -0.359 OA
HETATM   13  H20         0      66.216  86.791  48.357  1.00  0.00     0.218 HD
ENDBRANCH  10  12
BRANCH   4  14
HETATM   14  C5          0      66.536  89.880  42.431  1.00  0.00     0.025 C 
HETATM   15  C6          0      67.513  90.644  41.809  1.00  0.00     0.004 C 
HETATM   16  C7          0      67.854  90.314  40.501  1.00  0.00     0.026 C 
HETATM   17  C8          0      67.156  89.346  39.788  1.00  0.00     0.112 C 
HETATM   18  C10         0      65.863  89.114  40.237  1.00  0.00     0.112 C 
HETATM   19  C12         0      65.571  89.373  41.571  1.00  0.00     0.028 C 
BRANCH  17  20
HETATM   20  O9          0      67.800  88.552  38.855  1.00  0.00    -0.357 OA
HETATM   21  H9          0      68.316  88.895  38.136  1.00  0.00     0.218 HD
ENDBRANCH  17  20
BRANCH  18  22
HETATM   22  O11         0      65.061  88.300  39.449  1.00  0.00    -0.357 OA
HETATM   23  H11         0      64.225  88.036  39.816  1.00  0.00     0.218 HD
ENDBRANCH  18  22
ENDBRANCH   4  14
BRANCH   8  24
HETATM   24  O17         0      71.274  88.204  46.931  1.00  0.00    -0.359 OA
HETATM   25  H17         0      71.659  87.883  46.124  1.00  0.00     0.218 HD
ENDBRANCH   8  24
TORSDOF 5
ENDMDL
MODEL 8
REMARK VINA RESULT:       0.0      7.066      8.503
REMARK  5 active torsions:
REMARK  status: ('A' for Active; 'I' for Inactive)
REMARK    1  A    between atoms: C4_4  and  C5_5 
REMARK    2  A    between atoms: C8_8  and  O9_9 
REMARK    3  A    between atoms: C10_11  and  O11_12 
REMARK    4  A    between atoms: C16_18  and  O17_19 
REMARK    5  A    between atoms: C19_22  and  O20_23 
ROOT
HETATM    1  O1          0      69.488  96.378  44.709  1.00  0.00    -0.286 OA
HETATM    2  C2          0      70.561  95.787  44.406  1.00  0.00     0.201 C 
HETATM    3  C3          0      71.202  95.971  43.193  1.00  0.00     0.067 C 
HETATM    4  C4          0      72.326  95.232  42.843  1.00  0.00     0.103 C 
HETATM    5  O13         0      72.799  94.349  43.705  1.00  0.00    -0.307 OA
HETATM    6  C14         0      72.207  94.108  44.854  1.00  0.00     0.107 C 
HETATM    7  C15         0      72.442  92.942  45.568  1.00  0.00     0.049 C 
HETATM    8  C16         0      71.636  92.575  46.638  1.00  0.00     0.093 C 
HETATM    9  C18         0      70.978  93.627  47.265  1.00  0.00     0.048 C 
HETATM   10  C19         0      70.767  94.826  46.596  1.00  0.00     0.096 C 
HETATM   11  C21         0      71.225  94.978  45.316  1.00  0.00     0.084 C 
ENDROOT
BRANCH  10  12
HETATM   12  O20         0      69.764  95.683  47.037  1.00  0.00    -0.359 OA
HETATM   13  H20         0      68.869  95.367  47.020  1.00  0.00     0.218 HD
ENDBRANCH  10  12
BRANCH   4  14
HETATM   14  C5          0      72.575  95.025  41.415  1.00  0.00     0.025 C 
HETATM   15  C6          0      73.272  93.931  40.923  1.00  0.00     0.004 C 
HETATM   16  C7          0      72.824  93.363  39.735  1.00  0.00     0.026 C 
HETATM   17  C8          0      71.804  93.942  38.989  1.00  0.00     0.112 C 
HETATM   18  C10         0      71.625  95.301  39.207  1.00  0.00     0.112 C 
HETATM   19  C12         0      72.002  95.828  40.436  1.00  0.00     0.028 C 
BRANCH  17  20
HETATM   20  O9          0      70.924  93.158  38.263  1.00  0.00    -0.357 OA
HETATM   21  H9          0      71.119  92.803  37.403  1.00  0.00     0.218 HD
ENDBRANCH  17  20
BRANCH  18  22
HETATM   22  O11         0      70.752  95.965  38.356  1.00  0.00    -0.357 OA
HETATM   23  H11         0      70.656  96.902  38.484  1.00  0.00     0.218 HD
ENDBRANCH  18  22
ENDBRANCH   4  14
BRANCH   8  24
HETATM   24  O17         0      71.257  91.244  46.844  1.00  0.00    -0.359 OA
HETATM   25  H17         0      71.825  90.627  47.289  1.00  0.00     0.218 HD
ENDBRANCH   8  24
TORSDOF 5
ENDMDL
MODEL 9
REMARK VINA RESULT:       0.0      3.488      8.395
REMARK  5 active torsions:
REMARK  status: ('A' for Active; 'I' for Inactive)
REMARK    1  A    between atoms: C4_4  and  C5_5 
REMARK    2  A    between atoms: C8_8  and  O9_9 
REMARK    3  A    between atoms: C10_11  and  O11_12 
REMARK    4  A    between atoms: C16_18  and  O17_19 
REMARK    5  A    between atoms: C19_22  and  O20_23 
ROOT
HETATM    1  O1          0      79.264  93.216  34.567  1.00  0.00    -0.286 OA
HETATM    2  C2          0      78.195  93.448  35.196  1.00  0.00     0.201 C 
HETATM    3  C3          0      78.015  93.100  36.524  1.00  0.00     0.067 C 
HETATM    4  C4          0      76.793  93.273  37.163  1.00  0.00     0.103 C 
HETATM    5  O13         0      75.791  93.803  36.484  1.00  0.00    -0.307 OA
HETATM    6  C14         0      75.897  94.116  35.212  1.00  0.00     0.107 C 
HETATM    7  C15         0      74.781  94.286  34.405  1.00  0.00     0.049 C 
HETATM    8  C16         0      74.895  94.364  33.022  1.00  0.00     0.093 C 
HETATM    9  C18         0      76.134  94.791  32.558  1.00  0.00     0.048 C 
HETATM   10  C19         0      77.263  94.679  33.357  1.00  0.00     0.096 C 
HETATM   11  C21         0      77.154  94.158  34.618  1.00  0.00     0.084 C 
ENDROOT
BRANCH  10  12
HETATM   12  O20         0      78.521  94.689  32.762  1.00  0.00    -0.359 OA
HETATM   13  H20         0      78.672  95.300  32.051  1.00  0.00     0.218 HD
ENDBRANCH  10  12
BRANCH   4  14
HETATM   14  C5          0      76.491  92.381  38.284  1.00  0.00     0.025 C 
HETATM   15  C6          0      75.196  92.053  38.657  1.00  0.00     0.004 C 
HETATM   16  C7          0      74.956  90.747  39.073  1.00  0.00     0.026 C 
HETATM   17  C8          0      75.990  89.834  39.243  1.00  0.00     0.112 C 
HETATM   18  C10         0      77.237  90.405  39.465  1.00  0.00     0.112 C 
HETATM   19  C12         0      77.478  91.678  38.963  1.00  0.00     0.028 C 
BRANCH  17  20
HETATM   20  O9          0      75.796  88.487  38.993  1.00  0.00    -0.357 OA
HETATM   21  H9          0      74.942  88.095  38.852  1.00  0.00     0.218 HD
ENDBRANCH  17  20
BRANCH  18  22
HETATM   22  O11         0      78.265  89.547  39.827  1.00  0.00    -0.357 OA
HETATM   23  H11         0      78.443  89.457  40.756  1.00  0.00     0.218 HD
ENDBRANCH  18  22
ENDBRANCH   4  14
BRANCH   8  24
HETATM   24  O17         0      73.968  93.743  32.178  1.00  0.00    -0.359 OA
HETATM   25  H17         0      73.034  93.895  32.265  1.00  0.00     0.218 HD
ENDBRANCH   8  24
TORSDOF 5
ENDMDL
