MODEL 1
REMARK VINA RESULT:      -6.1      0.000      0.000
REMARK  5 active torsions:
REMARK  status: ('A' for Active; 'I' for Inactive)
REMARK    1  A    between atoms: C4_4  and  C5_5 
REMARK    2  A    between atoms: C8_8  and  O9_9 
REMARK    3  A    between atoms: C10_11  and  O11_12 
REMARK    4  A    between atoms: C16_18  and  O17_19 
REMARK    5  A    between atoms: C19_22  and  O20_23 
ROOT
HETATM    1  O1          0      48.590  79.487  10.339  1.00  0.00    -0.286 OA
HETATM    2  C2          0      48.706  78.241  10.184  1.00  0.00     0.201 C 
HETATM    3  C3          0      49.135  77.669   8.998  1.00  0.00     0.067 C 
HETATM    4  C4          0      49.156  76.290   8.820  1.00  0.00     0.103 C 
HETATM    5  O13         0      48.773  75.515   9.819  1.00  0.00    -0.307 OA
HETATM    6  C14         0      48.320  76.007  10.952  1.00  0.00     0.107 C 
HETATM    7  C15         0      47.559  75.246  11.827  1.00  0.00     0.049 C 
HETATM    8  C16         0      46.875  75.832  12.885  1.00  0.00     0.093 C 
HETATM    9  C18         0      47.398  77.042  13.324  1.00  0.00     0.048 C 
HETATM   10  C19         0      48.203  77.807  12.491  1.00  0.00     0.096 C 
HETATM   11  C21         0      48.497  77.358  11.232  1.00  0.00     0.084 C 
ENDROOT
BRANCH  10  12
HETATM   12  O20         0      48.355  79.165  12.751  1.00  0.00    -0.359 OA
HETATM   13  H20         0      48.730  79.419  13.585  1.00  0.00     0.218 HD
ENDBRANCH  10  12
BRANCH   4  14
HETATM   14  C5          0      49.026  75.790   7.450  1.00  0.00     0.025 C 
HETATM   15  C6          0      48.909  74.441   7.150  1.00  0.00     0.004 C 
HETATM   16  C7          0      48.046  74.082   6.119  1.00  0.00     0.026 C 
HETATM   17  C8          0      47.423  75.037   5.324  1.00  0.00     0.112 C 
HETATM   18  C10         0      48.069  76.265   5.279  1.00  0.00     0.112 C 
HETATM   19  C12         0      48.858  76.636   6.362  1.00  0.00     0.028 C 
BRANCH  17  20
HETATM   20  O9          0      46.157  74.816   4.810  1.00  0.00    -0.357 OA
HETATM   21  H9          0      45.401  74.600   5.344  1.00  0.00     0.218 HD
ENDBRANCH  17  20
BRANCH  18  22
HETATM   22  O11         0      47.598  77.190   4.358  1.00  0.00    -0.357 OA
HETATM   23  H11         0      47.995  77.178   3.495  1.00  0.00     0.218 HD
ENDBRANCH  18  22
ENDBRANCH   4  14
BRANCH   8  24
HETATM   24  O17         0      45.588  75.414  13.243  1.00  0.00    -0.359 OA
HETATM   25  H17         0      45.367  75.190  14.139  1.00  0.00     0.218 HD
ENDBRANCH   8  24
TORSDOF 5
ENDMDL
MODEL 2
REMARK VINA RESULT:      -6.0      2.112      6.347
REMARK  5 active torsions:
REMARK  status: ('A' for Active; 'I' for Inactive)
REMARK    1  A    between atoms: C4_4  and  C5_5 
REMARK    2  A    between atoms: C8_8  and  O9_9 
REMARK    3  A    between atoms: C10_11  and  O11_12 
REMARK    4  A    between atoms: C16_18  and  O17_19 
REMARK    5  A    between atoms: C19_22  and  O20_23 
ROOT
HETATM    1  O1          0      48.101  74.121  10.204  1.00  0.00    -0.286 OA
HETATM    2  C2          0      48.479  75.038   9.424  1.00  0.00     0.201 C 
HETATM    3  C3          0      48.945  76.261   9.874  1.00  0.00     0.067 C 
HETATM    4  C4          0      49.259  77.290   8.993  1.00  0.00     0.103 C 
HETATM    5  O13         0      49.124  77.078   7.696  1.00  0.00    -0.307 OA
HETATM    6  C14         0      48.650  75.948   7.217  1.00  0.00     0.107 C 
HETATM    7  C15         0      48.137  75.857   5.932  1.00  0.00     0.049 C 
HETATM    8  C16         0      47.412  74.745   5.521  1.00  0.00     0.093 C 
HETATM    9  C18         0      47.682  73.577   6.224  1.00  0.00     0.048 C 
HETATM   10  C19         0      48.240  73.630   7.494  1.00  0.00     0.096 C 
HETATM   11  C21         0      48.541  74.842   8.053  1.00  0.00     0.084 C 
ENDROOT
BRANCH  10  12
HETATM   12  O20         0      48.104  72.536   8.343  1.00  0.00    -0.359 OA
HETATM   13  H20         0      48.650  71.776   8.181  1.00  0.00     0.218 HD
ENDBRANCH  10  12
BRANCH   4  14
HETATM   14  C5          0      49.152  78.660   9.498  1.00  0.00     0.025 C 
HETATM   15  C6          0      48.109  79.083  10.310  1.00  0.00     0.004 C 
HETATM   16  C7          0      48.412  79.972  11.337  1.00  0.00     0.026 C 
HETATM   17  C8          0      49.680  80.527  11.471  1.00  0.00     0.112 C 
HETATM   18  C10         0      50.429  80.552  10.301  1.00  0.00     0.112 C 
HETATM   19  C12         0      50.162  79.598   9.326  1.00  0.00     0.028 C 
BRANCH  17  20
HETATM   20  O9          0      50.197  80.822  12.720  1.00  0.00    -0.357 OA
HETATM   21  H9          0      51.095  81.095  12.869  1.00  0.00     0.218 HD
ENDBRANCH  17  20
BRANCH  18  22
HETATM   22  O11         0      51.620  81.262  10.333  1.00  0.00    -0.357 OA
HETATM   23  H11         0      51.566  82.183  10.560  1.00  0.00     0.218 HD
ENDBRANCH  18  22
ENDBRANCH   4  14
BRANCH   8  24
HETATM   24  O17         0      46.276  74.872   4.714  1.00  0.00    -0.359 OA
HETATM   25  H17         0      46.243  74.504   3.839  1.00  0.00     0.218 HD
ENDBRANCH   8  24
TORSDOF 5
ENDMDL
MODEL 3
REMARK VINA RESULT:      -5.5      2.096      6.572
REMARK  5 active torsions:
REMARK  status: ('A' for Active; 'I' for Inactive)
REMARK    1  A    between atoms: C4_4  and  C5_5 
REMARK    2  A    between atoms: C8_8  and  O9_9 
REMARK    3  A    between atoms: C10_11  and  O11_12 
REMARK    4  A    between atoms: C16_18  and  O17_19 
REMARK    5  A    between atoms: C19_22  and  O20_23 
ROOT
HETATM    1  O1          0      50.686  74.076   8.424  1.00  0.00    -0.286 OA
HETATM    2  C2          0      50.040  75.148   8.263  1.00  0.00     0.201 C 
HETATM    3  C3          0      49.957  76.128   9.238  1.00  0.00     0.067 C 
HETATM    4  C4          0      49.156  77.252   9.075  1.00  0.00     0.103 C 
HETATM    5  O13         0      48.478  77.390   7.950  1.00  0.00    -0.307 OA
HETATM    6  C14         0      48.492  76.473   7.008  1.00  0.00     0.107 C 
HETATM    7  C15         0      47.505  76.409   6.035  1.00  0.00     0.049 C 
HETATM    8  C16         0      47.380  75.301   5.205  1.00  0.00     0.093 C 
HETATM    9  C18         0      48.544  74.562   5.034  1.00  0.00     0.048 C 
HETATM   10  C19         0      49.571  74.638   5.965  1.00  0.00     0.096 C 
HETATM   11  C21         0      49.444  75.460   7.051  1.00  0.00     0.084 C 
ENDROOT
BRANCH  10  12
HETATM   12  O20         0      50.507  73.610   6.031  1.00  0.00    -0.359 OA
HETATM   13  H20         0      51.157  73.644   6.722  1.00  0.00     0.218 HD
ENDBRANCH  10  12
BRANCH   4  14
HETATM   14  C5          0      48.647  77.894  10.288  1.00  0.00     0.025 C 
HETATM   15  C6          0      48.794  77.338  11.551  1.00  0.00     0.004 C 
HETATM   16  C7          0      49.058  78.202  12.609  1.00  0.00     0.026 C 
HETATM   17  C8          0      49.043  79.583  12.444  1.00  0.00     0.112 C 
HETATM   18  C10         0      48.290  80.030  11.367  1.00  0.00     0.112 C 
HETATM   19  C12         0      48.113  79.176  10.285  1.00  0.00     0.028 C 
BRANCH  17  20
HETATM   20  O9          0      49.890  80.393  13.178  1.00  0.00    -0.357 OA
HETATM   21  H9          0      49.600  80.953  13.889  1.00  0.00     0.218 HD
ENDBRANCH  17  20
BRANCH  18  22
HETATM   22  O11         0      48.086  81.399  11.267  1.00  0.00    -0.357 OA
HETATM   23  H11         0      47.185  81.697  11.219  1.00  0.00     0.218 HD
ENDBRANCH  18  22
ENDBRANCH   4  14
BRANCH   8  24
HETATM   24  O17         0      46.125  74.789   4.856  1.00  0.00    -0.359 OA
HETATM   25  H17         0      45.723  74.983   4.018  1.00  0.00     0.218 HD
ENDBRANCH   8  24
TORSDOF 5
ENDMDL
MODEL 4
REMARK VINA RESULT:      -5.4      2.264      2.978
REMARK  5 active torsions:
REMARK  status: ('A' for Active; 'I' for Inactive)
REMARK    1  A    between atoms: C4_4  and  C5_5 
REMARK    2  A    between atoms: C8_8  and  O9_9 
REMARK    3  A    between atoms: C10_11  and  O11_12 
REMARK    4  A    between atoms: C16_18  and  O17_19 
REMARK    5  A    between atoms: C19_22  and  O20_23 
ROOT
HETATM    1  O1          0      52.583  76.788  10.300  1.00  0.00    -0.286 OA
HETATM    2  C2          0      51.373  76.808   9.943  1.00  0.00     0.201 C 
HETATM    3  C3          0      50.869  75.983   8.952  1.00  0.00     0.067 C 
HETATM    4  C4          0      49.557  76.096   8.506  1.00  0.00     0.103 C 
HETATM    5  O13         0      48.774  77.003   9.063  1.00  0.00    -0.307 OA
HETATM    6  C14         0      49.212  77.836   9.981  1.00  0.00     0.107 C 
HETATM    7  C15         0      48.546  79.018  10.274  1.00  0.00     0.049 C 
HETATM    8  C16         0      49.138  80.007  11.050  1.00  0.00     0.093 C 
HETATM    9  C18         0      50.128  79.559  11.916  1.00  0.00     0.048 C 
HETATM   10  C19         0      50.783  78.358  11.679  1.00  0.00     0.096 C 
HETATM   11  C21         0      50.439  77.600  10.593  1.00  0.00     0.084 C 
ENDROOT
BRANCH  10  12
HETATM   12  O20         0      52.025  78.133  12.264  1.00  0.00    -0.359 OA
HETATM   13  H20         0      52.468  77.316  12.068  1.00  0.00     0.218 HD
ENDBRANCH  10  12
BRANCH   4  14
HETATM   14  C5          0      49.277  75.669   7.134  1.00  0.00     0.025 C 
HETATM   15  C6          0      49.135  74.336   6.776  1.00  0.00     0.004 C 
HETATM   16  C7          0      48.164  74.023   5.830  1.00  0.00     0.026 C 
HETATM   17  C8          0      47.449  75.013   5.163  1.00  0.00     0.112 C 
HETATM   18  C10         0      48.079  76.249   5.113  1.00  0.00     0.112 C 
HETATM   19  C12         0      48.983  76.570   6.119  1.00  0.00     0.028 C 
BRANCH  17  20
HETATM   20  O9          0      46.136  74.804   4.783  1.00  0.00    -0.357 OA
HETATM   21  H9          0      45.481  75.492   4.746  1.00  0.00     0.218 HD
ENDBRANCH  17  20
BRANCH  18  22
HETATM   22  O11         0      47.502  77.216   4.303  1.00  0.00    -0.357 OA
HETATM   23  H11         0      47.035  77.920   4.738  1.00  0.00     0.218 HD
ENDBRANCH  18  22
ENDBRANCH   4  14
BRANCH   8  24
HETATM   24  O17         0      48.989  81.363  10.740  1.00  0.00    -0.359 OA
HETATM   25  H17         0      48.270  81.878  11.086  1.00  0.00     0.218 HD
ENDBRANCH   8  24
TORSDOF 5
ENDMDL
MODEL 5
REMARK VINA RESULT:      -5.1      2.981      7.597
REMARK  5 active torsions:
REMARK  status: ('A' for Active; 'I' for Inactive)
REMARK    1  A    between atoms: C4_4  and  C5_5 
REMARK    2  A    between atoms: C8_8  and  O9_9 
REMARK    3  A    between atoms: C10_11  and  O11_12 
REMARK    4  A    between atoms: C16_18  and  O17_19 
REMARK    5  A    between atoms: C19_22  and  O20_23 
ROOT
HETATM    1  O1          0      46.212  70.274   9.628  1.00  0.00    -0.286 OA
HETATM    2  C2          0      46.838  71.321   9.951  1.00  0.00     0.201 C 
HETATM    3  C3          0      46.823  71.838  11.235  1.00  0.00     0.067 C 
HETATM    4  C4          0      47.436  73.048  11.541  1.00  0.00     0.103 C 
HETATM    5  O13         0      48.063  73.702  10.580  1.00  0.00    -0.307 OA
HETATM    6  C14         0      48.077  73.274   9.336  1.00  0.00     0.107 C 
HETATM    7  C15         0      48.369  74.119   8.275  1.00  0.00     0.049 C 
HETATM    8  C16         0      48.135  73.735   6.961  1.00  0.00     0.093 C 
HETATM    9  C18         0      48.120  72.363   6.744  1.00  0.00     0.048 C 
HETATM   10  C19         0      47.877  71.486   7.793  1.00  0.00     0.096 C 
HETATM   11  C21         0      47.667  71.976   9.053  1.00  0.00     0.084 C 
ENDROOT
BRANCH  10  12
HETATM   12  O20         0      47.436  70.196   7.513  1.00  0.00    -0.359 OA
HETATM   13  H20         0      47.172  69.648   8.242  1.00  0.00     0.218 HD
ENDBRANCH  10  12
BRANCH   4  14
HETATM   14  C5          0      46.898  73.804  12.673  1.00  0.00     0.025 C 
HETATM   15  C6          0      46.993  75.185  12.768  1.00  0.00     0.004 C 
HETATM   16  C7          0      45.905  75.871  13.298  1.00  0.00     0.026 C 
HETATM   17  C8          0      44.813  75.201  13.839  1.00  0.00     0.112 C 
HETATM   18  C10         0      45.081  73.907  14.267  1.00  0.00     0.112 C 
HETATM   19  C12         0      46.121  73.213  13.661  1.00  0.00     0.028 C 
BRANCH  17  20
HETATM   20  O9          0      43.538  75.731  13.744  1.00  0.00    -0.357 OA
HETATM   21  H9          0      43.217  76.201  12.984  1.00  0.00     0.218 HD
ENDBRANCH  17  20
BRANCH  18  22
HETATM   22  O11         0      44.082  73.263  14.983  1.00  0.00    -0.357 OA
HETATM   23  H11         0      44.343  72.516  15.509  1.00  0.00     0.218 HD
ENDBRANCH  18  22
ENDBRANCH   4  14
BRANCH   8  24
HETATM   24  O17         0      47.624  74.634   6.018  1.00  0.00    -0.359 OA
HETATM   25  H17         0      48.195  75.144   5.454  1.00  0.00     0.218 HD
ENDBRANCH   8  24
TORSDOF 5
ENDMDL
MODEL 6
REMARK VINA RESULT:      -5.0      1.940      3.211
REMARK  5 active torsions:
REMARK  status: ('A' for Active; 'I' for Inactive)
REMARK    1  A    between atoms: C4_4  and  C5_5 
REMARK    2  A    between atoms: C8_8  and  O9_9 
REMARK    3  A    between atoms: C10_11  and  O11_12 
REMARK    4  A    between atoms: C16_18  and  O17_19 
REMARK    5  A    between atoms: C19_22  and  O20_23 
ROOT
HETATM    1  O1          0      49.199  74.878  12.116  1.00  0.00    -0.286 OA
HETATM    2  C2          0      49.221  75.726  11.182  1.00  0.00     0.201 C 
HETATM    3  C3          0      48.682  75.478   9.931  1.00  0.00     0.067 C 
HETATM    4  C4          0      48.810  76.389   8.889  1.00  0.00     0.103 C 
HETATM    5  O13         0      49.447  77.525   9.114  1.00  0.00    -0.307 OA
HETATM    6  C14         0      50.009  77.794  10.272  1.00  0.00     0.107 C 
HETATM    7  C15         0      50.994  78.763  10.398  1.00  0.00     0.049 C 
HETATM    8  C16         0      51.759  78.867  11.553  1.00  0.00     0.093 C 
HETATM    9  C18         0      51.162  78.359  12.701  1.00  0.00     0.048 C 
HETATM   10  C19         0      50.142  77.422  12.609  1.00  0.00     0.096 C 
HETATM   11  C21         0      49.708  77.008  11.379  1.00  0.00     0.084 C 
ENDROOT
BRANCH  10  12
HETATM   12  O20         0      49.860  76.613  13.706  1.00  0.00    -0.359 OA
HETATM   13  H20         0      49.055  76.110  13.693  1.00  0.00     0.218 HD
ENDBRANCH  10  12
BRANCH   4  14
HETATM   14  C5          0      48.780  75.856   7.526  1.00  0.00     0.025 C 
HETATM   15  C6          0      48.705  74.498   7.251  1.00  0.00     0.004 C 
HETATM   16  C7          0      47.919  74.100   6.174  1.00  0.00     0.026 C 
HETATM   17  C8          0      47.335  75.026   5.316  1.00  0.00     0.112 C 
HETATM   18  C10         0      47.963  76.264   5.285  1.00  0.00     0.112 C 
HETATM   19  C12         0      48.672  76.674   6.409  1.00  0.00     0.028 C 
BRANCH  17  20
HETATM   20  O9          0      46.111  74.771   4.725  1.00  0.00    -0.357 OA
HETATM   21  H9          0      46.004  74.547   3.808  1.00  0.00     0.218 HD
ENDBRANCH  17  20
BRANCH  18  22
HETATM   22  O11         0      47.540  77.159   4.313  1.00  0.00    -0.357 OA
HETATM   23  H11         0      47.797  76.974   3.417  1.00  0.00     0.218 HD
ENDBRANCH  18  22
ENDBRANCH   4  14
BRANCH   8  24
HETATM   24  O17         0      53.130  79.144  11.498  1.00  0.00    -0.359 OA
HETATM   25  H17         0      53.456  80.026  11.361  1.00  0.00     0.218 HD
ENDBRANCH   8  24
TORSDOF 5
ENDMDL
MODEL 7
REMARK VINA RESULT:      -4.7      1.827      6.838
REMARK  5 active torsions:
REMARK  status: ('A' for Active; 'I' for Inactive)
REMARK    1  A    between atoms: C4_4  and  C5_5 
REMARK    2  A    between atoms: C8_8  and  O9_9 
REMARK    3  A    between atoms: C10_11  and  O11_12 
REMARK    4  A    between atoms: C16_18  and  O17_19 
REMARK    5  A    between atoms: C19_22  and  O20_23 
ROOT
HETATM    1  O1          0      47.577  71.755   8.763  1.00  0.00    -0.286 OA
HETATM    2  C2          0      48.016  72.877   9.139  1.00  0.00     0.201 C 
HETATM    3  C3          0      48.204  73.201  10.472  1.00  0.00     0.067 C 
HETATM    4  C4          0      48.591  74.477  10.864  1.00  0.00     0.103 C 
HETATM    5  O13         0      48.801  75.391   9.933  1.00  0.00    -0.307 OA
HETATM    6  C14         0      48.601  75.147   8.656  1.00  0.00     0.107 C 
HETATM    7  C15         0      48.428  76.170   7.735  1.00  0.00     0.049 C 
HETATM    8  C16         0      47.967  75.912   6.449  1.00  0.00     0.093 C 
HETATM    9  C18         0      48.202  74.623   5.988  1.00  0.00     0.048 C 
HETATM   10  C19         0      48.426  73.584   6.882  1.00  0.00     0.096 C 
HETATM   11  C21         0      48.431  73.835   8.227  1.00  0.00     0.084 C 
ENDROOT
BRANCH  10  12
HETATM   12  O20         0      48.226  72.272   6.464  1.00  0.00    -0.359 OA
HETATM   13  H20         0      48.623  71.577   6.974  1.00  0.00     0.218 HD
ENDBRANCH  10  12
BRANCH   4  14
HETATM   14  C5          0      48.197  74.915  12.204  1.00  0.00     0.025 C 
HETATM   15  C6          0      49.063  75.571  13.066  1.00  0.00     0.004 C 
HETATM   16  C7          0      48.540  76.595  13.849  1.00  0.00     0.026 C 
HETATM   17  C8          0      47.177  76.870  13.875  1.00  0.00     0.112 C 
HETATM   18  C10         0      46.364  75.806  13.508  1.00  0.00     0.112 C 
HETATM   19  C12         0      46.885  74.840  12.655  1.00  0.00     0.028 C 
BRANCH  17  20
HETATM   20  O9          0      46.718  78.164  14.048  1.00  0.00    -0.357 OA
HETATM   21  H9          0      46.091  78.417  14.717  1.00  0.00     0.218 HD
ENDBRANCH  17  20
BRANCH  18  22
HETATM   22  O11         0      44.998  75.965  13.697  1.00  0.00    -0.357 OA
HETATM   23  H11         0      44.470  76.103  12.919  1.00  0.00     0.218 HD
ENDBRANCH  18  22
ENDBRANCH   4  14
BRANCH   8  24
HETATM   24  O17         0      47.053  76.764   5.818  1.00  0.00    -0.359 OA
HETATM   25  H17         0      46.598  77.449   6.294  1.00  0.00     0.218 HD
ENDBRANCH   8  24
TORSDOF 5
ENDMDL
MODEL 8
REMARK VINA RESULT:      -4.6      4.184      6.039
REMARK  5 active torsions:
REMARK  status: ('A' for Active; 'I' for Inactive)
REMARK    1  A    between atoms: C4_4  and  C5_5 
REMARK    2  A    between atoms: C8_8  and  O9_9 
REMARK    3  A    between atoms: C10_11  and  O11_12 
REMARK    4  A    between atoms: C16_18  and  O17_19 
REMARK    5  A    between atoms: C19_22  and  O20_23 
ROOT
HETATM    1  O1          0      52.724  76.635   9.302  1.00  0.00    -0.286 OA
HETATM    2  C2          0      52.153  76.914   8.212  1.00  0.00     0.201 C 
HETATM    3  C3          0      51.041  76.230   7.751  1.00  0.00     0.067 C 
HETATM    4  C4          0      50.494  76.489   6.499  1.00  0.00     0.103 C 
HETATM    5  O13         0      51.043  77.426   5.748  1.00  0.00    -0.307 OA
HETATM    6  C14         0      52.121  78.079   6.122  1.00  0.00     0.107 C 
HETATM    7  C15         0      52.921  78.753   5.210  1.00  0.00     0.049 C 
HETATM    8  C16         0      54.182  79.220   5.562  1.00  0.00     0.093 C 
HETATM    9  C18         0      54.362  79.456   6.920  1.00  0.00     0.048 C 
HETATM   10  C19         0      53.548  78.835   7.858  1.00  0.00     0.096 C 
HETATM   11  C21         0      52.550  77.996   7.442  1.00  0.00     0.084 C 
ENDROOT
BRANCH  10  12
HETATM   12  O20         0      53.989  78.723   9.173  1.00  0.00    -0.359 OA
HETATM   13  H20         0      54.450  79.462   9.553  1.00  0.00     0.218 HD
ENDBRANCH  10  12
BRANCH   4  14
HETATM   14  C5          0      49.769  75.397   5.847  1.00  0.00     0.025 C 
HETATM   15  C6          0      50.175  74.073   5.924  1.00  0.00     0.004 C 
HETATM   16  C7          0      49.186  73.101   6.037  1.00  0.00     0.026 C 
HETATM   17  C8          0      47.836  73.419   5.942  1.00  0.00     0.112 C 
HETATM   18  C10         0      47.565  74.594   5.254  1.00  0.00     0.112 C 
HETATM   19  C12         0      48.540  75.585   5.228  1.00  0.00     0.028 C 
BRANCH  17  20
HETATM   20  O9          0      46.889  72.717   6.667  1.00  0.00    -0.357 OA
HETATM   21  H9          0      45.993  72.588   6.379  1.00  0.00     0.218 HD
ENDBRANCH  17  20
BRANCH  18  22
HETATM   22  O11         0      46.234  74.861   4.966  1.00  0.00    -0.357 OA
HETATM   23  H11         0      45.729  74.158   4.575  1.00  0.00     0.218 HD
ENDBRANCH  18  22
ENDBRANCH   4  14
BRANCH   8  24
HETATM   24  O17         0      55.265  79.131   4.681  1.00  0.00    -0.359 OA
HETATM   25  H17         0      55.518  78.306   4.283  1.00  0.00     0.218 HD
ENDBRANCH   8  24
TORSDOF 5
ENDMDL
MODEL 9
REMARK VINA RESULT:      -4.5      9.656     11.850
REMARK  5 active torsions:
REMARK  status: ('A' for Active; 'I' for Inactive)
REMARK    1  A    between atoms: C4_4  and  C5_5 
REMARK    2  A    between atoms: C8_8  and  O9_9 
REMARK    3  A    between atoms: C10_11  and  O11_12 
REMARK    4  A    between atoms: C16_18  and  O17_19 
REMARK    5  A    between atoms: C19_22  and  O20_23 
ROOT
HETATM    1  O1          0      53.163  85.475   6.734  1.00  0.00    -0.286 OA
HETATM    2  C2          0      51.992  85.699   6.322  1.00  0.00     0.201 C 
HETATM    3  C3          0      51.020  86.290   7.111  1.00  0.00     0.067 C 
HETATM    4  C4          0      49.709  86.432   6.668  1.00  0.00     0.103 C 
HETATM    5  O13         0      49.400  86.008   5.456  1.00  0.00    -0.307 OA
HETATM    6  C14         0      50.275  85.407   4.681  1.00  0.00     0.107 C 
HETATM    7  C15         0      49.882  84.620   3.608  1.00  0.00     0.049 C 
HETATM    8  C16         0      50.784  83.789   2.954  1.00  0.00     0.093 C 
HETATM    9  C18         0      52.116  84.172   3.057  1.00  0.00     0.048 C 
HETATM   10  C19         0      52.535  84.997   4.091  1.00  0.00     0.096 C 
HETATM   11  C21         0      51.626  85.451   5.008  1.00  0.00     0.084 C 
ENDROOT
BRANCH  10  12
HETATM   12  O20         0      53.881  85.020   4.441  1.00  0.00    -0.359 OA
HETATM   13  H20         0      54.452  84.364   4.058  1.00  0.00     0.218 HD
ENDBRANCH  10  12
BRANCH   4  14
HETATM   14  C5          0      48.660  86.481   7.688  1.00  0.00     0.025 C 
HETATM   15  C6          0      48.848  86.023   8.984  1.00  0.00     0.004 C 
HETATM   16  C7          0      48.261  86.748  10.015  1.00  0.00     0.026 C 
HETATM   17  C8          0      47.404  87.813   9.762  1.00  0.00     0.112 C 
HETATM   18  C10         0      46.797  87.785   8.514  1.00  0.00     0.112 C 
HETATM   19  C12         0      47.447  87.125   7.478  1.00  0.00     0.028 C 
BRANCH  17  20
HETATM   20  O9          0      47.351  88.900  10.617  1.00  0.00    -0.357 OA
HETATM   21  H9          0      47.936  89.647  10.559  1.00  0.00     0.218 HD
ENDBRANCH  17  20
BRANCH  18  22
HETATM   22  O11         0      45.794  88.716   8.281  1.00  0.00    -0.357 OA
HETATM   23  H11         0      45.819  89.513   8.798  1.00  0.00     0.218 HD
ENDBRANCH  18  22
ENDBRANCH   4  14
BRANCH   8  24
HETATM   24  O17         0      50.418  82.507   2.527  1.00  0.00    -0.359 OA
HETATM   25  H17         0      50.683  81.729   3.002  1.00  0.00     0.218 HD
ENDBRANCH   8  24
TORSDOF 5
ENDMDL
