MODEL 1
REMARK VINA RESULT:      -6.5      0.000      0.000
REMARK  5 active torsions:
REMARK  status: ('A' for Active; 'I' for Inactive)
REMARK    1  A    between atoms: C4_4  and  C5_5 
REMARK    2  A    between atoms: C8_8  and  O9_9 
REMARK    3  A    between atoms: C10_11  and  O11_12 
REMARK    4  A    between atoms: C16_18  and  O17_19 
REMARK    5  A    between atoms: C19_22  and  O20_23 
ROOT
HETATM    1  O1          0      30.883  48.833  -1.099  1.00  0.00    -0.286 OA
HETATM    2  C2          0      30.909  50.035  -1.481  1.00  0.00     0.201 C 
HETATM    3  C3          0      30.477  51.084  -0.687  1.00  0.00     0.067 C 
HETATM    4  C4          0      30.420  52.387  -1.169  1.00  0.00     0.103 C 
HETATM    5  O13         0      30.809  52.623  -2.410  1.00  0.00    -0.307 OA
HETATM    6  C14         0      31.193  51.658  -3.217  1.00  0.00     0.107 C 
HETATM    7  C15         0      31.214  51.823  -4.594  1.00  0.00     0.049 C 
HETATM    8  C16         0      31.371  50.739  -5.449  1.00  0.00     0.093 C 
HETATM    9  C18         0      32.015  49.641  -4.892  1.00  0.00     0.048 C 
HETATM   10  C19         0      32.053  49.469  -3.515  1.00  0.00     0.096 C 
HETATM   11  C21         0      31.466  50.397  -2.698  1.00  0.00     0.084 C 
ENDROOT
BRANCH  10  12
HETATM   12  O20         0      32.294  48.202  -2.994  1.00  0.00    -0.359 OA
HETATM   13  H20         0      32.332  48.108  -2.049  1.00  0.00     0.218 HD
ENDBRANCH  10  12
BRANCH   4  14
HETATM   14  C5          0      29.442  53.286  -0.554  1.00  0.00     0.025 C 
HETATM   15  C6          0      29.730  54.604  -0.232  1.00  0.00     0.004 C 
HETATM   16  C7          0      28.731  55.551  -0.435  1.00  0.00     0.026 C 
HETATM   17  C8          0      27.446  55.184  -0.818  1.00  0.00     0.112 C 
HETATM   18  C10         0      27.096  53.878  -0.500  1.00  0.00     0.112 C 
HETATM   19  C12         0      28.109  52.933  -0.387  1.00  0.00     0.028 C 
BRANCH  17  20
HETATM   20  O9          0      26.687  56.005  -1.633  1.00  0.00    -0.357 OA
HETATM   21  H9          0      25.741  55.955  -1.699  1.00  0.00     0.218 HD
ENDBRANCH  17  20
BRANCH  18  22
HETATM   22  O11         0      25.769  53.520  -0.687  1.00  0.00    -0.357 OA
HETATM   23  H11         0      25.412  52.869  -0.094  1.00  0.00     0.218 HD
ENDBRANCH  18  22
ENDBRANCH   4  14
BRANCH   8  24
HETATM   24  O17         0      30.646  50.639  -6.642  1.00  0.00    -0.359 OA
HETATM   25  H17         0      29.954  49.998  -6.753  1.00  0.00     0.218 HD
ENDBRANCH   8  24
TORSDOF 5
ENDMDL
MODEL 2
REMARK VINA RESULT:      -6.3      2.209      6.647
REMARK  5 active torsions:
REMARK  status: ('A' for Active; 'I' for Inactive)
REMARK    1  A    between atoms: C4_4  and  C5_5 
REMARK    2  A    between atoms: C8_8  and  O9_9 
REMARK    3  A    between atoms: C10_11  and  O11_12 
REMARK    4  A    between atoms: C16_18  and  O17_19 
REMARK    5  A    between atoms: C19_22  and  O20_23 
ROOT
HETATM    1  O1          0      33.377  51.858  -1.245  1.00  0.00    -0.286 OA
HETATM    2  C2          0      32.290  51.463  -1.748  1.00  0.00     0.201 C 
HETATM    3  C3          0      32.188  50.304  -2.498  1.00  0.00     0.067 C 
HETATM    4  C4          0      31.001  49.945  -3.126  1.00  0.00     0.103 C 
HETATM    5  O13         0      29.944  50.725  -2.981  1.00  0.00    -0.307 OA
HETATM    6  C14         0      29.997  51.855  -2.310  1.00  0.00     0.107 C 
HETATM    7  C15         0      29.047  52.852  -2.481  1.00  0.00     0.049 C 
HETATM    8  C16         0      29.242  54.130  -1.972  1.00  0.00     0.093 C 
HETATM    9  C18         0      30.109  54.204  -0.888  1.00  0.00     0.048 C 
HETATM   10  C19         0      31.040  53.200  -0.660  1.00  0.00     0.096 C 
HETATM   11  C21         0      31.095  52.121  -1.499  1.00  0.00     0.084 C 
ENDROOT
BRANCH  10  12
HETATM   12  O20         0      32.156  53.474   0.125  1.00  0.00    -0.359 OA
HETATM   13  H20         0      32.841  54.016  -0.248  1.00  0.00     0.218 HD
ENDBRANCH  10  12
BRANCH   4  14
HETATM   14  C5          0      31.103  49.114  -4.328  1.00  0.00     0.025 C 
HETATM   15  C6          0      30.678  49.543  -5.577  1.00  0.00     0.004 C 
HETATM   16  C7          0      31.445  49.180  -6.678  1.00  0.00     0.026 C 
HETATM   17  C8          0      32.524  48.310  -6.562  1.00  0.00     0.112 C 
HETATM   18  C10         0      32.474  47.471  -5.456  1.00  0.00     0.112 C 
HETATM   19  C12         0      31.770  47.896  -4.336  1.00  0.00     0.028 C 
BRANCH  17  20
HETATM   20  O9          0      33.635  48.444  -7.375  1.00  0.00    -0.357 OA
HETATM   21  H9          0      33.600  48.423  -8.324  1.00  0.00     0.218 HD
ENDBRANCH  17  20
BRANCH  18  22
HETATM   22  O11         0      33.421  46.459  -5.392  1.00  0.00    -0.357 OA
HETATM   23  H11         0      33.098  45.574  -5.267  1.00  0.00     0.218 HD
ENDBRANCH  18  22
ENDBRANCH   4  14
BRANCH   8  24
HETATM   24  O17         0      28.872  55.268  -2.696  1.00  0.00    -0.359 OA
HETATM   25  H17         0      27.973  55.575  -2.719  1.00  0.00     0.218 HD
ENDBRANCH   8  24
TORSDOF 5
ENDMDL
MODEL 3
REMARK VINA RESULT:      -6.2      1.573      2.181
REMARK  5 active torsions:
REMARK  status: ('A' for Active; 'I' for Inactive)
REMARK    1  A    between atoms: C4_4  and  C5_5 
REMARK    2  A    between atoms: C8_8  and  O9_9 
REMARK    3  A    between atoms: C10_11  and  O11_12 
REMARK    4  A    between atoms: C16_18  and  O17_19 
REMARK    5  A    between atoms: C19_22  and  O20_23 
ROOT
HETATM    1  O1          0      30.508  47.271  -2.919  1.00  0.00    -0.286 OA
HETATM    2  C2          0      30.941  48.454  -2.982  1.00  0.00     0.201 C 
HETATM    3  C3          0      30.827  49.351  -1.933  1.00  0.00     0.067 C 
HETATM    4  C4          0      31.220  50.678  -2.064  1.00  0.00     0.103 C 
HETATM    5  O13         0      31.732  51.078  -3.215  1.00  0.00    -0.307 OA
HETATM    6  C14         0      31.828  50.277  -4.253  1.00  0.00     0.107 C 
HETATM    7  C15         0      31.978  50.767  -5.543  1.00  0.00     0.049 C 
HETATM    8  C16         0      31.823  49.942  -6.650  1.00  0.00     0.093 C 
HETATM    9  C18         0      32.047  48.591  -6.412  1.00  0.00     0.048 C 
HETATM   10  C19         0      31.951  48.077  -5.126  1.00  0.00     0.096 C 
HETATM   11  C21         0      31.651  48.908  -4.083  1.00  0.00     0.084 C 
ENDROOT
BRANCH  10  12
HETATM   12  O20         0      31.742  46.712  -4.954  1.00  0.00    -0.359 OA
HETATM   13  H20         0      31.229  46.431  -4.206  1.00  0.00     0.218 HD
ENDBRANCH  10  12
BRANCH   4  14
HETATM   14  C5          0      30.551  51.662  -1.211  1.00  0.00     0.025 C 
HETATM   15  C6          0      31.213  52.370  -0.218  1.00  0.00     0.004 C 
HETATM   16  C7          0      30.861  53.704  -0.034  1.00  0.00     0.026 C 
HETATM   17  C8          0      29.796  54.279  -0.720  1.00  0.00     0.112 C 
HETATM   18  C10         0      28.843  53.376  -1.172  1.00  0.00     0.112 C 
HETATM   19  C12         0      29.241  52.069  -1.429  1.00  0.00     0.028 C 
BRANCH  17  20
HETATM   20  O9          0      29.826  55.612  -1.086  1.00  0.00    -0.357 OA
HETATM   21  H9          0      30.461  55.980  -1.690  1.00  0.00     0.218 HD
ENDBRANCH  17  20
BRANCH  18  22
HETATM   22  O11         0      27.672  53.907  -1.693  1.00  0.00    -0.357 OA
HETATM   23  H11         0      27.296  54.651  -1.236  1.00  0.00     0.218 HD
ENDBRANCH  18  22
ENDBRANCH   4  14
BRANCH   8  24
HETATM   24  O17         0      31.172  50.387  -7.806  1.00  0.00    -0.359 OA
HETATM   25  H17         0      30.513  49.860  -8.242  1.00  0.00     0.218 HD
ENDBRANCH   8  24
TORSDOF 5
ENDMDL
MODEL 4
REMARK VINA RESULT:      -5.7      2.320      6.143
REMARK  5 active torsions:
REMARK  status: ('A' for Active; 'I' for Inactive)
REMARK    1  A    between atoms: C4_4  and  C5_5 
REMARK    2  A    between atoms: C8_8  and  O9_9 
REMARK    3  A    between atoms: C10_11  and  O11_12 
REMARK    4  A    between atoms: C16_18  and  O17_19 
REMARK    5  A    between atoms: C19_22  and  O20_23 
ROOT
HETATM    1  O1          0      32.681  51.969  -1.148  1.00  0.00    -0.286 OA
HETATM    2  C2          0      31.483  51.581  -1.069  1.00  0.00     0.201 C 
HETATM    3  C3          0      31.099  50.275  -1.324  1.00  0.00     0.067 C 
HETATM    4  C4          0      29.761  49.897  -1.332  1.00  0.00     0.103 C 
HETATM    5  O13         0      28.843  50.809  -1.068  1.00  0.00    -0.307 OA
HETATM    6  C14         0      29.150  52.070  -0.856  1.00  0.00     0.107 C 
HETATM    7  C15         0      28.209  53.083  -0.977  1.00  0.00     0.049 C 
HETATM    8  C16         0      28.587  54.420  -1.004  1.00  0.00     0.093 C 
HETATM    9  C18         0      29.802  54.699  -0.391  1.00  0.00     0.048 C 
HETATM   10  C19         0      30.748  53.699  -0.212  1.00  0.00     0.096 C 
HETATM   11  C21         0      30.475  52.424  -0.627  1.00  0.00     0.084 C 
ENDROOT
BRANCH  10  12
HETATM   12  O20         0      32.080  54.050  -0.014  1.00  0.00    -0.359 OA
HETATM   13  H20         0      32.313  54.968  -0.084  1.00  0.00     0.218 HD
ENDBRANCH  10  12
BRANCH   4  14
HETATM   14  C5          0      29.395  48.747  -2.160  1.00  0.00     0.025 C 
HETATM   15  C6          0      28.110  48.547  -2.643  1.00  0.00     0.004 C 
HETATM   16  C7          0      27.977  48.035  -3.930  1.00  0.00     0.026 C 
HETATM   17  C8          0      29.080  47.608  -4.662  1.00  0.00     0.112 C 
HETATM   18  C10         0      30.184  47.258  -3.896  1.00  0.00     0.112 C 
HETATM   19  C12         0      30.337  47.851  -2.648  1.00  0.00     0.028 C 
BRANCH  17  20
HETATM   20  O9          0      29.111  47.738  -6.039  1.00  0.00    -0.357 OA
HETATM   21  H9          0      28.332  47.808  -6.580  1.00  0.00     0.218 HD
ENDBRANCH  17  20
BRANCH  18  22
HETATM   22  O11         0      31.241  46.650  -4.558  1.00  0.00    -0.357 OA
HETATM   23  H11         0      31.887  46.205  -4.021  1.00  0.00     0.218 HD
ENDBRANCH  18  22
ENDBRANCH   4  14
BRANCH   8  24
HETATM   24  O17         0      27.969  55.334  -1.865  1.00  0.00    -0.359 OA
HETATM   25  H17         0      27.253  55.079  -2.434  1.00  0.00     0.218 HD
ENDBRANCH   8  24
TORSDOF 5
ENDMDL
MODEL 5
REMARK VINA RESULT:      -5.7      6.553      8.909
REMARK  5 active torsions:
REMARK  status: ('A' for Active; 'I' for Inactive)
REMARK    1  A    between atoms: C4_4  and  C5_5 
REMARK    2  A    between atoms: C8_8  and  O9_9 
REMARK    3  A    between atoms: C10_11  and  O11_12 
REMARK    4  A    between atoms: C16_18  and  O17_19 
REMARK    5  A    between atoms: C19_22  and  O20_23 
ROOT
HETATM    1  O1          0      33.010  43.382  -8.838  1.00  0.00    -0.286 OA
HETATM    2  C2          0      33.416  44.250  -8.018  1.00  0.00     0.201 C 
HETATM    3  C3          0      32.561  45.106  -7.345  1.00  0.00     0.067 C 
HETATM    4  C4          0      33.042  46.121  -6.526  1.00  0.00     0.103 C 
HETATM    5  O13         0      34.348  46.251  -6.377  1.00  0.00    -0.307 OA
HETATM    6  C14         0      35.205  45.489  -7.021  1.00  0.00     0.107 C 
HETATM    7  C15         0      36.531  45.860  -7.188  1.00  0.00     0.049 C 
HETATM    8  C16         0      37.362  45.188  -8.077  1.00  0.00     0.093 C 
HETATM    9  C18         0      36.989  43.879  -8.354  1.00  0.00     0.048 C 
HETATM   10  C19         0      35.680  43.461  -8.154  1.00  0.00     0.096 C 
HETATM   11  C21         0      34.754  44.341  -7.664  1.00  0.00     0.084 C 
ENDROOT
BRANCH  10  12
HETATM   12  O20         0      35.217  42.331  -8.820  1.00  0.00    -0.359 OA
HETATM   13  H20         0      34.396  42.398  -9.292  1.00  0.00     0.218 HD
ENDBRANCH  10  12
BRANCH   4  14
HETATM   14  C5          0      32.192  47.300  -6.352  1.00  0.00     0.025 C 
HETATM   15  C6          0      32.699  48.553  -6.037  1.00  0.00     0.004 C 
HETATM   16  C7          0      32.105  49.658  -6.637  1.00  0.00     0.026 C 
HETATM   17  C8          0      30.962  49.537  -7.419  1.00  0.00     0.112 C 
HETATM   18  C10         0      30.197  48.408  -7.158  1.00  0.00     0.112 C 
HETATM   19  C12         0      30.833  47.287  -6.637  1.00  0.00     0.028 C 
BRANCH  17  20
HETATM   20  O9          0      30.750  50.375  -8.500  1.00  0.00    -0.357 OA
HETATM   21  H9          0      31.186  51.212  -8.613  1.00  0.00     0.218 HD
ENDBRANCH  17  20
BRANCH  18  22
HETATM   22  O11         0      28.955  48.334  -7.772  1.00  0.00    -0.357 OA
HETATM   23  H11         0      28.204  48.195  -7.208  1.00  0.00     0.218 HD
ENDBRANCH  18  22
ENDBRANCH   4  14
BRANCH   8  24
HETATM   24  O17         0      38.284  45.875  -8.875  1.00  0.00    -0.359 OA
HETATM   25  H17         0      38.642  45.491  -9.667  1.00  0.00     0.218 HD
ENDBRANCH   8  24
TORSDOF 5
ENDMDL
MODEL 6
REMARK VINA RESULT:      -5.7      5.651      8.252
REMARK  5 active torsions:
REMARK  status: ('A' for Active; 'I' for Inactive)
REMARK    1  A    between atoms: C4_4  and  C5_5 
REMARK    2  A    between atoms: C8_8  and  O9_9 
REMARK    3  A    between atoms: C10_11  and  O11_12 
REMARK    4  A    between atoms: C16_18  and  O17_19 
REMARK    5  A    between atoms: C19_22  and  O20_23 
ROOT
HETATM    1  O1          0      28.071  47.442  -5.734  1.00  0.00    -0.286 OA
HETATM    2  C2          0      28.605  48.264  -6.529  1.00  0.00     0.201 C 
HETATM    3  C3          0      27.962  48.744  -7.657  1.00  0.00     0.067 C 
HETATM    4  C4          0      28.610  49.568  -8.570  1.00  0.00     0.103 C 
HETATM    5  O13         0      29.864  49.912  -8.336  1.00  0.00    -0.307 OA
HETATM    6  C14         0      30.532  49.455  -7.300  1.00  0.00     0.107 C 
HETATM    7  C15         0      31.919  49.476  -7.257  1.00  0.00     0.049 C 
HETATM    8  C16         0      32.622  48.770  -6.289  1.00  0.00     0.093 C 
HETATM    9  C18         0      31.916  48.514  -5.120  1.00  0.00     0.048 C 
HETATM   10  C19         0      30.528  48.531  -5.116  1.00  0.00     0.096 C 
HETATM   11  C21         0      29.850  48.817  -6.269  1.00  0.00     0.084 C 
ENDROOT
BRANCH  10  12
HETATM   12  O20         0      29.843  47.867  -4.104  1.00  0.00    -0.359 OA
HETATM   13  H20         0      29.948  46.925  -4.038  1.00  0.00     0.218 HD
ENDBRANCH  10  12
BRANCH   4  14
HETATM   14  C5          0      28.134  49.538  -9.954  1.00  0.00     0.025 C 
HETATM   15  C6          0      27.503  48.434 -10.509  1.00  0.00     0.004 C 
HETATM   16  C7          0      26.444  48.667 -11.381  1.00  0.00     0.026 C 
HETATM   17  C8          0      26.109  49.952 -11.794  1.00  0.00     0.112 C 
HETATM   18  C10         0      27.141  50.877 -11.708  1.00  0.00     0.112 C 
HETATM   19  C12         0      28.143  50.663 -10.769  1.00  0.00     0.028 C 
BRANCH  17  20
HETATM   20  O9          0      24.793  50.291 -12.056  1.00  0.00    -0.357 OA
HETATM   21  H9          0      24.527  51.126 -12.424  1.00  0.00     0.218 HD
ENDBRANCH  17  20
BRANCH  18  22
HETATM   22  O11         0      26.919  52.121 -12.281  1.00  0.00    -0.357 OA
HETATM   23  H11         0      26.383  52.731 -11.788  1.00  0.00     0.218 HD
ENDBRANCH  18  22
ENDBRANCH   4  14
BRANCH   8  24
HETATM   24  O17         0      33.804  48.087  -6.599  1.00  0.00    -0.359 OA
HETATM   25  H17         0      34.245  47.538  -5.962  1.00  0.00     0.218 HD
ENDBRANCH   8  24
TORSDOF 5
ENDMDL
MODEL 7
REMARK VINA RESULT:      -5.6      5.638      8.914
REMARK  5 active torsions:
REMARK  status: ('A' for Active; 'I' for Inactive)
REMARK    1  A    between atoms: C4_4  and  C5_5 
REMARK    2  A    between atoms: C8_8  and  O9_9 
REMARK    3  A    between atoms: C10_11  and  O11_12 
REMARK    4  A    between atoms: C16_18  and  O17_19 
REMARK    5  A    between atoms: C19_22  and  O20_23 
ROOT
HETATM    1  O1          0      27.901  49.983 -10.951  1.00  0.00    -0.286 OA
HETATM    2  C2          0      28.189  49.198 -10.006  1.00  0.00     0.201 C 
HETATM    3  C3          0      28.747  49.630  -8.815  1.00  0.00     0.067 C 
HETATM    4  C4          0      29.149  48.734  -7.832  1.00  0.00     0.103 C 
HETATM    5  O13         0      28.972  47.441  -8.040  1.00  0.00    -0.307 OA
HETATM    6  C14         0      28.481  46.975  -9.168  1.00  0.00     0.107 C 
HETATM    7  C15         0      28.660  45.654  -9.552  1.00  0.00     0.049 C 
HETATM    8  C16         0      28.368  45.233 -10.844  1.00  0.00     0.093 C 
HETATM    9  C18         0      27.434  46.011 -11.518  1.00  0.00     0.048 C 
HETATM   10  C19         0      27.197  47.322 -11.130  1.00  0.00     0.096 C 
HETATM   11  C21         0      27.875  47.848 -10.064  1.00  0.00     0.084 C 
ENDROOT
BRANCH  10  12
HETATM   12  O20         0      26.619  48.206 -12.036  1.00  0.00    -0.359 OA
HETATM   13  H20         0      25.768  47.983 -12.394  1.00  0.00     0.218 HD
ENDBRANCH  10  12
BRANCH   4  14
HETATM   14  C5          0      30.224  49.162  -6.934  1.00  0.00     0.025 C 
HETATM   15  C6          0      30.003  49.511  -5.610  1.00  0.00     0.004 C 
HETATM   16  C7          0      30.960  49.129  -4.675  1.00  0.00     0.026 C 
HETATM   17  C8          0      32.160  48.540  -5.058  1.00  0.00     0.112 C 
HETATM   18  C10         0      32.549  48.812  -6.363  1.00  0.00     0.112 C 
HETATM   19  C12         0      31.563  49.108  -7.297  1.00  0.00     0.028 C 
BRANCH  17  20
HETATM   20  O9          0      32.775  47.598  -4.254  1.00  0.00    -0.357 OA
HETATM   21  H9          0      32.813  46.671  -4.460  1.00  0.00     0.218 HD
ENDBRANCH  17  20
BRANCH  18  22
HETATM   22  O11         0      33.823  48.409  -6.736  1.00  0.00    -0.357 OA
HETATM   23  H11         0      34.437  49.092  -6.978  1.00  0.00     0.218 HD
ENDBRANCH  18  22
ENDBRANCH   4  14
BRANCH   8  24
HETATM   24  O17         0      29.189  44.321 -11.516  1.00  0.00    -0.359 OA
HETATM   25  H17         0      29.380  43.462 -11.157  1.00  0.00     0.218 HD
ENDBRANCH   8  24
TORSDOF 5
ENDMDL
MODEL 8
REMARK VINA RESULT:      -5.5      4.027      6.417
REMARK  5 active torsions:
REMARK  status: ('A' for Active; 'I' for Inactive)
REMARK    1  A    between atoms: C4_4  and  C5_5 
REMARK    2  A    between atoms: C8_8  and  O9_9 
REMARK    3  A    between atoms: C10_11  and  O11_12 
REMARK    4  A    between atoms: C16_18  and  O17_19 
REMARK    5  A    between atoms: C19_22  and  O20_23 
ROOT
HETATM    1  O1          0      34.422  46.582  -6.674  1.00  0.00    -0.286 OA
HETATM    2  C2          0      33.201  46.901  -6.683  1.00  0.00     0.201 C 
HETATM    3  C3          0      32.748  48.147  -6.286  1.00  0.00     0.067 C 
HETATM    4  C4          0      31.391  48.438  -6.208  1.00  0.00     0.103 C 
HETATM    5  O13         0      30.521  47.501  -6.541  1.00  0.00    -0.307 OA
HETATM    6  C14         0      30.897  46.290  -6.888  1.00  0.00     0.107 C 
HETATM    7  C15         0      30.022  45.213  -6.849  1.00  0.00     0.049 C 
HETATM    8  C16         0      30.479  43.907  -6.967  1.00  0.00     0.093 C 
HETATM    9  C18         0      31.690  43.767  -7.636  1.00  0.00     0.048 C 
HETATM   10  C19         0      32.569  44.837  -7.734  1.00  0.00     0.096 C 
HETATM   11  C21         0      32.233  46.044  -7.184  1.00  0.00     0.084 C 
ENDROOT
BRANCH  10  12
HETATM   12  O20         0      33.913  44.592  -7.999  1.00  0.00    -0.359 OA
HETATM   13  H20         0      34.560  45.029  -7.459  1.00  0.00     0.218 HD
ENDBRANCH  10  12
BRANCH   4  14
HETATM   14  C5          0      30.981  49.474  -5.257  1.00  0.00     0.025 C 
HETATM   15  C6          0      31.891  50.237  -4.539  1.00  0.00     0.004 C 
HETATM   16  C7          0      31.590  51.580  -4.340  1.00  0.00     0.026 C 
HETATM   17  C8          0      30.366  52.118  -4.725  1.00  0.00     0.112 C 
HETATM   18  C10         0      29.335  51.195  -4.833  1.00  0.00     0.112 C 
HETATM   19  C12         0      29.659  49.873  -5.116  1.00  0.00     0.028 C 
BRANCH  17  20
HETATM   20  O9          0      30.274  53.428  -5.162  1.00  0.00    -0.357 OA
HETATM   21  H9          0      31.027  53.978  -5.343  1.00  0.00     0.218 HD
ENDBRANCH  17  20
BRANCH  18  22
HETATM   22  O11         0      28.057  51.700  -5.027  1.00  0.00    -0.357 OA
HETATM   23  H11         0      27.466  51.180  -5.559  1.00  0.00     0.218 HD
ENDBRANCH  18  22
ENDBRANCH   4  14
BRANCH   8  24
HETATM   24  O17         0      29.945  42.873  -6.190  1.00  0.00    -0.359 OA
HETATM   25  H17         0      29.022  42.844  -5.965  1.00  0.00     0.218 HD
ENDBRANCH   8  24
TORSDOF 5
ENDMDL
MODEL 9
REMARK VINA RESULT:      -5.5      4.822      8.365
REMARK  5 active torsions:
REMARK  status: ('A' for Active; 'I' for Inactive)
REMARK    1  A    between atoms: C4_4  and  C5_5 
REMARK    2  A    between atoms: C8_8  and  O9_9 
REMARK    3  A    between atoms: C10_11  and  O11_12 
REMARK    4  A    between atoms: C16_18  and  O17_19 
REMARK    5  A    between atoms: C19_22  and  O20_23 
ROOT
HETATM    1  O1          0      29.263  48.302  -8.226  1.00  0.00    -0.286 OA
HETATM    2  C2          0      29.934  47.774  -7.298  1.00  0.00     0.201 C 
HETATM    3  C3          0      29.769  46.455  -6.909  1.00  0.00     0.067 C 
HETATM    4  C4          0      30.448  45.928  -5.816  1.00  0.00     0.103 C 
HETATM    5  O13         0      31.283  46.706  -5.152  1.00  0.00    -0.307 OA
HETATM    6  C14         0      31.449  47.975  -5.456  1.00  0.00     0.107 C 
HETATM    7  C15         0      31.991  48.878  -4.553  1.00  0.00     0.049 C 
HETATM    8  C16         0      31.930  50.248  -4.778  1.00  0.00     0.093 C 
HETATM    9  C18         0      31.808  50.619  -6.111  1.00  0.00     0.048 C 
HETATM   10  C19         0      31.313  49.724  -7.050  1.00  0.00     0.096 C 
HETATM   11  C21         0      30.958  48.461  -6.662  1.00  0.00     0.084 C 
ENDROOT
BRANCH  10  12
HETATM   12  O20         0      30.792  50.210  -8.245  1.00  0.00    -0.359 OA
HETATM   13  H20         0      31.359  50.733  -8.798  1.00  0.00     0.218 HD
ENDBRANCH  10  12
BRANCH   4  14
HETATM   14  C5          0      29.818  44.808  -5.114  1.00  0.00     0.025 C 
HETATM   15  C6          0      29.295  44.921  -3.834  1.00  0.00     0.004 C 
HETATM   16  C7          0      28.116  44.236  -3.556  1.00  0.00     0.026 C 
HETATM   17  C8          0      27.547  43.362  -4.475  1.00  0.00     0.112 C 
HETATM   18  C10         0      28.434  42.845  -5.411  1.00  0.00     0.112 C 
HETATM   19  C12         0      29.562  43.591  -5.733  1.00  0.00     0.028 C 
BRANCH  17  20
HETATM   20  O9          0      26.174  43.210  -4.553  1.00  0.00    -0.357 OA
HETATM   21  H9          0      25.711  42.433  -4.261  1.00  0.00     0.218 HD
ENDBRANCH  17  20
BRANCH  18  22
HETATM   22  O11         0      27.963  41.828  -6.229  1.00  0.00    -0.357 OA
HETATM   23  H11         0      27.947  40.953  -5.860  1.00  0.00     0.218 HD
ENDBRANCH  18  22
ENDBRANCH   4  14
BRANCH   8  24
HETATM   24  O17         0      31.670  51.147  -3.737  1.00  0.00    -0.359 OA
HETATM   25  H17         0      32.005  52.036  -3.751  1.00  0.00     0.218 HD
ENDBRANCH   8  24
TORSDOF 5
ENDMDL
