MODEL 1
REMARK VINA RESULT:      -4.7      0.000      0.000
REMARK  5 active torsions:
REMARK  status: ('A' for Active; 'I' for Inactive)
REMARK    1  A    between atoms: C4_4  and  C5_5 
REMARK    2  A    between atoms: C8_8  and  O9_9 
REMARK    3  A    between atoms: C10_11  and  O11_12 
REMARK    4  A    between atoms: C16_18  and  O17_19 
REMARK    5  A    between atoms: C19_22  and  O20_23 
ROOT
HETATM    1  O1          0      61.783  44.440 -10.842  1.00  0.00    -0.286 OA
HETATM    2  C2          0      62.605  45.043 -10.099  1.00  0.00     0.201 C 
HETATM    3  C3          0      63.746  44.440  -9.597  1.00  0.00     0.067 C 
HETATM    4  C4          0      64.580  45.094  -8.697  1.00  0.00     0.103 C 
HETATM    5  O13         0      64.278  46.328  -8.334  1.00  0.00    -0.307 OA
HETATM    6  C14         0      63.187  46.933  -8.751  1.00  0.00     0.107 C 
HETATM    7  C15         0      62.662  48.032  -8.087  1.00  0.00     0.049 C 
HETATM    8  C16         0      61.387  48.506  -8.373  1.00  0.00     0.093 C 
HETATM    9  C18         0      60.918  48.199  -9.645  1.00  0.00     0.048 C 
HETATM   10  C19         0      61.454  47.134 -10.356  1.00  0.00     0.096 C 
HETATM   11  C21         0      62.464  46.391  -9.808  1.00  0.00     0.084 C 
ENDROOT
BRANCH  10  12
HETATM   12  O20         0      60.719  46.570 -11.394  1.00  0.00    -0.359 OA
HETATM   13  H20         0      60.170  47.145 -11.914  1.00  0.00     0.218 HD
ENDBRANCH  10  12
BRANCH   4  14
HETATM   14  C5          0      65.362  44.261  -7.782  1.00  0.00     0.025 C 
HETATM   15  C6          0      66.125  44.789  -6.750  1.00  0.00     0.004 C 
HETATM   16  C7          0      66.152  44.092  -5.547  1.00  0.00     0.026 C 
HETATM   17  C8          0      65.553  42.844  -5.413  1.00  0.00     0.112 C 
HETATM   18  C10         0      65.391  42.148  -6.604  1.00  0.00     0.112 C 
HETATM   19  C12         0      65.281  42.875  -7.784  1.00  0.00     0.028 C 
BRANCH  17  20
HETATM   20  O9          0      64.986  42.455  -4.213  1.00  0.00    -0.357 OA
HETATM   21  H9          0      64.054  42.496  -4.031  1.00  0.00     0.218 HD
ENDBRANCH  17  20
BRANCH  18  22
HETATM   22  O11         0      64.974  40.828  -6.508  1.00  0.00    -0.357 OA
HETATM   23  H11         0      65.315  40.321  -5.781  1.00  0.00     0.218 HD
ENDBRANCH  18  22
ENDBRANCH   4  14
BRANCH   8  24
HETATM   24  O17         0      60.530  48.949  -7.360  1.00  0.00    -0.359 OA
HETATM   25  H17         0      60.034  49.755  -7.443  1.00  0.00     0.218 HD
ENDBRANCH   8  24
TORSDOF 5
ENDMDL
MODEL 2
REMARK VINA RESULT:      -4.5      5.407      6.306
REMARK  5 active torsions:
REMARK  status: ('A' for Active; 'I' for Inactive)
REMARK    1  A    between atoms: C4_4  and  C5_5 
REMARK    2  A    between atoms: C8_8  and  O9_9 
REMARK    3  A    between atoms: C10_11  and  O11_12 
REMARK    4  A    between atoms: C16_18  and  O17_19 
REMARK    5  A    between atoms: C19_22  and  O20_23 
ROOT
HETATM    1  O1          0      66.649  46.581  -6.398  1.00  0.00    -0.286 OA
HETATM    2  C2          0      67.026  46.634  -5.195  1.00  0.00     0.201 C 
HETATM    3  C3          0      67.459  45.521  -4.494  1.00  0.00     0.067 C 
HETATM    4  C4          0      67.770  45.589  -3.141  1.00  0.00     0.103 C 
HETATM    5  O13         0      67.667  46.752  -2.522  1.00  0.00    -0.307 OA
HETATM    6  C14         0      67.226  47.830  -3.132  1.00  0.00     0.107 C 
HETATM    7  C15         0      66.741  48.922  -2.426  1.00  0.00     0.049 C 
HETATM    8  C16         0      66.046  49.943  -3.063  1.00  0.00     0.093 C 
HETATM    9  C18         0      66.325  50.086  -4.417  1.00  0.00     0.048 C 
HETATM   10  C19         0      66.855  49.028  -5.144  1.00  0.00     0.096 C 
HETATM   11  C21         0      67.121  47.841  -4.518  1.00  0.00     0.084 C 
ENDROOT
BRANCH  10  12
HETATM   12  O20         0      66.723  49.021  -6.529  1.00  0.00    -0.359 OA
HETATM   13  H20         0      66.682  48.180  -6.968  1.00  0.00     0.218 HD
ENDBRANCH  10  12
BRANCH   4  14
HETATM   14  C5          0      67.626  44.359  -2.358  1.00  0.00     0.025 C 
HETATM   15  C6          0      67.003  44.325  -1.119  1.00  0.00     0.004 C 
HETATM   16  C7          0      66.212  43.219  -0.826  1.00  0.00     0.026 C 
HETATM   17  C8          0      66.149  42.121  -1.677  1.00  0.00     0.112 C 
HETATM   18  C10         0      67.245  41.975  -2.517  1.00  0.00     0.112 C 
HETATM   19  C12         0      67.967  43.111  -2.863  1.00  0.00     0.028 C 
BRANCH  17  20
HETATM   20  O9          0      64.985  41.384  -1.798  1.00  0.00    -0.357 OA
HETATM   21  H9          0      64.591  41.153  -2.631  1.00  0.00     0.218 HD
ENDBRANCH  17  20
BRANCH  18  22
HETATM   22  O11         0      67.323  40.799  -3.250  1.00  0.00    -0.357 OA
HETATM   23  H11         0      66.572  40.219  -3.212  1.00  0.00     0.218 HD
ENDBRANCH  18  22
ENDBRANCH   4  14
BRANCH   8  24
HETATM   24  O17         0      64.926  50.540  -2.475  1.00  0.00    -0.359 OA
HETATM   25  H17         0      64.116  50.664  -2.956  1.00  0.00     0.218 HD
ENDBRANCH   8  24
TORSDOF 5
ENDMDL
MODEL 3
REMARK VINA RESULT:      -4.4      2.194      2.943
REMARK  5 active torsions:
REMARK  status: ('A' for Active; 'I' for Inactive)
REMARK    1  A    between atoms: C4_4  and  C5_5 
REMARK    2  A    between atoms: C8_8  and  O9_9 
REMARK    3  A    between atoms: C10_11  and  O11_12 
REMARK    4  A    between atoms: C16_18  and  O17_19 
REMARK    5  A    between atoms: C19_22  and  O20_23 
ROOT
HETATM    1  O1          0      62.128  46.952  -8.109  1.00  0.00    -0.286 OA
HETATM    2  C2          0      63.356  46.972  -7.821  1.00  0.00     0.201 C 
HETATM    3  C3          0      64.138  45.830  -7.789  1.00  0.00     0.067 C 
HETATM    4  C4          0      65.462  45.865  -7.369  1.00  0.00     0.103 C 
HETATM    5  O13         0      65.984  47.025  -7.012  1.00  0.00    -0.307 OA
HETATM    6  C14         0      65.276  48.133  -6.988  1.00  0.00     0.107 C 
HETATM    7  C15         0      65.676  49.241  -6.256  1.00  0.00     0.049 C 
HETATM    8  C16         0      64.813  50.305  -6.027  1.00  0.00     0.093 C 
HETATM    9  C18         0      63.796  50.448  -6.963  1.00  0.00     0.048 C 
HETATM   10  C19         0      63.401  49.371  -7.745  1.00  0.00     0.096 C 
HETATM   11  C21         0      64.030  48.164  -7.606  1.00  0.00     0.084 C 
ENDROOT
BRANCH  10  12
HETATM   12  O20         0      62.143  49.386  -8.339  1.00  0.00    -0.359 OA
HETATM   13  H20         0      61.455  48.870  -7.937  1.00  0.00     0.218 HD
ENDBRANCH  10  12
BRANCH   4  14
HETATM   14  C5          0      66.016  44.637  -6.795  1.00  0.00     0.025 C 
HETATM   15  C6          0      67.011  44.641  -5.828  1.00  0.00     0.004 C 
HETATM   16  C7          0      66.930  43.689  -4.816  1.00  0.00     0.026 C 
HETATM   17  C8          0      65.970  42.683  -4.837  1.00  0.00     0.112 C 
HETATM   18  C10         0      65.467  42.386  -6.097  1.00  0.00     0.112 C 
HETATM   19  C12         0      65.483  43.383  -7.065  1.00  0.00     0.028 C 
BRANCH  17  20
HETATM   20  O9          0      65.432  42.192  -3.660  1.00  0.00    -0.357 OA
HETATM   21  H9          0      64.884  42.704  -3.076  1.00  0.00     0.218 HD
ENDBRANCH  17  20
BRANCH  18  22
HETATM   22  O11         0      64.651  41.269  -6.201  1.00  0.00    -0.357 OA
HETATM   23  H11         0      64.927  40.490  -5.732  1.00  0.00     0.218 HD
ENDBRANCH  18  22
ENDBRANCH   4  14
BRANCH   8  24
HETATM   24  O17         0      64.770  50.956  -4.789  1.00  0.00    -0.359 OA
HETATM   25  H17         0      64.342  51.797  -4.681  1.00  0.00     0.218 HD
ENDBRANCH   8  24
TORSDOF 5
ENDMDL
MODEL 4
REMARK VINA RESULT:      -4.2      2.213      3.758
REMARK  5 active torsions:
REMARK  status: ('A' for Active; 'I' for Inactive)
REMARK    1  A    between atoms: C4_4  and  C5_5 
REMARK    2  A    between atoms: C8_8  and  O9_9 
REMARK    3  A    between atoms: C10_11  and  O11_12 
REMARK    4  A    between atoms: C16_18  and  O17_19 
REMARK    5  A    between atoms: C19_22  and  O20_23 
ROOT
HETATM    1  O1          0      64.365  41.806  -8.301  1.00  0.00    -0.286 OA
HETATM    2  C2          0      64.985  42.729  -7.704  1.00  0.00     0.201 C 
HETATM    3  C3          0      65.939  42.485  -6.731  1.00  0.00     0.067 C 
HETATM    4  C4          0      66.532  43.519  -6.016  1.00  0.00     0.103 C 
HETATM    5  O13         0      66.185  44.764  -6.295  1.00  0.00    -0.307 OA
HETATM    6  C14         0      65.258  45.049  -7.183  1.00  0.00     0.107 C 
HETATM    7  C15         0      64.613  46.277  -7.198  1.00  0.00     0.049 C 
HETATM    8  C16         0      63.471  46.483  -7.962  1.00  0.00     0.093 C 
HETATM    9  C18         0      63.337  45.638  -9.057  1.00  0.00     0.048 C 
HETATM   10  C19         0      64.006  44.422  -9.096  1.00  0.00     0.096 C 
HETATM   11  C21         0      64.816  44.060  -8.055  1.00  0.00     0.084 C 
ENDROOT
BRANCH  10  12
HETATM   12  O20         0      63.546  43.420  -9.945  1.00  0.00    -0.359 OA
HETATM   13  H20         0      63.996  42.584  -9.931  1.00  0.00     0.218 HD
ENDBRANCH  10  12
BRANCH   4  14
HETATM   14  C5          0      67.025  43.209  -4.673  1.00  0.00     0.025 C 
HETATM   15  C6          0      67.957  43.997  -4.013  1.00  0.00     0.004 C 
HETATM   16  C7          0      67.794  44.178  -2.644  1.00  0.00     0.026 C 
HETATM   17  C8          0      66.819  43.492  -1.928  1.00  0.00     0.112 C 
HETATM   18  C10         0      66.391  42.310  -2.518  1.00  0.00     0.112 C 
HETATM   19  C12         0      66.486  42.189  -3.899  1.00  0.00     0.028 C 
BRANCH  17  20
HETATM   20  O9          0      66.199  44.074  -0.837  1.00  0.00    -0.357 OA
HETATM   21  H9          0      66.451  44.915  -0.473  1.00  0.00     0.218 HD
ENDBRANCH  17  20
BRANCH  18  22
HETATM   22  O11         0      65.562  41.494  -1.761  1.00  0.00    -0.357 OA
HETATM   23  H11         0      65.821  41.335  -0.861  1.00  0.00     0.218 HD
ENDBRANCH  18  22
ENDBRANCH   4  14
BRANCH   8  24
HETATM   24  O17         0      62.395  47.235  -7.478  1.00  0.00    -0.359 OA
HETATM   25  H17         0      62.520  48.096  -7.096  1.00  0.00     0.218 HD
ENDBRANCH   8  24
TORSDOF 5
ENDMDL
MODEL 5
REMARK VINA RESULT:      -4.2      4.184      5.241
REMARK  5 active torsions:
REMARK  status: ('A' for Active; 'I' for Inactive)
REMARK    1  A    between atoms: C4_4  and  C5_5 
REMARK    2  A    between atoms: C8_8  and  O9_9 
REMARK    3  A    between atoms: C10_11  and  O11_12 
REMARK    4  A    between atoms: C16_18  and  O17_19 
REMARK    5  A    between atoms: C19_22  and  O20_23 
ROOT
HETATM    1  O1          0      65.703  47.844  -7.624  1.00  0.00    -0.286 OA
HETATM    2  C2          0      66.308  47.520  -6.565  1.00  0.00     0.201 C 
HETATM    3  C3          0      66.791  46.243  -6.336  1.00  0.00     0.067 C 
HETATM    4  C4          0      67.362  45.887  -5.120  1.00  0.00     0.103 C 
HETATM    5  O13         0      67.459  46.803  -4.172  1.00  0.00    -0.307 OA
HETATM    6  C14         0      66.983  48.019  -4.323  1.00  0.00     0.107 C 
HETATM    7  C15         0      66.718  48.841  -3.237  1.00  0.00     0.049 C 
HETATM    8  C16         0      65.985  50.013  -3.381  1.00  0.00     0.093 C 
HETATM    9  C18         0      66.006  50.566  -4.655  1.00  0.00     0.048 C 
HETATM   10  C19         0      66.312  49.782  -5.760  1.00  0.00     0.096 C 
HETATM   11  C21         0      66.613  48.458  -5.590  1.00  0.00     0.084 C 
ENDROOT
BRANCH  10  12
HETATM   12  O20         0      65.915  50.204  -7.025  1.00  0.00    -0.359 OA
HETATM   13  H20         0      65.713  51.124  -7.144  1.00  0.00     0.218 HD
ENDBRANCH  10  12
BRANCH   4  14
HETATM   14  C5          0      67.288  44.477  -4.732  1.00  0.00     0.025 C 
HETATM   15  C6          0      67.869  43.985  -3.573  1.00  0.00     0.004 C 
HETATM   16  C7          0      67.174  43.006  -2.870  1.00  0.00     0.026 C 
HETATM   17  C8          0      66.007  42.438  -3.370  1.00  0.00     0.112 C 
HETATM   18  C10         0      65.869  42.518  -4.750  1.00  0.00     0.112 C 
HETATM   19  C12         0      66.506  43.557  -5.418  1.00  0.00     0.028 C 
BRANCH  17  20
HETATM   20  O9          0      64.996  42.029  -2.519  1.00  0.00    -0.357 OA
HETATM   21  H9          0      64.357  41.361  -2.741  1.00  0.00     0.218 HD
ENDBRANCH  17  20
BRANCH  18  22
HETATM   22  O11         0      64.823  41.805  -5.319  1.00  0.00    -0.357 OA
HETATM   23  H11         0      64.157  42.309  -5.772  1.00  0.00     0.218 HD
ENDBRANCH  18  22
ENDBRANCH   4  14
BRANCH   8  24
HETATM   24  O17         0      65.042  50.405  -2.424  1.00  0.00    -0.359 OA
HETATM   25  H17         0      64.398  49.797  -2.080  1.00  0.00     0.218 HD
ENDBRANCH   8  24
TORSDOF 5
ENDMDL
MODEL 6
REMARK VINA RESULT:      -4.2      1.826      6.677
REMARK  5 active torsions:
REMARK  status: ('A' for Active; 'I' for Inactive)
REMARK    1  A    between atoms: C4_4  and  C5_5 
REMARK    2  A    between atoms: C8_8  and  O9_9 
REMARK    3  A    between atoms: C10_11  and  O11_12 
REMARK    4  A    between atoms: C16_18  and  O17_19 
REMARK    5  A    between atoms: C19_22  and  O20_23 
ROOT
HETATM    1  O1          0      65.406  41.245  -9.440  1.00  0.00    -0.286 OA
HETATM    2  C2          0      65.159  42.141  -8.587  1.00  0.00     0.201 C 
HETATM    3  C3          0      64.289  43.190  -8.832  1.00  0.00     0.067 C 
HETATM    4  C4          0      64.113  44.220  -7.915  1.00  0.00     0.103 C 
HETATM    5  O13         0      64.781  44.176  -6.775  1.00  0.00    -0.307 OA
HETATM    6  C14         0      65.646  43.223  -6.509  1.00  0.00     0.107 C 
HETATM    7  C15         0      66.621  43.373  -5.533  1.00  0.00     0.049 C 
HETATM    8  C16         0      67.682  42.481  -5.429  1.00  0.00     0.093 C 
HETATM    9  C18         0      67.437  41.215  -5.948  1.00  0.00     0.048 C 
HETATM   10  C19         0      66.437  41.021  -6.892  1.00  0.00     0.096 C 
HETATM   11  C21         0      65.675  42.081  -7.302  1.00  0.00     0.084 C 
ENDROOT
BRANCH  10  12
HETATM   12  O20         0      66.482  39.895  -7.708  1.00  0.00    -0.359 OA
HETATM   13  H20         0      66.973  39.142  -7.402  1.00  0.00     0.218 HD
ENDBRANCH  10  12
BRANCH   4  14
HETATM   14  C5          0      63.701  45.523  -8.441  1.00  0.00     0.025 C 
HETATM   15  C6          0      63.560  45.775  -9.798  1.00  0.00     0.004 C 
HETATM   16  C7          0      62.504  46.589 -10.196  1.00  0.00     0.026 C 
HETATM   17  C8          0      61.695  47.239  -9.270  1.00  0.00     0.112 C 
HETATM   18  C10         0      62.281  47.437  -8.026  1.00  0.00     0.112 C 
HETATM   19  C12         0      63.276  46.557  -7.618  1.00  0.00     0.028 C 
BRANCH  17  20
HETATM   20  O9          0      60.355  47.461  -9.532  1.00  0.00    -0.357 OA
HETATM   21  H9          0      59.741  47.801  -8.891  1.00  0.00     0.218 HD
ENDBRANCH  17  20
BRANCH  18  22
HETATM   22  O11         0      61.594  48.243  -7.130  1.00  0.00    -0.357 OA
HETATM   23  H11         0      61.890  49.142  -7.045  1.00  0.00     0.218 HD
ENDBRANCH  18  22
ENDBRANCH   4  14
BRANCH   8  24
HETATM   24  O17         0      68.979  42.920  -5.142  1.00  0.00    -0.359 OA
HETATM   25  H17         0      69.734  42.589  -5.615  1.00  0.00     0.218 HD
ENDBRANCH   8  24
TORSDOF 5
ENDMDL
MODEL 7
REMARK VINA RESULT:      -4.1      7.107      7.580
REMARK  5 active torsions:
REMARK  status: ('A' for Active; 'I' for Inactive)
REMARK    1  A    between atoms: C4_4  and  C5_5 
REMARK    2  A    between atoms: C8_8  and  O9_9 
REMARK    3  A    between atoms: C10_11  and  O11_12 
REMARK    4  A    between atoms: C16_18  and  O17_19 
REMARK    5  A    between atoms: C19_22  and  O20_23 
ROOT
HETATM    1  O1          0      69.346  47.058  -4.873  1.00  0.00    -0.286 OA
HETATM    2  C2          0      68.846  46.912  -3.724  1.00  0.00     0.201 C 
HETATM    3  C3          0      68.831  45.697  -3.060  1.00  0.00     0.067 C 
HETATM    4  C4          0      68.184  45.541  -1.840  1.00  0.00     0.103 C 
HETATM    5  O13         0      67.589  46.589  -1.298  1.00  0.00    -0.307 OA
HETATM    6  C14         0      67.542  47.756  -1.903  1.00  0.00     0.107 C 
HETATM    7  C15         0      66.609  48.722  -1.556  1.00  0.00     0.049 C 
HETATM    8  C16         0      66.395  49.839  -2.354  1.00  0.00     0.093 C 
HETATM    9  C18         0      67.467  50.197  -3.162  1.00  0.00     0.048 C 
HETATM   10  C19         0      68.444  49.268  -3.492  1.00  0.00     0.096 C 
HETATM   11  C21         0      68.359  47.992  -3.003  1.00  0.00     0.084 C 
ENDROOT
BRANCH  10  12
HETATM   12  O20         0      69.242  49.486  -4.611  1.00  0.00    -0.359 OA
HETATM   13  H20         0      70.012  48.942  -4.721  1.00  0.00     0.218 HD
ENDBRANCH  10  12
BRANCH   4  14
HETATM   14  C5          0      67.692  44.203  -1.509  1.00  0.00     0.025 C 
HETATM   15  C6          0      66.794  43.965  -0.478  1.00  0.00     0.004 C 
HETATM   16  C7          0      65.813  43.001  -0.687  1.00  0.00     0.026 C 
HETATM   17  C8          0      65.803  42.205  -1.828  1.00  0.00     0.112 C 
HETATM   18  C10         0      67.036  42.073  -2.452  1.00  0.00     0.112 C 
HETATM   19  C12         0      67.968  43.092  -2.296  1.00  0.00     0.028 C 
BRANCH  17  20
HETATM   20  O9          0      64.611  41.775  -2.382  1.00  0.00    -0.357 OA
HETATM   21  H9          0      63.856  41.509  -1.870  1.00  0.00     0.218 HD
ENDBRANCH  17  20
BRANCH  18  22
HETATM   22  O11         0      67.124  41.144  -3.479  1.00  0.00    -0.357 OA
HETATM   23  H11         0      67.946  41.104  -3.954  1.00  0.00     0.218 HD
ENDBRANCH  18  22
ENDBRANCH   4  14
BRANCH   8  24
HETATM   24  O17         0      65.108  50.342  -2.574  1.00  0.00    -0.359 OA
HETATM   25  H17         0      64.941  51.025  -3.214  1.00  0.00     0.218 HD
ENDBRANCH   8  24
TORSDOF 5
ENDMDL
MODEL 8
REMARK VINA RESULT:      -4.0      1.944      6.728
REMARK  5 active torsions:
REMARK  status: ('A' for Active; 'I' for Inactive)
REMARK    1  A    between atoms: C4_4  and  C5_5 
REMARK    2  A    between atoms: C8_8  and  O9_9 
REMARK    3  A    between atoms: C10_11  and  O11_12 
REMARK    4  A    between atoms: C16_18  and  O17_19 
REMARK    5  A    between atoms: C19_22  and  O20_23 
ROOT
HETATM    1  O1          0      68.202  45.662  -6.238  1.00  0.00    -0.286 OA
HETATM    2  C2          0      67.265  45.405  -7.043  1.00  0.00     0.201 C 
HETATM    3  C3          0      66.574  46.389  -7.730  1.00  0.00     0.067 C 
HETATM    4  C4          0      65.479  46.087  -8.531  1.00  0.00     0.103 C 
HETATM    5  O13         0      65.109  44.824  -8.650  1.00  0.00    -0.307 OA
HETATM    6  C14         0      65.707  43.856  -7.991  1.00  0.00     0.107 C 
HETATM    7  C15         0      65.099  42.624  -7.792  1.00  0.00     0.049 C 
HETATM    8  C16         0      65.616  41.702  -6.889  1.00  0.00     0.093 C 
HETATM    9  C18         0      66.975  41.834  -6.629  1.00  0.00     0.048 C 
HETATM   10  C19         0      67.624  43.038  -6.861  1.00  0.00     0.096 C 
HETATM   11  C21         0      66.925  44.100  -7.367  1.00  0.00     0.084 C 
ENDROOT
BRANCH  10  12
HETATM   12  O20         0      68.827  43.299  -6.213  1.00  0.00    -0.359 OA
HETATM   13  H20         0      69.577  42.759  -6.432  1.00  0.00     0.218 HD
ENDBRANCH  10  12
BRANCH   4  14
HETATM   14  C5          0      64.475  47.136  -8.717  1.00  0.00     0.025 C 
HETATM   15  C6          0      63.335  46.958  -9.487  1.00  0.00     0.004 C 
HETATM   16  C7          0      62.153  47.531  -9.029  1.00  0.00     0.026 C 
HETATM   17  C8          0      62.129  48.366  -7.918  1.00  0.00     0.112 C 
HETATM   18  C10         0      63.343  48.973  -7.623  1.00  0.00     0.112 C 
HETATM   19  C12         0      64.513  48.335  -8.017  1.00  0.00     0.028 C 
BRANCH  17  20
HETATM   20  O9          0      61.031  48.398  -7.077  1.00  0.00    -0.357 OA
HETATM   21  H9          0      60.246  47.880  -7.215  1.00  0.00     0.218 HD
ENDBRANCH  17  20
BRANCH  18  22
HETATM   22  O11         0      63.332  49.957  -6.645  1.00  0.00    -0.357 OA
HETATM   23  H11         0      62.482  50.249  -6.338  1.00  0.00     0.218 HD
ENDBRANCH  18  22
ENDBRANCH   4  14
BRANCH   8  24
HETATM   24  O17         0      64.779  40.940  -6.066  1.00  0.00    -0.359 OA
HETATM   25  H17         0      63.912  41.241  -5.821  1.00  0.00     0.218 HD
ENDBRANCH   8  24
TORSDOF 5
ENDMDL
MODEL 9
REMARK VINA RESULT:      -3.9      4.669      6.949
REMARK  5 active torsions:
REMARK  status: ('A' for Active; 'I' for Inactive)
REMARK    1  A    between atoms: C4_4  and  C5_5 
REMARK    2  A    between atoms: C8_8  and  O9_9 
REMARK    3  A    between atoms: C10_11  and  O11_12 
REMARK    4  A    between atoms: C16_18  and  O17_19 
REMARK    5  A    between atoms: C19_22  and  O20_23 
ROOT
HETATM    1  O1          0      69.865  48.579  -5.299  1.00  0.00    -0.286 OA
HETATM    2  C2          0      69.105  47.858  -4.596  1.00  0.00     0.201 C 
HETATM    3  C3          0      68.979  46.492  -4.785  1.00  0.00     0.067 C 
HETATM    4  C4          0      68.058  45.739  -4.066  1.00  0.00     0.103 C 
HETATM    5  O13         0      67.304  46.347  -3.167  1.00  0.00    -0.307 OA
HETATM    6  C14         0      67.357  47.647  -2.974  1.00  0.00     0.107 C 
HETATM    7  C15         0      66.327  48.336  -2.351  1.00  0.00     0.049 C 
HETATM    8  C16         0      66.268  49.724  -2.376  1.00  0.00     0.093 C 
HETATM    9  C18         0      67.490  50.360  -2.560  1.00  0.00     0.048 C 
HETATM   10  C19         0      68.557  49.685  -3.138  1.00  0.00     0.096 C 
HETATM   11  C21         0      68.409  48.378  -3.515  1.00  0.00     0.084 C 
ENDROOT
BRANCH  10  12
HETATM   12  O20         0      69.595  50.415  -3.708  1.00  0.00    -0.359 OA
HETATM   13  H20         0      69.505  51.360  -3.750  1.00  0.00     0.218 HD
ENDBRANCH  10  12
BRANCH   4  14
HETATM   14  C5          0      67.558  44.515  -4.694  1.00  0.00     0.025 C 
HETATM   15  C6          0      67.803  43.250  -4.179  1.00  0.00     0.004 C 
HETATM   16  C7          0      66.776  42.315  -4.249  1.00  0.00     0.026 C 
HETATM   17  C8          0      65.592  42.582  -4.928  1.00  0.00     0.112 C 
HETATM   18  C10         0      65.692  43.563  -5.906  1.00  0.00     0.112 C 
HETATM   19  C12         0      66.675  44.536  -5.766  1.00  0.00     0.028 C 
BRANCH  17  20
HETATM   20  O9          0      64.391  42.050  -4.494  1.00  0.00    -0.357 OA
HETATM   21  H9          0      63.547  42.461  -4.642  1.00  0.00     0.218 HD
ENDBRANCH  17  20
BRANCH  18  22
HETATM   22  O11         0      64.596  43.735  -6.738  1.00  0.00    -0.357 OA
HETATM   23  H11         0      64.505  44.582  -7.160  1.00  0.00     0.218 HD
ENDBRANCH  18  22
ENDBRANCH   4  14
BRANCH   8  24
HETATM   24  O17         0      65.055  50.399  -2.545  1.00  0.00    -0.359 OA
HETATM   25  H17         0      64.243  49.934  -2.708  1.00  0.00     0.218 HD
ENDBRANCH   8  24
TORSDOF 5
ENDMDL
