MODEL 1
REMARK VINA RESULT:      -6.1      0.000      0.000
REMARK  5 active torsions:
REMARK  status: ('A' for Active; 'I' for Inactive)
REMARK    1  A    between atoms: C4_4  and  C5_5 
REMARK    2  A    between atoms: C8_8  and  O9_9 
REMARK    3  A    between atoms: C10_11  and  O11_12 
REMARK    4  A    between atoms: C16_18  and  O17_19 
REMARK    5  A    between atoms: C19_22  and  O20_23 
ROOT
HETATM    1  O1          0      44.273  72.432 -14.124  1.00  0.00    -0.286 OA
HETATM    2  C2          0      45.230  72.505 -14.942  1.00  0.00     0.201 C 
HETATM    3  C3          0      46.402  73.190 -14.668  1.00  0.00     0.067 C 
HETATM    4  C4          0      47.398  73.341 -15.625  1.00  0.00     0.103 C 
HETATM    5  O13         0      47.222  72.798 -16.816  1.00  0.00    -0.307 OA
HETATM    6  C14         0      46.113  72.170 -17.141  1.00  0.00     0.107 C 
HETATM    7  C15         0      45.755  71.956 -18.464  1.00  0.00     0.049 C 
HETATM    8  C16         0      44.478  71.527 -18.806  1.00  0.00     0.093 C 
HETATM    9  C18         0      43.802  70.840 -17.806  1.00  0.00     0.048 C 
HETATM   10  C19         0      44.165  70.995 -16.474  1.00  0.00     0.096 C 
HETATM   11  C21         0      45.207  71.818 -16.146  1.00  0.00     0.084 C 
ENDROOT
BRANCH  10  12
HETATM   12  O20         0      43.249  70.673 -15.478  1.00  0.00    -0.359 OA
HETATM   13  H20         0      42.840  71.386 -15.002  1.00  0.00     0.218 HD
ENDBRANCH  10  12
BRANCH   4  14
HETATM   14  C5          0      48.268  74.513 -15.507  1.00  0.00     0.025 C 
HETATM   15  C6          0      49.014  75.006 -16.567  1.00  0.00     0.004 C 
HETATM   16  C7          0      49.129  76.387 -16.688  1.00  0.00     0.026 C 
HETATM   17  C8          0      48.634  77.248 -15.714  1.00  0.00     0.112 C 
HETATM   18  C10         0      48.495  76.680 -14.455  1.00  0.00     0.112 C 
HETATM   19  C12         0      48.296  75.307 -14.367  1.00  0.00     0.028 C 
BRANCH  17  20
HETATM   20  O9          0      48.132  78.491 -16.056  1.00  0.00    -0.357 OA
HETATM   21  H9          0      47.437  78.624 -16.691  1.00  0.00     0.218 HD
ENDBRANCH  17  20
BRANCH  18  22
HETATM   22  O11         0      48.186  77.538 -13.409  1.00  0.00    -0.357 OA
HETATM   23  H11         0      47.875  78.405 -13.642  1.00  0.00     0.218 HD
ENDBRANCH  18  22
ENDBRANCH   4  14
BRANCH   8  24
HETATM   24  O17         0      43.813  72.038 -19.926  1.00  0.00    -0.359 OA
HETATM   25  H17         0      43.346  71.473 -20.530  1.00  0.00     0.218 HD
ENDBRANCH   8  24
TORSDOF 5
ENDMDL
MODEL 2
REMARK VINA RESULT:      -5.8      2.671      5.689
REMARK  5 active torsions:
REMARK  status: ('A' for Active; 'I' for Inactive)
REMARK    1  A    between atoms: C4_4  and  C5_5 
REMARK    2  A    between atoms: C8_8  and  O9_9 
REMARK    3  A    between atoms: C10_11  and  O11_12 
REMARK    4  A    between atoms: C16_18  and  O17_19 
REMARK    5  A    between atoms: C19_22  and  O20_23 
ROOT
HETATM    1  O1          0      49.626  75.272 -17.649  1.00  0.00    -0.286 OA
HETATM    2  C2          0      48.474  74.785 -17.813  1.00  0.00     0.201 C 
HETATM    3  C3          0      47.655  74.422 -16.757  1.00  0.00     0.067 C 
HETATM    4  C4          0      46.433  73.793 -16.966  1.00  0.00     0.103 C 
HETATM    5  O13         0      46.044  73.558 -18.206  1.00  0.00    -0.307 OA
HETATM    6  C14         0      46.799  73.848 -19.243  1.00  0.00     0.107 C 
HETATM    7  C15         0      46.595  73.261 -20.483  1.00  0.00     0.049 C 
HETATM    8  C16         0      47.538  73.371 -21.498  1.00  0.00     0.093 C 
HETATM    9  C18         0      48.373  74.479 -21.405  1.00  0.00     0.048 C 
HETATM   10  C19         0      48.563  75.119 -20.188  1.00  0.00     0.096 C 
HETATM   11  C21         0      47.910  74.667 -19.074  1.00  0.00     0.084 C 
ENDROOT
BRANCH  10  12
HETATM   12  O20         0      49.691  75.914 -20.007  1.00  0.00    -0.359 OA
HETATM   13  H20         0      49.995  76.059 -19.119  1.00  0.00     0.218 HD
ENDBRANCH  10  12
BRANCH   4  14
HETATM   14  C5          0      45.933  72.929 -15.895  1.00  0.00     0.025 C 
HETATM   15  C6          0      46.235  73.138 -14.557  1.00  0.00     0.004 C 
HETATM   16  C7          0      45.229  72.904 -13.625  1.00  0.00     0.026 C 
HETATM   17  C8          0      44.007  72.351 -13.994  1.00  0.00     0.112 C 
HETATM   18  C10         0      44.036  71.614 -15.170  1.00  0.00     0.112 C 
HETATM   19  C12         0      45.000  71.926 -16.122  1.00  0.00     0.028 C 
BRANCH  17  20
HETATM   20  O9          0      42.842  72.705 -13.338  1.00  0.00    -0.357 OA
HETATM   21  H9          0      42.748  73.495 -12.818  1.00  0.00     0.218 HD
ENDBRANCH  17  20
BRANCH  18  22
HETATM   22  O11         0      42.897  70.887 -15.484  1.00  0.00    -0.357 OA
HETATM   23  H11         0      42.094  71.133 -15.040  1.00  0.00     0.218 HD
ENDBRANCH  18  22
ENDBRANCH   4  14
BRANCH   8  24
HETATM   24  O17         0      47.839  72.291 -22.334  1.00  0.00    -0.359 OA
HETATM   25  H17         0      47.211  71.598 -22.501  1.00  0.00     0.218 HD
ENDBRANCH   8  24
TORSDOF 5
ENDMDL
MODEL 3
REMARK VINA RESULT:      -5.8      2.844      5.341
REMARK  5 active torsions:
REMARK  status: ('A' for Active; 'I' for Inactive)
REMARK    1  A    between atoms: C4_4  and  C5_5 
REMARK    2  A    between atoms: C8_8  and  O9_9 
REMARK    3  A    between atoms: C10_11  and  O11_12 
REMARK    4  A    between atoms: C16_18  and  O17_19 
REMARK    5  A    between atoms: C19_22  and  O20_23 
ROOT
HETATM    1  O1          0      47.713  75.174 -19.422  1.00  0.00    -0.286 OA
HETATM    2  C2          0      46.999  74.158 -19.201  1.00  0.00     0.201 C 
HETATM    3  C3          0      46.376  73.928 -17.986  1.00  0.00     0.067 C 
HETATM    4  C4          0      45.680  72.751 -17.735  1.00  0.00     0.103 C 
HETATM    5  O13         0      45.599  71.845 -18.693  1.00  0.00    -0.307 OA
HETATM    6  C14         0      46.203  71.997 -19.851  1.00  0.00     0.107 C 
HETATM    7  C15         0      46.461  70.920 -20.688  1.00  0.00     0.049 C 
HETATM    8  C16         0      47.314  71.041 -21.777  1.00  0.00     0.093 C 
HETATM    9  C18         0      47.448  72.330 -22.278  1.00  0.00     0.048 C 
HETATM   10  C19         0      47.153  73.430 -21.483  1.00  0.00     0.096 C 
HETATM   11  C21         0      46.712  73.242 -20.202  1.00  0.00     0.084 C 
ENDROOT
BRANCH  10  12
HETATM   12  O20         0      47.688  74.671 -21.814  1.00  0.00    -0.359 OA
HETATM   13  H20         0      47.095  75.411 -21.867  1.00  0.00     0.218 HD
ENDBRANCH  10  12
BRANCH   4  14
HETATM   14  C5          0      45.584  72.314 -16.341  1.00  0.00     0.025 C 
HETATM   15  C6          0      46.603  72.509 -15.420  1.00  0.00     0.004 C 
HETATM   16  C7          0      46.240  72.840 -14.118  1.00  0.00     0.026 C 
HETATM   17  C8          0      44.911  72.847 -13.711  1.00  0.00     0.112 C 
HETATM   18  C10         0      44.066  72.052 -14.475  1.00  0.00     0.112 C 
HETATM   19  C12         0      44.410  71.807 -15.799  1.00  0.00     0.028 C 
BRANCH  17  20
HETATM   20  O9          0      44.466  73.744 -12.757  1.00  0.00    -0.357 OA
HETATM   21  H9          0      44.108  73.486 -11.915  1.00  0.00     0.218 HD
ENDBRANCH  17  20
BRANCH  18  22
HETATM   22  O11         0      42.774  71.873 -14.002  1.00  0.00    -0.357 OA
HETATM   23  H11         0      42.309  71.101 -14.304  1.00  0.00     0.218 HD
ENDBRANCH  18  22
ENDBRANCH   4  14
BRANCH   8  24
HETATM   24  O17         0      48.213  70.023 -22.116  1.00  0.00    -0.359 OA
HETATM   25  H17         0      48.095  69.131 -21.812  1.00  0.00     0.218 HD
ENDBRANCH   8  24
TORSDOF 5
ENDMDL
MODEL 4
REMARK VINA RESULT:      -5.7      2.735      3.747
REMARK  5 active torsions:
REMARK  status: ('A' for Active; 'I' for Inactive)
REMARK    1  A    between atoms: C4_4  and  C5_5 
REMARK    2  A    between atoms: C8_8  and  O9_9 
REMARK    3  A    between atoms: C10_11  and  O11_12 
REMARK    4  A    between atoms: C16_18  and  O17_19 
REMARK    5  A    between atoms: C19_22  and  O20_23 
ROOT
HETATM    1  O1          0      44.963  73.088 -15.128  1.00  0.00    -0.286 OA
HETATM    2  C2          0      45.372  72.830 -16.293  1.00  0.00     0.201 C 
HETATM    3  C3          0      46.453  73.477 -16.869  1.00  0.00     0.067 C 
HETATM    4  C4          0      46.820  73.247 -18.190  1.00  0.00     0.103 C 
HETATM    5  O13         0      46.126  72.373 -18.899  1.00  0.00    -0.307 OA
HETATM    6  C14         0      45.069  71.760 -18.412  1.00  0.00     0.107 C 
HETATM    7  C15         0      44.122  71.170 -19.237  1.00  0.00     0.049 C 
HETATM    8  C16         0      42.893  70.753 -18.741  1.00  0.00     0.093 C 
HETATM    9  C18         0      42.876  70.465 -17.382  1.00  0.00     0.048 C 
HETATM   10  C19         0      43.837  71.000 -16.535  1.00  0.00     0.096 C 
HETATM   11  C21         0      44.819  71.805 -17.045  1.00  0.00     0.084 C 
ENDROOT
BRANCH  10  12
HETATM   12  O20         0      43.576  71.075 -15.170  1.00  0.00    -0.359 OA
HETATM   13  H20         0      42.685  71.260 -14.897  1.00  0.00     0.218 HD
ENDBRANCH  10  12
BRANCH   4  14
HETATM   14  C5          0      47.515  74.329 -18.890  1.00  0.00     0.025 C 
HETATM   15  C6          0      48.302  75.264 -18.235  1.00  0.00     0.004 C 
HETATM   16  C7          0      49.470  75.680 -18.867  1.00  0.00     0.026 C 
HETATM   17  C8          0      49.779  75.283 -20.163  1.00  0.00     0.112 C 
HETATM   18  C10         0      48.685  74.902 -20.929  1.00  0.00     0.112 C 
HETATM   19  C12         0      47.561  74.410 -20.276  1.00  0.00     0.028 C 
BRANCH  17  20
HETATM   20  O9          0      51.093  75.093 -20.552  1.00  0.00    -0.357 OA
HETATM   21  H9          0      51.362  74.463 -21.211  1.00  0.00     0.218 HD
ENDBRANCH  17  20
BRANCH  18  22
HETATM   22  O11         0      48.911  74.679 -22.280  1.00  0.00    -0.357 OA
HETATM   23  H11         0      49.780  74.384 -22.528  1.00  0.00     0.218 HD
ENDBRANCH  18  22
ENDBRANCH   4  14
BRANCH   8  24
HETATM   24  O17         0      41.712  70.937 -19.469  1.00  0.00    -0.359 OA
HETATM   25  H17         0      40.880  71.094 -19.039  1.00  0.00     0.218 HD
ENDBRANCH   8  24
TORSDOF 5
ENDMDL
MODEL 5
REMARK VINA RESULT:      -5.4      3.169      4.881
REMARK  5 active torsions:
REMARK  status: ('A' for Active; 'I' for Inactive)
REMARK    1  A    between atoms: C4_4  and  C5_5 
REMARK    2  A    between atoms: C8_8  and  O9_9 
REMARK    3  A    between atoms: C10_11  and  O11_12 
REMARK    4  A    between atoms: C16_18  and  O17_19 
REMARK    5  A    between atoms: C19_22  and  O20_23 
ROOT
HETATM    1  O1          0      44.945  69.885 -18.731  1.00  0.00    -0.286 OA
HETATM    2  C2          0      45.248  71.079 -18.458  1.00  0.00     0.201 C 
HETATM    3  C3          0      46.005  71.873 -19.303  1.00  0.00     0.067 C 
HETATM    4  C4          0      46.411  73.150 -18.933  1.00  0.00     0.103 C 
HETATM    5  O13         0      46.044  73.616 -17.752  1.00  0.00    -0.307 OA
HETATM    6  C14         0      45.358  72.890 -16.897  1.00  0.00     0.107 C 
HETATM    7  C15         0      45.314  73.199 -15.545  1.00  0.00     0.049 C 
HETATM    8  C16         0      44.808  72.299 -14.615  1.00  0.00     0.093 C 
HETATM    9  C18         0      43.903  71.375 -15.124  1.00  0.00     0.048 C 
HETATM   10  C19         0      43.888  71.077 -16.480  1.00  0.00     0.096 C 
HETATM   11  C21         0      44.758  71.710 -17.324  1.00  0.00     0.084 C 
ENDROOT
BRANCH  10  12
HETATM   12  O20         0      43.317  69.882 -16.907  1.00  0.00    -0.359 OA
HETATM   13  H20         0      42.860  69.352 -16.265  1.00  0.00     0.218 HD
ENDBRANCH  10  12
BRANCH   4  14
HETATM   14  C5          0      47.637  73.666 -19.543  1.00  0.00     0.025 C 
HETATM   15  C6          0      48.737  72.865 -19.815  1.00  0.00     0.004 C 
HETATM   16  C7          0      49.437  73.109 -20.992  1.00  0.00     0.026 C 
HETATM   17  C8          0      49.139  74.196 -21.806  1.00  0.00     0.112 C 
HETATM   18  C10         0      48.500  75.246 -21.160  1.00  0.00     0.112 C 
HETATM   19  C12         0      47.737  74.962 -20.034  1.00  0.00     0.028 C 
BRANCH  17  20
HETATM   20  O9          0      49.288  74.116 -23.179  1.00  0.00    -0.357 OA
HETATM   21  H9          0      49.486  73.310 -23.642  1.00  0.00     0.218 HD
ENDBRANCH  17  20
BRANCH  18  22
HETATM   22  O11         0      48.350  76.426 -21.875  1.00  0.00    -0.357 OA
HETATM   23  H11         0      48.117  77.202 -21.379  1.00  0.00     0.218 HD
ENDBRANCH  18  22
ENDBRANCH   4  14
BRANCH   8  24
HETATM   24  O17         0      45.411  72.125 -13.364  1.00  0.00    -0.359 OA
HETATM   25  H17         0      46.328  72.330 -13.220  1.00  0.00     0.218 HD
ENDBRANCH   8  24
TORSDOF 5
ENDMDL
MODEL 6
REMARK VINA RESULT:      -5.4      2.716      5.872
REMARK  5 active torsions:
REMARK  status: ('A' for Active; 'I' for Inactive)
REMARK    1  A    between atoms: C4_4  and  C5_5 
REMARK    2  A    between atoms: C8_8  and  O9_9 
REMARK    3  A    between atoms: C10_11  and  O11_12 
REMARK    4  A    between atoms: C16_18  and  O17_19 
REMARK    5  A    between atoms: C19_22  and  O20_23 
ROOT
HETATM    1  O1          0      45.890  72.885 -20.753  1.00  0.00    -0.286 OA
HETATM    2  C2          0      46.648  72.682 -19.764  1.00  0.00     0.201 C 
HETATM    3  C3          0      46.257  71.948 -18.658  1.00  0.00     0.067 C 
HETATM    4  C4          0      47.073  71.826 -17.539  1.00  0.00     0.103 C 
HETATM    5  O13         0      48.256  72.413 -17.549  1.00  0.00    -0.307 OA
HETATM    6  C14         0      48.661  73.153 -18.559  1.00  0.00     0.107 C 
HETATM    7  C15         0      49.688  74.076 -18.423  1.00  0.00     0.049 C 
HETATM    8  C16         0      49.939  75.026 -19.406  1.00  0.00     0.093 C 
HETATM    9  C18         0      49.508  74.679 -20.681  1.00  0.00     0.048 C 
HETATM   10  C19         0      48.515  73.725 -20.855  1.00  0.00     0.096 C 
HETATM   11  C21         0      47.967  73.109 -19.763  1.00  0.00     0.084 C 
ENDROOT
BRANCH  10  12
HETATM   12  O20         0      47.798  73.699 -22.047  1.00  0.00    -0.359 OA
HETATM   13  H20         0      47.575  74.529 -22.451  1.00  0.00     0.218 HD
ENDBRANCH  10  12
BRANCH   4  14
HETATM   14  C5          0      46.415  71.590 -16.252  1.00  0.00     0.025 C 
HETATM   15  C6          0      46.950  72.014 -15.045  1.00  0.00     0.004 C 
HETATM   16  C7          0      46.069  72.497 -14.083  1.00  0.00     0.026 C 
HETATM   17  C8          0      44.691  72.437 -14.260  1.00  0.00     0.112 C 
HETATM   18  C10         0      44.263  71.463 -15.153  1.00  0.00     0.112 C 
HETATM   19  C12         0      45.135  71.059 -16.157  1.00  0.00     0.028 C 
BRANCH  17  20
HETATM   20  O9          0      43.866  73.419 -13.741  1.00  0.00    -0.357 OA
HETATM   21  H9          0      42.921  73.423 -13.844  1.00  0.00     0.218 HD
ENDBRANCH  17  20
BRANCH  18  22
HETATM   22  O11         0      42.897  71.233 -15.225  1.00  0.00    -0.357 OA
HETATM   23  H11         0      42.358  71.630 -14.550  1.00  0.00     0.218 HD
ENDBRANCH  18  22
ENDBRANCH   4  14
BRANCH   8  24
HETATM   24  O17         0      50.281  76.343 -19.078  1.00  0.00    -0.359 OA
HETATM   25  H17         0      49.762  76.856 -18.470  1.00  0.00     0.218 HD
ENDBRANCH   8  24
TORSDOF 5
ENDMDL
MODEL 7
REMARK VINA RESULT:      -5.3      5.118      6.991
REMARK  5 active torsions:
REMARK  status: ('A' for Active; 'I' for Inactive)
REMARK    1  A    between atoms: C4_4  and  C5_5 
REMARK    2  A    between atoms: C8_8  and  O9_9 
REMARK    3  A    between atoms: C10_11  and  O11_12 
REMARK    4  A    between atoms: C16_18  and  O17_19 
REMARK    5  A    between atoms: C19_22  and  O20_23 
ROOT
HETATM    1  O1          0      46.569  71.263 -21.479  1.00  0.00    -0.286 OA
HETATM    2  C2          0      47.092  72.382 -21.226  1.00  0.00     0.201 C 
HETATM    3  C3          0      48.102  72.931 -21.998  1.00  0.00     0.067 C 
HETATM    4  C4          0      48.732  74.117 -21.638  1.00  0.00     0.103 C 
HETATM    5  O13         0      48.336  74.738 -20.541  1.00  0.00    -0.307 OA
HETATM    6  C14         0      47.408  74.242 -19.753  1.00  0.00     0.107 C 
HETATM    7  C15         0      47.270  74.655 -18.436  1.00  0.00     0.049 C 
HETATM    8  C16         0      46.469  73.957 -17.540  1.00  0.00     0.093 C 
HETATM    9  C18         0      45.451  73.211 -18.122  1.00  0.00     0.048 C 
HETATM   10  C19         0      45.535  72.820 -19.451  1.00  0.00     0.096 C 
HETATM   11  C21         0      46.620  73.187 -20.200  1.00  0.00     0.084 C 
ENDROOT
BRANCH  10  12
HETATM   12  O20         0      44.771  71.744 -19.893  1.00  0.00    -0.359 OA
HETATM   13  H20         0      44.488  71.105 -19.251  1.00  0.00     0.218 HD
ENDBRANCH  10  12
BRANCH   4  14
HETATM   14  C5          0      50.106  74.312 -22.102  1.00  0.00     0.025 C 
HETATM   15  C6          0      51.193  74.346 -21.240  1.00  0.00     0.004 C 
HETATM   16  C7          0      52.374  73.747 -21.667  1.00  0.00     0.026 C 
HETATM   17  C8          0      52.513  73.248 -22.958  1.00  0.00     0.112 C 
HETATM   18  C10         0      51.654  73.811 -23.893  1.00  0.00     0.112 C 
HETATM   19  C12         0      50.442  74.327 -23.449  1.00  0.00     0.028 C 
BRANCH  17  20
HETATM   20  O9          0      53.299  72.138 -23.208  1.00  0.00    -0.357 OA
HETATM   21  H9          0      54.126  71.967 -22.771  1.00  0.00     0.218 HD
ENDBRANCH  17  20
BRANCH  18  22
HETATM   22  O11         0      51.877  73.490 -25.224  1.00  0.00    -0.357 OA
HETATM   23  H11         0      52.605  72.908 -25.410  1.00  0.00     0.218 HD
ENDBRANCH  18  22
ENDBRANCH   4  14
BRANCH   8  24
HETATM   24  O17         0      46.863  73.756 -16.213  1.00  0.00    -0.359 OA
HETATM   25  H17         0      47.673  73.310 -15.995  1.00  0.00     0.218 HD
ENDBRANCH   8  24
TORSDOF 5
ENDMDL
MODEL 8
REMARK VINA RESULT:      -5.2      2.206      3.751
REMARK  5 active torsions:
REMARK  status: ('A' for Active; 'I' for Inactive)
REMARK    1  A    between atoms: C4_4  and  C5_5 
REMARK    2  A    between atoms: C8_8  and  O9_9 
REMARK    3  A    between atoms: C10_11  and  O11_12 
REMARK    4  A    between atoms: C16_18  and  O17_19 
REMARK    5  A    between atoms: C19_22  and  O20_23 
ROOT
HETATM    1  O1          0      47.851  74.207 -20.797  1.00  0.00    -0.286 OA
HETATM    2  C2          0      47.480  74.535 -19.636  1.00  0.00     0.201 C 
HETATM    3  C3          0      48.029  75.602 -18.945  1.00  0.00     0.067 C 
HETATM    4  C4          0      47.674  75.877 -17.630  1.00  0.00     0.103 C 
HETATM    5  O13         0      46.776  75.109 -17.040  1.00  0.00    -0.307 OA
HETATM    6  C14         0      46.252  74.061 -17.637  1.00  0.00     0.107 C 
HETATM    7  C15         0      45.638  73.043 -16.922  1.00  0.00     0.049 C 
HETATM    8  C16         0      45.316  71.832 -17.523  1.00  0.00     0.093 C 
HETATM    9  C18         0      45.143  71.887 -18.900  1.00  0.00     0.048 C 
HETATM   10  C19         0      45.705  72.918 -19.641  1.00  0.00     0.096 C 
HETATM   11  C21         0      46.421  73.897 -19.008  1.00  0.00     0.084 C 
ENDROOT
BRANCH  10  12
HETATM   12  O20         0      45.904  72.744 -21.007  1.00  0.00    -0.359 OA
HETATM   13  H20         0      45.725  73.479 -21.581  1.00  0.00     0.218 HD
ENDBRANCH  10  12
BRANCH   4  14
HETATM   14  C5          0      48.663  76.570 -16.801  1.00  0.00     0.025 C 
HETATM   15  C6          0      49.985  76.161 -16.709  1.00  0.00     0.004 C 
HETATM   16  C7          0      50.962  77.149 -16.644  1.00  0.00     0.026 C 
HETATM   17  C8          0      50.632  78.496 -16.538  1.00  0.00     0.112 C 
HETATM   18  C10         0      49.371  78.744 -16.010  1.00  0.00     0.112 C 
HETATM   19  C12         0      48.389  77.773 -16.164  1.00  0.00     0.028 C 
BRANCH  17  20
HETATM   20  O9          0      51.427  79.469 -17.117  1.00  0.00    -0.357 OA
HETATM   21  H9          0      51.360  80.395 -16.914  1.00  0.00     0.218 HD
ENDBRANCH  17  20
BRANCH  18  22
HETATM   22  O11         0      49.065  80.063 -15.707  1.00  0.00    -0.357 OA
HETATM   23  H11         0      49.714  80.718 -15.936  1.00  0.00     0.218 HD
ENDBRANCH  18  22
ENDBRANCH   4  14
BRANCH   8  24
HETATM   24  O17         0      45.490  70.616 -16.851  1.00  0.00    -0.359 OA
HETATM   25  H17         0      45.526  69.789 -17.317  1.00  0.00     0.218 HD
ENDBRANCH   8  24
TORSDOF 5
ENDMDL
MODEL 9
REMARK VINA RESULT:      -5.2      1.952      6.447
REMARK  5 active torsions:
REMARK  status: ('A' for Active; 'I' for Inactive)
REMARK    1  A    between atoms: C4_4  and  C5_5 
REMARK    2  A    between atoms: C8_8  and  O9_9 
REMARK    3  A    between atoms: C10_11  and  O11_12 
REMARK    4  A    between atoms: C16_18  and  O17_19 
REMARK    5  A    between atoms: C19_22  and  O20_23 
ROOT
HETATM    1  O1          0      48.988  72.675 -14.374  1.00  0.00    -0.286 OA
HETATM    2  C2          0      48.015  73.000 -15.108  1.00  0.00     0.201 C 
HETATM    3  C3          0      46.873  72.227 -15.227  1.00  0.00     0.067 C 
HETATM    4  C4          0      45.861  72.556 -16.121  1.00  0.00     0.103 C 
HETATM    5  O13         0      45.992  73.646 -16.856  1.00  0.00    -0.307 OA
HETATM    6  C14         0      47.072  74.395 -16.809  1.00  0.00     0.107 C 
HETATM    7  C15         0      47.392  75.280 -17.828  1.00  0.00     0.049 C 
HETATM    8  C16         0      48.646  75.875 -17.900  1.00  0.00     0.093 C 
HETATM    9  C18         0      49.322  75.968 -16.689  1.00  0.00     0.048 C 
HETATM   10  C19         0      48.995  75.129 -15.632  1.00  0.00     0.096 C 
HETATM   11  C21         0      47.988  74.214 -15.779  1.00  0.00     0.084 C 
ENDROOT
BRANCH  10  12
HETATM   12  O20         0      49.923  74.921 -14.616  1.00  0.00    -0.359 OA
HETATM   13  H20         0      49.595  74.789 -13.735  1.00  0.00     0.218 HD
ENDBRANCH  10  12
BRANCH   4  14
HETATM   14  C5          0      45.033  71.460 -16.628  1.00  0.00     0.025 C 
HETATM   15  C6          0      43.911  70.993 -15.958  1.00  0.00     0.004 C 
HETATM   16  C7          0      42.810  70.625 -16.725  1.00  0.00     0.026 C 
HETATM   17  C8          0      42.865  70.593 -18.114  1.00  0.00     0.112 C 
HETATM   18  C10         0      44.143  70.452 -18.640  1.00  0.00     0.112 C 
HETATM   19  C12         0      45.220  70.907 -17.888  1.00  0.00     0.028 C 
BRANCH  17  20
HETATM   20  O9          0      41.750  70.894 -18.875  1.00  0.00    -0.357 OA
HETATM   21  H9          0      41.300  71.730 -18.845  1.00  0.00     0.218 HD
ENDBRANCH  17  20
BRANCH  18  22
HETATM   22  O11         0      44.239  70.225 -20.005  1.00  0.00    -0.357 OA
HETATM   23  H11         0      43.536  70.564 -20.548  1.00  0.00     0.218 HD
ENDBRANCH  18  22
ENDBRANCH   4  14
BRANCH   8  24
HETATM   24  O17         0      49.302  76.048 -19.123  1.00  0.00    -0.359 OA
HETATM   25  H17         0      49.955  75.431 -19.431  1.00  0.00     0.218 HD
ENDBRANCH   8  24
TORSDOF 5
ENDMDL
