MODEL 1
REMARK VINA RESULT:      -0.5      0.000      0.000
REMARK  5 active torsions:
REMARK  status: ('A' for Active; 'I' for Inactive)
REMARK    1  A    between atoms: C4_4  and  C5_5 
REMARK    2  A    between atoms: C8_8  and  O9_9 
REMARK    3  A    between atoms: C10_11  and  O11_12 
REMARK    4  A    between atoms: C16_18  and  O17_19 
REMARK    5  A    between atoms: C19_22  and  O20_23 
ROOT
HETATM    1  O1          0      44.079 114.678 -14.492  1.00  0.00    -0.286 OA
HETATM    2  C2          0      44.590 113.601 -14.076  1.00  0.00     0.201 C 
HETATM    3  C3          0      43.845 112.458 -13.843  1.00  0.00     0.067 C 
HETATM    4  C4          0      44.415 111.318 -13.288  1.00  0.00     0.103 C 
HETATM    5  O13         0      45.704 111.329 -12.999  1.00  0.00    -0.307 OA
HETATM    6  C14         0      46.449 112.400 -13.166  1.00  0.00     0.107 C 
HETATM    7  C15         0      47.663 112.555 -12.513  1.00  0.00     0.049 C 
HETATM    8  C16         0      48.318 113.781 -12.489  1.00  0.00     0.093 C 
HETATM    9  C18         0      48.003 114.635 -13.539  1.00  0.00     0.048 C 
HETATM   10  C19         0      46.818 114.479 -14.244  1.00  0.00     0.096 C 
HETATM   11  C21         0      45.960 113.466 -13.914  1.00  0.00     0.084 C 
ENDROOT
BRANCH  10  12
HETATM   12  O20         0      46.311 115.554 -14.968  1.00  0.00    -0.359 OA
HETATM   13  H20         0      45.368 115.625 -15.058  1.00  0.00     0.218 HD
ENDBRANCH  10  12
BRANCH   4  14
HETATM   14  C5          0      43.532 110.426 -12.535  1.00  0.00     0.025 C 
HETATM   15  C6          0      43.824 109.985 -11.253  1.00  0.00     0.004 C 
HETATM   16  C7          0      42.770 109.880 -10.351  1.00  0.00     0.026 C 
HETATM   17  C8          0      41.451 110.078 -10.744  1.00  0.00     0.112 C 
HETATM   18  C10         0      41.215 109.882 -12.099  1.00  0.00     0.112 C 
HETATM   19  C12         0      42.266 110.076 -12.987  1.00  0.00     0.028 C 
BRANCH  17  20
HETATM   20  O9          0      40.527 110.629  -9.875  1.00  0.00    -0.357 OA
HETATM   21  H9          0      40.751 111.245  -9.187  1.00  0.00     0.218 HD
ENDBRANCH  17  20
BRANCH  18  22
HETATM   22  O11         0      39.890 109.880 -12.512  1.00  0.00    -0.357 OA
HETATM   23  H11         0      39.250 110.232 -11.904  1.00  0.00     0.218 HD
ENDBRANCH  18  22
ENDBRANCH   4  14
BRANCH   8  24
HETATM   24  O17         0      48.966 114.239 -11.337  1.00  0.00    -0.359 OA
HETATM   25  H17         0      49.888 114.467 -11.340  1.00  0.00     0.218 HD
ENDBRANCH   8  24
TORSDOF 5
ENDMDL
MODEL 2
REMARK VINA RESULT:      -0.5      2.761      6.313
REMARK  5 active torsions:
REMARK  status: ('A' for Active; 'I' for Inactive)
REMARK    1  A    between atoms: C4_4  and  C5_5 
REMARK    2  A    between atoms: C8_8  and  O9_9 
REMARK    3  A    between atoms: C10_11  and  O11_12 
REMARK    4  A    between atoms: C16_18  and  O17_19 
REMARK    5  A    between atoms: C19_22  and  O20_23 
ROOT
HETATM    1  O1          0      44.612 112.841 -11.807  1.00  0.00    -0.286 OA
HETATM    2  C2          0      43.813 112.173 -12.520  1.00  0.00     0.201 C 
HETATM    3  C3          0      43.623 112.421 -13.868  1.00  0.00     0.067 C 
HETATM    4  C4          0      42.663 111.738 -14.606  1.00  0.00     0.103 C 
HETATM    5  O13         0      41.934 110.818 -14.001  1.00  0.00    -0.307 OA
HETATM    6  C14         0      42.048 110.569 -12.715  1.00  0.00     0.107 C 
HETATM    7  C15         0      41.048 109.921 -12.004  1.00  0.00     0.049 C 
HETATM    8  C16         0      41.056 109.887 -10.615  1.00  0.00     0.093 C 
HETATM    9  C18         0      42.309 110.038 -10.032  1.00  0.00     0.048 C 
HETATM   10  C19         0      43.345 110.640 -10.732  1.00  0.00     0.096 C 
HETATM   11  C21         0      43.137 111.074 -12.013  1.00  0.00     0.084 C 
ENDROOT
BRANCH  10  12
HETATM   12  O20         0      44.421 111.174 -10.029  1.00  0.00    -0.359 OA
HETATM   13  H20         0      45.295 111.018 -10.367  1.00  0.00     0.218 HD
ENDBRANCH  10  12
BRANCH   4  14
HETATM   14  C5          0      42.108 112.421 -15.777  1.00  0.00     0.025 C 
HETATM   15  C6          0      40.783 112.286 -16.167  1.00  0.00     0.004 C 
HETATM   16  C7          0      40.138 113.417 -16.658  1.00  0.00     0.026 C 
HETATM   17  C8          0      40.822 114.608 -16.880  1.00  0.00     0.112 C 
HETATM   18  C10         0      42.190 114.465 -17.068  1.00  0.00     0.112 C 
HETATM   19  C12         0      42.824 113.369 -16.495  1.00  0.00     0.028 C 
BRANCH  17  20
HETATM   20  O9          0      40.193 115.829 -16.708  1.00  0.00    -0.357 OA
HETATM   21  H9          0      39.732 116.077 -15.915  1.00  0.00     0.218 HD
ENDBRANCH  17  20
BRANCH  18  22
HETATM   22  O11         0      42.889 115.591 -17.479  1.00  0.00    -0.357 OA
HETATM   23  H11         0      43.051 115.680 -18.411  1.00  0.00     0.218 HD
ENDBRANCH  18  22
ENDBRANCH   4  14
BRANCH   8  24
HETATM   24  O17         0      39.878 110.032  -9.875  1.00  0.00    -0.359 OA
HETATM   25  H17         0      39.411 110.859  -9.837  1.00  0.00     0.218 HD
ENDBRANCH   8  24
TORSDOF 5
ENDMDL
MODEL 3
REMARK VINA RESULT:      -0.4      3.963      4.838
REMARK  5 active torsions:
REMARK  status: ('A' for Active; 'I' for Inactive)
REMARK    1  A    between atoms: C4_4  and  C5_5 
REMARK    2  A    between atoms: C8_8  and  O9_9 
REMARK    3  A    between atoms: C10_11  and  O11_12 
REMARK    4  A    between atoms: C16_18  and  O17_19 
REMARK    5  A    between atoms: C19_22  and  O20_23 
ROOT
HETATM    1  O1          0      42.094 116.071 -14.232  1.00  0.00    -0.286 OA
HETATM    2  C2          0      41.722 114.970 -14.723  1.00  0.00     0.201 C 
HETATM    3  C3          0      41.214 113.938 -13.953  1.00  0.00     0.067 C 
HETATM    4  C4          0      40.907 112.699 -14.505  1.00  0.00     0.103 C 
HETATM    5  O13         0      41.089 112.520 -15.802  1.00  0.00    -0.307 OA
HETATM    6  C14         0      41.603 113.454 -16.571  1.00  0.00     0.107 C 
HETATM    7  C15         0      42.161 113.159 -17.807  1.00  0.00     0.049 C 
HETATM    8  C16         0      42.924 114.093 -18.497  1.00  0.00     0.093 C 
HETATM    9  C18         0      42.656 115.419 -18.178  1.00  0.00     0.048 C 
HETATM   10  C19         0      42.056 115.747 -16.970  1.00  0.00     0.096 C 
HETATM   11  C21         0      41.709 114.756 -16.093  1.00  0.00     0.084 C 
ENDROOT
BRANCH  10  12
HETATM   12  O20         0      42.187 117.040 -16.474  1.00  0.00    -0.359 OA
HETATM   13  H20         0      42.311 117.148 -15.538  1.00  0.00     0.218 HD
ENDBRANCH  10  12
BRANCH   4  14
HETATM   14  C5          0      40.967 111.536 -13.618  1.00  0.00     0.025 C 
HETATM   15  C6          0      41.922 110.538 -13.750  1.00  0.00     0.004 C 
HETATM   16  C7          0      42.447 109.990 -12.584  1.00  0.00     0.026 C 
HETATM   17  C8          0      41.946 110.325 -11.331  1.00  0.00     0.112 C 
HETATM   18  C10         0      40.642 110.801 -11.336  1.00  0.00     0.112 C 
HETATM   19  C12         0      40.170 111.421 -12.487  1.00  0.00     0.028 C 
BRANCH  17  20
HETATM   20  O9          0      42.776 110.370 -10.225  1.00  0.00    -0.357 OA
HETATM   21  H9          0      43.659 110.722 -10.241  1.00  0.00     0.218 HD
ENDBRANCH  17  20
BRANCH  18  22
HETATM   22  O11         0      40.030 110.971 -10.102  1.00  0.00    -0.357 OA
HETATM   23  H11         0      40.558 110.795  -9.332  1.00  0.00     0.218 HD
ENDBRANCH  18  22
ENDBRANCH   4  14
BRANCH   8  24
HETATM   24  O17         0      44.082 113.722 -19.188  1.00  0.00    -0.359 OA
HETATM   25  H17         0      44.437 114.256 -19.889  1.00  0.00     0.218 HD
ENDBRANCH   8  24
TORSDOF 5
ENDMDL
MODEL 4
REMARK VINA RESULT:      -0.4      3.509      4.077
REMARK  5 active torsions:
REMARK  status: ('A' for Active; 'I' for Inactive)
REMARK    1  A    between atoms: C4_4  and  C5_5 
REMARK    2  A    between atoms: C8_8  and  O9_9 
REMARK    3  A    between atoms: C10_11  and  O11_12 
REMARK    4  A    between atoms: C16_18  and  O17_19 
REMARK    5  A    between atoms: C19_22  and  O20_23 
ROOT
HETATM    1  O1          0      42.135 113.134 -17.685  1.00  0.00    -0.286 OA
HETATM    2  C2          0      42.462 112.322 -16.777  1.00  0.00     0.201 C 
HETATM    3  C3          0      41.741 112.179 -15.604  1.00  0.00     0.067 C 
HETATM    4  C4          0      42.179 111.353 -14.575  1.00  0.00     0.103 C 
HETATM    5  O13         0      43.303 110.677 -14.739  1.00  0.00    -0.307 OA
HETATM    6  C14         0      44.045 110.805 -15.817  1.00  0.00     0.107 C 
HETATM    7  C15         0      45.381 110.432 -15.833  1.00  0.00     0.049 C 
HETATM    8  C16         0      46.220 110.800 -16.878  1.00  0.00     0.093 C 
HETATM    9  C18         0      45.579 111.061 -18.083  1.00  0.00     0.048 C 
HETATM   10  C19         0      44.230 111.391 -18.107  1.00  0.00     0.096 C 
HETATM   11  C21         0      43.524 111.445 -16.936  1.00  0.00     0.084 C 
ENDROOT
BRANCH  10  12
HETATM   12  O20         0      43.713 112.060 -19.212  1.00  0.00    -0.359 OA
HETATM   13  H20         0      43.101 112.768 -19.058  1.00  0.00     0.218 HD
ENDBRANCH  10  12
BRANCH   4  14
HETATM   14  C5          0      41.752 111.691 -13.216  1.00  0.00     0.025 C 
HETATM   15  C6          0      40.482 112.166 -12.923  1.00  0.00     0.004 C 
HETATM   16  C7          0      39.883 111.724 -11.748  1.00  0.00     0.026 C 
HETATM   17  C8          0      40.573 110.943 -10.827  1.00  0.00     0.112 C 
HETATM   18  C10         0      41.956 111.058 -10.889  1.00  0.00     0.112 C 
HETATM   19  C12         0      42.534 111.419 -12.101  1.00  0.00     0.028 C 
BRANCH  17  20
HETATM   20  O9          0      39.915 109.986 -10.075  1.00  0.00    -0.357 OA
HETATM   21  H9          0      40.347 109.240  -9.676  1.00  0.00     0.218 HD
ENDBRANCH  17  20
BRANCH  18  22
HETATM   22  O11         0      42.683 110.451  -9.876  1.00  0.00    -0.357 OA
HETATM   23  H11         0      42.865 110.974  -9.104  1.00  0.00     0.218 HD
ENDBRANCH  18  22
ENDBRANCH   4  14
BRANCH   8  24
HETATM   24  O17         0      47.541 111.202 -16.646  1.00  0.00    -0.359 OA
HETATM   25  H17         0      47.978 111.026 -15.821  1.00  0.00     0.218 HD
ENDBRANCH   8  24
TORSDOF 5
ENDMDL
MODEL 5
REMARK VINA RESULT:      -0.3      4.076      7.135
REMARK  5 active torsions:
REMARK  status: ('A' for Active; 'I' for Inactive)
REMARK    1  A    between atoms: C4_4  and  C5_5 
REMARK    2  A    between atoms: C8_8  and  O9_9 
REMARK    3  A    between atoms: C10_11  and  O11_12 
REMARK    4  A    between atoms: C16_18  and  O17_19 
REMARK    5  A    between atoms: C19_22  and  O20_23 
ROOT
HETATM    1  O1          0      42.627 112.052 -15.124  1.00  0.00    -0.286 OA
HETATM    2  C2          0      41.762 112.624 -14.406  1.00  0.00     0.201 C 
HETATM    3  C3          0      41.514 113.985 -14.470  1.00  0.00     0.067 C 
HETATM    4  C4          0      40.628 114.606 -13.596  1.00  0.00     0.103 C 
HETATM    5  O13         0      39.997 113.867 -12.700  1.00  0.00    -0.307 OA
HETATM    6  C14         0      40.224 112.578 -12.573  1.00  0.00     0.107 C 
HETATM    7  C15         0      39.890 111.888 -11.416  1.00  0.00     0.049 C 
HETATM    8  C16         0      40.355 110.599 -11.185  1.00  0.00     0.093 C 
HETATM    9  C18         0      40.684 109.880 -12.327  1.00  0.00     0.048 C 
HETATM   10  C19         0      40.979 110.537 -13.514  1.00  0.00     0.096 C 
HETATM   11  C21         0      40.928 111.904 -13.565  1.00  0.00     0.084 C 
ENDROOT
BRANCH  10  12
HETATM   12  O20         0      41.711 109.875 -14.495  1.00  0.00    -0.359 OA
HETATM   13  H20         0      42.113 110.397 -15.179  1.00  0.00     0.218 HD
ENDBRANCH  10  12
BRANCH   4  14
HETATM   14  C5          0      40.855 116.023 -13.307  1.00  0.00     0.025 C 
HETATM   15  C6          0      40.655 116.575 -12.050  1.00  0.00     0.004 C 
HETATM   16  C7          0      41.555 117.546 -11.622  1.00  0.00     0.026 C 
HETATM   17  C8          0      42.541 118.049 -12.465  1.00  0.00     0.112 C 
HETATM   18  C10         0      42.267 117.920 -13.820  1.00  0.00     0.112 C 
HETATM   19  C12         0      41.431 116.888 -14.229  1.00  0.00     0.028 C 
BRANCH  17  20
HETATM   20  O9          0      43.769 118.441 -11.963  1.00  0.00    -0.357 OA
HETATM   21  H9          0      44.082 118.214 -11.095  1.00  0.00     0.218 HD
ENDBRANCH  17  20
BRANCH  18  22
HETATM   22  O11         0      43.122 118.570 -14.698  1.00  0.00    -0.357 OA
HETATM   23  H11         0      42.721 119.041 -15.419  1.00  0.00     0.218 HD
ENDBRANCH  18  22
ENDBRANCH   4  14
BRANCH   8  24
HETATM   24  O17         0      40.775 110.193  -9.913  1.00  0.00    -0.359 OA
HETATM   25  H17         0      40.229 109.650  -9.357  1.00  0.00     0.218 HD
ENDBRANCH   8  24
TORSDOF 5
ENDMDL
MODEL 6
REMARK VINA RESULT:      -0.3      3.104      6.791
REMARK  5 active torsions:
REMARK  status: ('A' for Active; 'I' for Inactive)
REMARK    1  A    between atoms: C4_4  and  C5_5 
REMARK    2  A    between atoms: C8_8  and  O9_9 
REMARK    3  A    between atoms: C10_11  and  O11_12 
REMARK    4  A    between atoms: C16_18  and  O17_19 
REMARK    5  A    between atoms: C19_22  and  O20_23 
ROOT
HETATM    1  O1          0      43.556 111.698 -14.672  1.00  0.00    -0.286 OA
HETATM    2  C2          0      42.754 112.429 -14.029  1.00  0.00     0.201 C 
HETATM    3  C3          0      42.971 113.781 -13.823  1.00  0.00     0.067 C 
HETATM    4  C4          0      42.124 114.541 -13.024  1.00  0.00     0.103 C 
HETATM    5  O13         0      41.078 113.954 -12.469  1.00  0.00    -0.307 OA
HETATM    6  C14         0      40.848 112.667 -12.602  1.00  0.00     0.107 C 
HETATM    7  C15         0      40.018 111.979 -11.727  1.00  0.00     0.049 C 
HETATM    8  C16         0      39.978 110.590 -11.713  1.00  0.00     0.093 C 
HETATM    9  C18         0      40.358 109.979 -12.902  1.00  0.00     0.048 C 
HETATM   10  C19         0      41.149 110.656 -13.821  1.00  0.00     0.096 C 
HETATM   11  C21         0      41.544 111.940 -13.561  1.00  0.00     0.084 C 
ENDROOT
BRANCH  10  12
HETATM   12  O20         0      41.872 109.929 -14.762  1.00  0.00    -0.359 OA
HETATM   13  H20         0      41.451 109.178 -15.163  1.00  0.00     0.218 HD
ENDBRANCH  10  12
BRANCH   4  14
HETATM   14  C5          0      42.697 115.722 -12.375  1.00  0.00     0.025 C 
HETATM   15  C6          0      42.319 116.140 -11.107  1.00  0.00     0.004 C 
HETATM   16  C7          0      43.312 116.642 -10.272  1.00  0.00     0.026 C 
HETATM   17  C8          0      44.611 116.848 -10.725  1.00  0.00     0.112 C 
HETATM   18  C10         0      44.728 117.008 -12.099  1.00  0.00     0.112 C 
HETATM   19  C12         0      43.767 116.423 -12.916  1.00  0.00     0.028 C 
BRANCH  17  20
HETATM   20  O9          0      45.692 116.686  -9.876  1.00  0.00    -0.357 OA
HETATM   21  H9          0      45.981 115.844  -9.543  1.00  0.00     0.218 HD
ENDBRANCH  17  20
BRANCH  18  22
HETATM   22  O11         0      45.967 117.402 -12.583  1.00  0.00    -0.357 OA
HETATM   23  H11         0      46.726 116.935 -12.252  1.00  0.00     0.218 HD
ENDBRANCH  18  22
ENDBRANCH   4  14
BRANCH   8  24
HETATM   24  O17         0      39.893 109.875 -10.513  1.00  0.00    -0.359 OA
HETATM   25  H17         0      39.183 110.015  -9.898  1.00  0.00     0.218 HD
ENDBRANCH   8  24
TORSDOF 5
ENDMDL
MODEL 7
REMARK VINA RESULT:      -0.3      3.137      4.233
REMARK  5 active torsions:
REMARK  status: ('A' for Active; 'I' for Inactive)
REMARK    1  A    between atoms: C4_4  and  C5_5 
REMARK    2  A    between atoms: C8_8  and  O9_9 
REMARK    3  A    between atoms: C10_11  and  O11_12 
REMARK    4  A    between atoms: C16_18  and  O17_19 
REMARK    5  A    between atoms: C19_22  and  O20_23 
ROOT
HETATM    1  O1          0      44.484 113.408 -17.329  1.00  0.00    -0.286 OA
HETATM    2  C2          0      43.995 113.678 -16.198  1.00  0.00     0.201 C 
HETATM    3  C3          0      43.732 112.709 -15.244  1.00  0.00     0.067 C 
HETATM    4  C4          0      43.098 113.020 -14.046  1.00  0.00     0.103 C 
HETATM    5  O13         0      42.760 114.276 -13.814  1.00  0.00    -0.307 OA
HETATM    6  C14         0      42.953 115.227 -14.701  1.00  0.00     0.107 C 
HETATM    7  C15         0      42.262 116.429 -14.645  1.00  0.00     0.049 C 
HETATM    8  C16         0      42.276 117.319 -15.713  1.00  0.00     0.093 C 
HETATM    9  C18         0      43.379 117.214 -16.550  1.00  0.00     0.048 C 
HETATM   10  C19         0      44.121 116.042 -16.596  1.00  0.00     0.096 C 
HETATM   11  C21         0      43.773 114.987 -15.798  1.00  0.00     0.084 C 
ENDROOT
BRANCH  10  12
HETATM   12  O20         0      44.918 115.784 -17.707  1.00  0.00    -0.359 OA
HETATM   13  H20         0      44.893 116.403 -18.427  1.00  0.00     0.218 HD
ENDBRANCH  10  12
BRANCH   4  14
HETATM   14  C5          0      42.335 111.953 -13.397  1.00  0.00     0.025 C 
HETATM   15  C6          0      42.734 110.624 -13.414  1.00  0.00     0.004 C 
HETATM   16  C7          0      42.533 109.875 -12.259  1.00  0.00     0.026 C 
HETATM   17  C8          0      41.836 110.387 -11.170  1.00  0.00     0.112 C 
HETATM   18  C10         0      40.963 111.423 -11.475  1.00  0.00     0.112 C 
HETATM   19  C12         0      41.236 112.210 -12.587  1.00  0.00     0.028 C 
BRANCH  17  20
HETATM   20  O9          0      42.169 110.018  -9.879  1.00  0.00    -0.357 OA
HETATM   21  H9          0      42.356 109.124  -9.617  1.00  0.00     0.218 HD
ENDBRANCH  17  20
BRANCH  18  22
HETATM   22  O11         0      40.109 111.842 -10.465  1.00  0.00    -0.357 OA
HETATM   23  H11         0      39.257 111.423 -10.421  1.00  0.00     0.218 HD
ENDBRANCH  18  22
ENDBRANCH   4  14
BRANCH   8  24
HETATM   24  O17         0      41.124 118.015 -16.096  1.00  0.00    -0.359 OA
HETATM   25  H17         0      40.254 117.671 -15.931  1.00  0.00     0.218 HD
ENDBRANCH   8  24
TORSDOF 5
ENDMDL
MODEL 8
REMARK VINA RESULT:      -0.3      2.453      2.982
REMARK  5 active torsions:
REMARK  status: ('A' for Active; 'I' for Inactive)
REMARK    1  A    between atoms: C4_4  and  C5_5 
REMARK    2  A    between atoms: C8_8  and  O9_9 
REMARK    3  A    between atoms: C10_11  and  O11_12 
REMARK    4  A    between atoms: C16_18  and  O17_19 
REMARK    5  A    between atoms: C19_22  and  O20_23 
ROOT
HETATM    1  O1          0      44.062 116.747 -14.169  1.00  0.00    -0.286 OA
HETATM    2  C2          0      43.809 115.511 -14.154  1.00  0.00     0.201 C 
HETATM    3  C3          0      42.843 114.952 -13.335  1.00  0.00     0.067 C 
HETATM    4  C4          0      42.656 113.576 -13.263  1.00  0.00     0.103 C 
HETATM    5  O13         0      43.409 112.793 -14.015  1.00  0.00    -0.307 OA
HETATM    6  C14         0      44.365 113.270 -14.782  1.00  0.00     0.107 C 
HETATM    7  C15         0      45.396 112.467 -15.249  1.00  0.00     0.049 C 
HETATM    8  C16         0      46.528 113.016 -15.838  1.00  0.00     0.093 C 
HETATM    9  C18         0      46.345 114.274 -16.401  1.00  0.00     0.048 C 
HETATM   10  C19         0      45.296 115.085 -15.990  1.00  0.00     0.096 C 
HETATM   11  C21         0      44.424 114.636 -15.036  1.00  0.00     0.084 C 
ENDROOT
BRANCH  10  12
HETATM   12  O20         0      45.368 116.456 -16.215  1.00  0.00    -0.359 OA
HETATM   13  H20         0      44.567 116.962 -16.141  1.00  0.00     0.218 HD
ENDBRANCH  10  12
BRANCH   4  14
HETATM   14  C5          0      42.104 113.040 -12.018  1.00  0.00     0.025 C 
HETATM   15  C6          0      40.826 113.342 -11.570  1.00  0.00     0.004 C 
HETATM   16  C7          0      40.098 112.324 -10.963  1.00  0.00     0.026 C 
HETATM   17  C8          0      40.666 111.084 -10.690  1.00  0.00     0.112 C 
HETATM   18  C10         0      42.050 111.091 -10.585  1.00  0.00     0.112 C 
HETATM   19  C12         0      42.760 112.070 -11.270  1.00  0.00     0.028 C 
BRANCH  17  20
HETATM   20  O9          0      39.905 109.929 -10.738  1.00  0.00    -0.357 OA
HETATM   21  H9          0      38.958 109.917 -10.658  1.00  0.00     0.218 HD
ENDBRANCH  17  20
BRANCH  18  22
HETATM   22  O11         0      42.652 109.927 -10.129  1.00  0.00    -0.357 OA
HETATM   23  H11         0      42.246 109.106 -10.381  1.00  0.00     0.218 HD
ENDBRANCH  18  22
ENDBRANCH   4  14
BRANCH   8  24
HETATM   24  O17         0      47.804 112.502 -15.585  1.00  0.00    -0.359 OA
HETATM   25  H17         0      47.928 111.647 -15.190  1.00  0.00     0.218 HD
ENDBRANCH   8  24
TORSDOF 5
ENDMDL
MODEL 9
REMARK VINA RESULT:      -0.3      2.646      4.334
REMARK  5 active torsions:
REMARK  status: ('A' for Active; 'I' for Inactive)
REMARK    1  A    between atoms: C4_4  and  C5_5 
REMARK    2  A    between atoms: C8_8  and  O9_9 
REMARK    3  A    between atoms: C10_11  and  O11_12 
REMARK    4  A    between atoms: C16_18  and  O17_19 
REMARK    5  A    between atoms: C19_22  and  O20_23 
ROOT
HETATM    1  O1          0      45.580 113.000 -15.359  1.00  0.00    -0.286 OA
HETATM    2  C2          0      44.707 113.700 -14.776  1.00  0.00     0.201 C 
HETATM    3  C3          0      44.056 113.284 -13.627  1.00  0.00     0.067 C 
HETATM    4  C4          0      43.026 114.027 -13.063  1.00  0.00     0.103 C 
HETATM    5  O13         0      42.680 115.168 -13.634  1.00  0.00    -0.307 OA
HETATM    6  C14         0      43.240 115.590 -14.747  1.00  0.00     0.107 C 
HETATM    7  C15         0      42.634 116.542 -15.554  1.00  0.00     0.049 C 
HETATM    8  C16         0      43.095 116.797 -16.840  1.00  0.00     0.093 C 
HETATM    9  C18         0      44.429 116.478 -17.059  1.00  0.00     0.048 C 
HETATM   10  C19         0      45.080 115.564 -16.241  1.00  0.00     0.096 C 
HETATM   11  C21         0      44.406 114.985 -15.201  1.00  0.00     0.084 C 
ENDROOT
BRANCH  10  12
HETATM   12  O20         0      46.230 114.934 -16.706  1.00  0.00    -0.359 OA
HETATM   13  H20         0      47.047 115.111 -16.256  1.00  0.00     0.218 HD
ENDBRANCH  10  12
BRANCH   4  14
HETATM   14  C5          0      42.026 113.300 -12.280  1.00  0.00     0.025 C 
HETATM   15  C6          0      40.661 113.435 -12.490  1.00  0.00     0.004 C 
HETATM   16  C7          0      39.875 112.293 -12.380  1.00  0.00     0.026 C 
HETATM   17  C8          0      40.404 111.083 -11.944  1.00  0.00     0.112 C 
HETATM   18  C10         0      41.558 111.196 -11.179  1.00  0.00     0.112 C 
HETATM   19  C12         0      42.370 112.308 -11.370  1.00  0.00     0.028 C 
BRANCH  17  20
HETATM   20  O9          0      39.919 109.881 -12.429  1.00  0.00    -0.357 OA
HETATM   21  H9          0      40.463 109.119 -12.591  1.00  0.00     0.218 HD
ENDBRANCH  17  20
BRANCH  18  22
HETATM   22  O11         0      42.019 110.042 -10.563  1.00  0.00    -0.357 OA
HETATM   23  H11         0      42.355 110.132  -9.678  1.00  0.00     0.218 HD
ENDBRANCH  18  22
ENDBRANCH   4  14
BRANCH   8  24
HETATM   24  O17         0      42.210 117.028 -17.899  1.00  0.00    -0.359 OA
HETATM   25  H17         0      41.300 116.758 -17.857  1.00  0.00     0.218 HD
ENDBRANCH   8  24
TORSDOF 5
ENDMDL
