MODEL 1
REMARK VINA RESULT:      -5.9      0.000      0.000
REMARK  5 active torsions:
REMARK  status: ('A' for Active; 'I' for Inactive)
REMARK    1  A    between atoms: C4_4  and  C5_5 
REMARK    2  A    between atoms: C8_8  and  O9_9 
REMARK    3  A    between atoms: C10_11  and  O11_12 
REMARK    4  A    between atoms: C16_18  and  O17_19 
REMARK    5  A    between atoms: C19_22  and  O20_23 
ROOT
HETATM    1  O1          0      77.678  49.716  35.343  1.00  0.00    -0.286 OA
HETATM    2  C2          0      76.535  49.587  34.823  1.00  0.00     0.201 C 
HETATM    3  C3          0      75.362  49.767  35.536  1.00  0.00     0.067 C 
HETATM    4  C4          0      74.118  49.519  34.966  1.00  0.00     0.103 C 
HETATM    5  O13         0      74.065  49.122  33.707  1.00  0.00    -0.307 OA
HETATM    6  C14         0      75.149  48.899  32.998  1.00  0.00     0.107 C 
HETATM    7  C15         0      75.125  48.120  31.850  1.00  0.00     0.049 C 
HETATM    8  C16         0      76.299  47.680  31.251  1.00  0.00     0.093 C 
HETATM    9  C18         0      77.419  48.459  31.513  1.00  0.00     0.048 C 
HETATM   10  C19         0      77.459  49.285  32.628  1.00  0.00     0.096 C 
HETATM   11  C21         0      76.380  49.346  33.467  1.00  0.00     0.084 C 
ENDROOT
BRANCH  10  12
HETATM   12  O20         0      78.691  49.708  33.118  1.00  0.00    -0.359 OA
HETATM   13  H20         0      78.703  50.449  33.712  1.00  0.00     0.218 HD
ENDBRANCH  10  12
BRANCH   4  14
HETATM   14  C5          0      73.030  49.144  35.871  1.00  0.00     0.025 C 
HETATM   15  C6          0      71.883  48.495  35.438  1.00  0.00     0.004 C 
HETATM   16  C7          0      71.344  47.516  36.267  1.00  0.00     0.026 C 
HETATM   17  C8          0      71.848  47.282  37.542  1.00  0.00     0.112 C 
HETATM   18  C10         0      72.529  48.355  38.102  1.00  0.00     0.112 C 
HETATM   19  C12         0      73.130  49.273  37.250  1.00  0.00     0.028 C 
BRANCH  17  20
HETATM   20  O9          0      71.839  46.010  38.086  1.00  0.00    -0.357 OA
HETATM   21  H9          0      71.965  45.830  39.010  1.00  0.00     0.218 HD
ENDBRANCH  17  20
BRANCH  18  22
HETATM   22  O11         0      72.886  48.244  39.439  1.00  0.00    -0.357 OA
HETATM   23  H11         0      73.697  48.663  39.703  1.00  0.00     0.218 HD
ENDBRANCH  18  22
ENDBRANCH   4  14
BRANCH   8  24
HETATM   24  O17         0      76.408  46.389  30.722  1.00  0.00    -0.359 OA
HETATM   25  H17         0      75.684  45.775  30.752  1.00  0.00     0.218 HD
ENDBRANCH   8  24
TORSDOF 5
ENDMDL
MODEL 2
REMARK VINA RESULT:      -5.9     16.687     17.993
REMARK  5 active torsions:
REMARK  status: ('A' for Active; 'I' for Inactive)
REMARK    1  A    between atoms: C4_4  and  C5_5 
REMARK    2  A    between atoms: C8_8  and  O9_9 
REMARK    3  A    between atoms: C10_11  and  O11_12 
REMARK    4  A    between atoms: C16_18  and  O17_19 
REMARK    5  A    between atoms: C19_22  and  O20_23 
ROOT
HETATM    1  O1          0      62.305  38.457  39.746  1.00  0.00    -0.286 OA
HETATM    2  C2          0      62.083  37.897  38.637  1.00  0.00     0.201 C 
HETATM    3  C3          0      62.700  36.717  38.256  1.00  0.00     0.067 C 
HETATM    4  C4          0      62.515  36.176  36.988  1.00  0.00     0.103 C 
HETATM    5  O13         0      61.714  36.799  36.142  1.00  0.00    -0.307 OA
HETATM    6  C14         0      61.133  37.940  36.441  1.00  0.00     0.107 C 
HETATM    7  C15         0      60.634  38.785  35.460  1.00  0.00     0.049 C 
HETATM    8  C16         0      60.257  40.090  35.755  1.00  0.00     0.093 C 
HETATM    9  C18         0      59.905  40.314  37.080  1.00  0.00     0.048 C 
HETATM   10  C19         0      60.349  39.461  38.082  1.00  0.00     0.096 C 
HETATM   11  C21         0      61.125  38.382  37.760  1.00  0.00     0.084 C 
ENDROOT
BRANCH  10  12
HETATM   12  O20         0      60.372  39.912  39.398  1.00  0.00    -0.359 OA
HETATM   13  H20         0      59.599  39.768  39.931  1.00  0.00     0.218 HD
ENDBRANCH  10  12
BRANCH   4  14
HETATM   14  C5          0      63.592  35.340  36.454  1.00  0.00     0.025 C 
HETATM   15  C6          0      63.975  34.142  37.039  1.00  0.00     0.004 C 
HETATM   16  C7          0      64.324  33.094  36.193  1.00  0.00     0.026 C 
HETATM   17  C8          0      64.420  33.269  34.817  1.00  0.00     0.112 C 
HETATM   18  C10         0      64.644  34.578  34.413  1.00  0.00     0.112 C 
HETATM   19  C12         0      64.208  35.608  35.238  1.00  0.00     0.028 C 
BRANCH  17  20
HETATM   20  O9          0      64.100  32.241  33.948  1.00  0.00    -0.357 OA
HETATM   21  H9          0      64.387  32.206  33.042  1.00  0.00     0.218 HD
ENDBRANCH  17  20
BRANCH  18  22
HETATM   22  O11         0      64.935  34.781  33.071  1.00  0.00    -0.357 OA
HETATM   23  H11         0      65.842  34.957  32.850  1.00  0.00     0.218 HD
ENDBRANCH  18  22
ENDBRANCH   4  14
BRANCH   8  24
HETATM   24  O17         0      60.537  41.145  34.879  1.00  0.00    -0.359 OA
HETATM   25  H17         0      61.427  41.431  34.710  1.00  0.00     0.218 HD
ENDBRANCH   8  24
TORSDOF 5
ENDMDL
MODEL 3
REMARK VINA RESULT:      -5.7     15.348     17.675
REMARK  5 active torsions:
REMARK  status: ('A' for Active; 'I' for Inactive)
REMARK    1  A    between atoms: C4_4  and  C5_5 
REMARK    2  A    between atoms: C8_8  and  O9_9 
REMARK    3  A    between atoms: C10_11  and  O11_12 
REMARK    4  A    between atoms: C16_18  and  O17_19 
REMARK    5  A    between atoms: C19_22  and  O20_23 
ROOT
HETATM    1  O1          0      63.989  31.026  33.767  1.00  0.00    -0.286 OA
HETATM    2  C2          0      64.842  31.858  34.181  1.00  0.00     0.201 C 
HETATM    3  C3          0      64.624  32.673  35.279  1.00  0.00     0.067 C 
HETATM    4  C4          0      65.538  33.652  35.652  1.00  0.00     0.103 C 
HETATM    5  O13         0      66.647  33.787  34.947  1.00  0.00    -0.307 OA
HETATM    6  C14         0      66.885  33.066  33.874  1.00  0.00     0.107 C 
HETATM    7  C15         0      67.815  33.457  32.921  1.00  0.00     0.049 C 
HETATM    8  C16         0      67.881  32.836  31.679  1.00  0.00     0.093 C 
HETATM    9  C18         0      67.387  31.538  31.645  1.00  0.00     0.048 C 
HETATM   10  C19         0      66.491  31.099  32.610  1.00  0.00     0.096 C 
HETATM   11  C21         0      66.104  31.945  33.613  1.00  0.00     0.084 C 
ENDROOT
BRANCH  10  12
HETATM   12  O20         0      65.685  29.997  32.339  1.00  0.00    -0.359 OA
HETATM   13  H20         0      65.779  29.230  32.891  1.00  0.00     0.218 HD
ENDBRANCH  10  12
BRANCH   4  14
HETATM   14  C5          0      65.017  34.814  36.376  1.00  0.00     0.025 C 
HETATM   15  C6          0      63.771  34.822  36.986  1.00  0.00     0.004 C 
HETATM   16  C7          0      63.657  35.477  38.209  1.00  0.00     0.026 C 
HETATM   17  C8          0      64.709  36.212  38.743  1.00  0.00     0.112 C 
HETATM   18  C10         0      65.636  36.660  37.811  1.00  0.00     0.112 C 
HETATM   19  C12         0      65.790  35.938  36.634  1.00  0.00     0.028 C 
BRANCH  17  20
HETATM   20  O9          0      64.898  36.288  40.112  1.00  0.00    -0.357 OA
HETATM   21  H9          0      65.671  35.960  40.557  1.00  0.00     0.218 HD
ENDBRANCH  17  20
BRANCH  18  22
HETATM   22  O11         0      66.598  37.554  38.260  1.00  0.00    -0.357 OA
HETATM   23  H11         0      67.470  37.207  38.409  1.00  0.00     0.218 HD
ENDBRANCH  18  22
ENDBRANCH   4  14
BRANCH   8  24
HETATM   24  O17         0      68.106  33.569  30.509  1.00  0.00    -0.359 OA
HETATM   25  H17         0      68.980  33.696  30.159  1.00  0.00     0.218 HD
ENDBRANCH   8  24
TORSDOF 5
ENDMDL
MODEL 4
REMARK VINA RESULT:      -5.6     13.312     16.120
REMARK  5 active torsions:
REMARK  status: ('A' for Active; 'I' for Inactive)
REMARK    1  A    between atoms: C4_4  and  C5_5 
REMARK    2  A    between atoms: C8_8  and  O9_9 
REMARK    3  A    between atoms: C10_11  and  O11_12 
REMARK    4  A    between atoms: C16_18  and  O17_19 
REMARK    5  A    between atoms: C19_22  and  O20_23 
ROOT
HETATM    1  O1          0      64.932  34.795  33.862  1.00  0.00    -0.286 OA
HETATM    2  C2          0      65.049  35.161  35.064  1.00  0.00     0.201 C 
HETATM    3  C3          0      63.969  35.275  35.923  1.00  0.00     0.067 C 
HETATM    4  C4          0      64.113  35.779  37.211  1.00  0.00     0.103 C 
HETATM    5  O13         0      65.316  36.136  37.622  1.00  0.00    -0.307 OA
HETATM    6  C14         0      66.368  36.083  36.835  1.00  0.00     0.107 C 
HETATM    7  C15         0      67.520  36.809  37.104  1.00  0.00     0.049 C 
HETATM    8  C16         0      68.522  36.953  36.152  1.00  0.00     0.093 C 
HETATM    9  C18         0      68.567  35.949  35.192  1.00  0.00     0.048 C 
HETATM   10  C19         0      67.446  35.173  34.930  1.00  0.00     0.096 C 
HETATM   11  C21         0      66.293  35.386  35.634  1.00  0.00     0.084 C 
ENDROOT
BRANCH  10  12
HETATM   12  O20         0      67.354  34.499  33.716  1.00  0.00    -0.359 OA
HETATM   13  H20         0      67.499  34.996  32.919  1.00  0.00     0.218 HD
ENDBRANCH  10  12
BRANCH   4  14
HETATM   14  C5          0      62.943  36.420  37.813  1.00  0.00     0.025 C 
HETATM   15  C6          0      62.951  36.949  39.096  1.00  0.00     0.004 C 
HETATM   16  C7          0      62.256  38.134  39.309  1.00  0.00     0.026 C 
HETATM   17  C8          0      61.467  38.706  38.317  1.00  0.00     0.112 C 
HETATM   18  C10         0      61.024  37.819  37.345  1.00  0.00     0.112 C 
HETATM   19  C12         0      61.784  36.683  37.092  1.00  0.00     0.028 C 
BRANCH  17  20
HETATM   20  O9          0      61.334  40.080  38.221  1.00  0.00    -0.357 OA
HETATM   21  H9          0      61.845  40.620  37.629  1.00  0.00     0.218 HD
ENDBRANCH  17  20
BRANCH  18  22
HETATM   22  O11         0      60.084  38.294  36.442  1.00  0.00    -0.357 OA
HETATM   23  H11         0      59.982  39.237  36.384  1.00  0.00     0.218 HD
ENDBRANCH  18  22
ENDBRANCH   4  14
BRANCH   8  24
HETATM   24  O17         0      69.196  38.167  35.980  1.00  0.00    -0.359 OA
HETATM   25  H17         0      68.744  38.952  35.693  1.00  0.00     0.218 HD
ENDBRANCH   8  24
TORSDOF 5
ENDMDL
MODEL 5
REMARK VINA RESULT:      -5.6     16.065     16.894
REMARK  5 active torsions:
REMARK  status: ('A' for Active; 'I' for Inactive)
REMARK    1  A    between atoms: C4_4  and  C5_5 
REMARK    2  A    between atoms: C8_8  and  O9_9 
REMARK    3  A    between atoms: C10_11  and  O11_12 
REMARK    4  A    between atoms: C16_18  and  O17_19 
REMARK    5  A    between atoms: C19_22  and  O20_23 
ROOT
HETATM    1  O1          0      63.931  36.270  32.899  1.00  0.00    -0.286 OA
HETATM    2  C2          0      63.469  36.241  34.072  1.00  0.00     0.201 C 
HETATM    3  C3          0      62.267  36.834  34.420  1.00  0.00     0.067 C 
HETATM    4  C4          0      61.830  36.877  35.739  1.00  0.00     0.103 C 
HETATM    5  O13         0      62.579  36.318  36.674  1.00  0.00    -0.307 OA
HETATM    6  C14         0      63.746  35.775  36.404  1.00  0.00     0.107 C 
HETATM    7  C15         0      64.696  35.556  37.390  1.00  0.00     0.049 C 
HETATM    8  C16         0      66.007  35.225  37.069  1.00  0.00     0.093 C 
HETATM    9  C18         0      66.173  34.623  35.828  1.00  0.00     0.048 C 
HETATM   10  C19         0      65.218  34.783  34.833  1.00  0.00     0.096 C 
HETATM   11  C21         0      64.097  35.526  35.081  1.00  0.00     0.084 C 
ENDROOT
BRANCH  10  12
HETATM   12  O20         0      65.576  34.565  33.506  1.00  0.00    -0.359 OA
HETATM   13  H20         0      64.906  34.671  32.841  1.00  0.00     0.218 HD
ENDBRANCH  10  12
BRANCH   4  14
HETATM   14  C5          0      60.938  37.975  36.114  1.00  0.00     0.025 C 
HETATM   15  C6          0      60.425  38.124  37.395  1.00  0.00     0.004 C 
HETATM   16  C7          0      60.318  39.416  37.900  1.00  0.00     0.026 C 
HETATM   17  C8          0      60.585  40.531  37.113  1.00  0.00     0.112 C 
HETATM   18  C10         0      60.463  40.319  35.746  1.00  0.00     0.112 C 
HETATM   19  C12         0      60.659  39.033  35.258  1.00  0.00     0.028 C 
BRANCH  17  20
HETATM   20  O9          0      61.129  41.676  37.667  1.00  0.00    -0.357 OA
HETATM   21  H9          0      62.061  41.804  37.805  1.00  0.00     0.218 HD
ENDBRANCH  17  20
BRANCH  18  22
HETATM   22  O11         0      60.531  41.438  34.928  1.00  0.00    -0.357 OA
HETATM   23  H11         0      59.707  41.843  34.685  1.00  0.00     0.218 HD
ENDBRANCH  18  22
ENDBRANCH   4  14
BRANCH   8  24
HETATM   24  O17         0      67.088  35.759  37.778  1.00  0.00    -0.359 OA
HETATM   25  H17         0      67.271  36.691  37.782  1.00  0.00     0.218 HD
ENDBRANCH   8  24
TORSDOF 5
ENDMDL
MODEL 6
REMARK VINA RESULT:      -5.6     16.617     18.453
REMARK  5 active torsions:
REMARK  status: ('A' for Active; 'I' for Inactive)
REMARK    1  A    between atoms: C4_4  and  C5_5 
REMARK    2  A    between atoms: C8_8  and  O9_9 
REMARK    3  A    between atoms: C10_11  and  O11_12 
REMARK    4  A    between atoms: C16_18  and  O17_19 
REMARK    5  A    between atoms: C19_22  and  O20_23 
ROOT
HETATM    1  O1          0      64.002  30.570  33.374  1.00  0.00    -0.286 OA
HETATM    2  C2          0      64.786  31.353  33.977  1.00  0.00     0.201 C 
HETATM    3  C3          0      64.466  31.956  35.182  1.00  0.00     0.067 C 
HETATM    4  C4          0      65.305  32.894  35.773  1.00  0.00     0.103 C 
HETATM    5  O13         0      66.443  33.195  35.173  1.00  0.00    -0.307 OA
HETATM    6  C14         0      66.778  32.680  34.010  1.00  0.00     0.107 C 
HETATM    7  C15         0      67.738  33.269  33.200  1.00  0.00     0.049 C 
HETATM    8  C16         0      67.905  32.875  31.877  1.00  0.00     0.093 C 
HETATM    9  C18         0      67.482  31.583  31.592  1.00  0.00     0.048 C 
HETATM   10  C19         0      66.558  30.946  32.409  1.00  0.00     0.096 C 
HETATM   11  C21         0      66.072  31.590  33.514  1.00  0.00     0.084 C 
ENDROOT
BRANCH  10  12
HETATM   12  O20         0      65.827  29.875  31.903  1.00  0.00    -0.359 OA
HETATM   13  H20         0      65.606  29.883  30.980  1.00  0.00     0.218 HD
ENDBRANCH  10  12
BRANCH   4  14
HETATM   14  C5          0      64.684  33.890  36.648  1.00  0.00     0.025 C 
HETATM   15  C6          0      65.093  35.215  36.688  1.00  0.00     0.004 C 
HETATM   16  C7          0      64.110  36.189  36.829  1.00  0.00     0.026 C 
HETATM   17  C8          0      62.779  35.855  37.058  1.00  0.00     0.112 C 
HETATM   18  C10         0      62.585  34.600  37.620  1.00  0.00     0.112 C 
HETATM   19  C12         0      63.543  33.619  37.392  1.00  0.00     0.028 C 
BRANCH  17  20
HETATM   20  O9          0      61.756  36.640  36.558  1.00  0.00    -0.357 OA
HETATM   21  H9          0      61.746  37.589  36.606  1.00  0.00     0.218 HD
ENDBRANCH  17  20
BRANCH  18  22
HETATM   22  O11         0      61.299  34.293  38.041  1.00  0.00    -0.357 OA
HETATM   23  H11         0      61.149  34.268  38.979  1.00  0.00     0.218 HD
ENDBRANCH  18  22
ENDBRANCH   4  14
BRANCH   8  24
HETATM   24  O17         0      68.156  33.808  30.865  1.00  0.00    -0.359 OA
HETATM   25  H17         0      68.555  34.650  31.050  1.00  0.00     0.218 HD
ENDBRANCH   8  24
TORSDOF 5
ENDMDL
MODEL 7
REMARK VINA RESULT:      -5.5     17.182     17.699
REMARK  5 active torsions:
REMARK  status: ('A' for Active; 'I' for Inactive)
REMARK    1  A    between atoms: C4_4  and  C5_5 
REMARK    2  A    between atoms: C8_8  and  O9_9 
REMARK    3  A    between atoms: C10_11  and  O11_12 
REMARK    4  A    between atoms: C16_18  and  O17_19 
REMARK    5  A    between atoms: C19_22  and  O20_23 
ROOT
HETATM    1  O1          0      65.389  33.484  38.376  1.00  0.00    -0.286 OA
HETATM    2  C2          0      65.040  34.083  37.322  1.00  0.00     0.201 C 
HETATM    3  C3          0      64.131  35.127  37.318  1.00  0.00     0.067 C 
HETATM    4  C4          0      63.685  35.702  36.133  1.00  0.00     0.103 C 
HETATM    5  O13         0      64.163  35.246  34.988  1.00  0.00    -0.307 OA
HETATM    6  C14         0      65.000  34.233  34.934  1.00  0.00     0.107 C 
HETATM    7  C15         0      65.189  33.504  33.768  1.00  0.00     0.049 C 
HETATM    8  C16         0      65.869  32.292  33.778  1.00  0.00     0.093 C 
HETATM    9  C18         0      66.765  32.130  34.828  1.00  0.00     0.048 C 
HETATM   10  C19         0      66.633  32.878  35.990  1.00  0.00     0.096 C 
HETATM   11  C21         0      65.622  33.793  36.097  1.00  0.00     0.084 C 
ENDROOT
BRANCH  10  12
HETATM   12  O20         0      67.228  32.423  37.163  1.00  0.00    -0.359 OA
HETATM   13  H20         0      67.192  31.492  37.348  1.00  0.00     0.218 HD
ENDBRANCH  10  12
BRANCH   4  14
HETATM   14  C5          0      62.360  36.322  36.146  1.00  0.00     0.025 C 
HETATM   15  C6          0      61.566  36.376  37.283  1.00  0.00     0.004 C 
HETATM   16  C7          0      60.825  37.534  37.497  1.00  0.00     0.026 C 
HETATM   17  C8          0      60.769  38.550  36.549  1.00  0.00     0.112 C 
HETATM   18  C10         0      61.047  38.147  35.250  1.00  0.00     0.112 C 
HETATM   19  C12         0      61.860  37.035  35.064  1.00  0.00     0.028 C 
BRANCH  17  20
HETATM   20  O9          0      60.653  39.874  36.934  1.00  0.00    -0.357 OA
HETATM   21  H9          0      61.384  40.401  37.239  1.00  0.00     0.218 HD
ENDBRANCH  17  20
BRANCH  18  22
HETATM   22  O11         0      60.821  39.073  34.242  1.00  0.00    -0.357 OA
HETATM   23  H11         0      61.556  39.281  33.676  1.00  0.00     0.218 HD
ENDBRANCH  18  22
ENDBRANCH   4  14
BRANCH   8  24
HETATM   24  O17         0      65.439  31.209  33.004  1.00  0.00    -0.359 OA
HETATM   25  H17         0      65.749  31.075  32.116  1.00  0.00     0.218 HD
ENDBRANCH   8  24
TORSDOF 5
ENDMDL
MODEL 8
REMARK VINA RESULT:      -5.4     17.227     19.037
REMARK  5 active torsions:
REMARK  status: ('A' for Active; 'I' for Inactive)
REMARK    1  A    between atoms: C4_4  and  C5_5 
REMARK    2  A    between atoms: C8_8  and  O9_9 
REMARK    3  A    between atoms: C10_11  and  O11_12 
REMARK    4  A    between atoms: C16_18  and  O17_19 
REMARK    5  A    between atoms: C19_22  and  O20_23 
ROOT
HETATM    1  O1          0      63.663  34.979  32.722  1.00  0.00    -0.286 OA
HETATM    2  C2          0      64.585  34.436  33.390  1.00  0.00     0.201 C 
HETATM    3  C3          0      65.558  33.637  32.814  1.00  0.00     0.067 C 
HETATM    4  C4          0      66.501  32.967  33.585  1.00  0.00     0.103 C 
HETATM    5  O13         0      66.473  33.121  34.898  1.00  0.00    -0.307 OA
HETATM    6  C14         0      65.548  33.838  35.498  1.00  0.00     0.107 C 
HETATM    7  C15         0      65.267  33.685  36.848  1.00  0.00     0.049 C 
HETATM    8  C16         0      64.132  34.251  37.417  1.00  0.00     0.093 C 
HETATM    9  C18         0      63.627  35.357  36.744  1.00  0.00     0.048 C 
HETATM   10  C19         0      63.927  35.565  35.404  1.00  0.00     0.096 C 
HETATM   11  C21         0      64.740  34.683  34.746  1.00  0.00     0.084 C 
ENDROOT
BRANCH  10  12
HETATM   12  O20         0      63.101  36.385  34.642  1.00  0.00    -0.359 OA
HETATM   13  H20         0      62.166  36.349  34.803  1.00  0.00     0.218 HD
ENDBRANCH  10  12
BRANCH   4  14
HETATM   14  C5          0      67.067  31.736  33.032  1.00  0.00     0.025 C 
HETATM   15  C6          0      66.287  30.651  32.658  1.00  0.00     0.004 C 
HETATM   16  C7          0      66.658  29.953  31.514  1.00  0.00     0.026 C 
HETATM   17  C8          0      67.840  30.237  30.838  1.00  0.00     0.112 C 
HETATM   18  C10         0      68.815  30.856  31.609  1.00  0.00     0.112 C 
HETATM   19  C12         0      68.410  31.618  32.699  1.00  0.00     0.028 C 
BRANCH  17  20
HETATM   20  O9          0      67.922  30.097  29.464  1.00  0.00    -0.357 OA
HETATM   21  H9          0      67.708  30.790  28.849  1.00  0.00     0.218 HD
ENDBRANCH  17  20
BRANCH  18  22
HETATM   22  O11         0      70.074  30.990  31.041  1.00  0.00    -0.357 OA
HETATM   23  H11         0      70.773  30.468  31.417  1.00  0.00     0.218 HD
ENDBRANCH  18  22
ENDBRANCH   4  14
BRANCH   8  24
HETATM   24  O17         0      63.378  33.565  38.375  1.00  0.00    -0.359 OA
HETATM   25  H17         0      63.067  32.680  38.226  1.00  0.00     0.218 HD
ENDBRANCH   8  24
TORSDOF 5
ENDMDL
MODEL 9
REMARK VINA RESULT:      -5.4     15.873     18.918
REMARK  5 active torsions:
REMARK  status: ('A' for Active; 'I' for Inactive)
REMARK    1  A    between atoms: C4_4  and  C5_5 
REMARK    2  A    between atoms: C8_8  and  O9_9 
REMARK    3  A    between atoms: C10_11  and  O11_12 
REMARK    4  A    between atoms: C16_18  and  O17_19 
REMARK    5  A    between atoms: C19_22  and  O20_23 
ROOT
HETATM    1  O1          0      63.647  32.114  36.166  1.00  0.00    -0.286 OA
HETATM    2  C2          0      64.482  32.483  35.296  1.00  0.00     0.201 C 
HETATM    3  C3          0      65.008  31.621  34.348  1.00  0.00     0.067 C 
HETATM    4  C4          0      66.003  32.027  33.466  1.00  0.00     0.103 C 
HETATM    5  O13         0      66.436  33.274  33.528  1.00  0.00    -0.307 OA
HETATM    6  C14         0      65.997  34.122  34.433  1.00  0.00     0.107 C 
HETATM    7  C15         0      66.706  35.268  34.765  1.00  0.00     0.049 C 
HETATM    8  C16         0      66.377  36.020  35.886  1.00  0.00     0.093 C 
HETATM    9  C18         0      65.060  35.895  36.311  1.00  0.00     0.048 C 
HETATM   10  C19         0      64.307  34.784  35.958  1.00  0.00     0.096 C 
HETATM   11  C21         0      64.861  33.811  35.171  1.00  0.00     0.084 C 
ENDROOT
BRANCH  10  12
HETATM   12  O20         0      63.187  34.452  36.715  1.00  0.00    -0.359 OA
HETATM   13  H20         0      63.326  34.034  37.556  1.00  0.00     0.218 HD
ENDBRANCH  10  12
BRANCH   4  14
HETATM   14  C5          0      66.902  30.994  32.948  1.00  0.00     0.025 C 
HETATM   15  C6          0      66.636  30.279  31.789  1.00  0.00     0.004 C 
HETATM   16  C7          0      67.710  29.981  30.955  1.00  0.00     0.026 C 
HETATM   17  C8          0      69.020  30.266  31.323  1.00  0.00     0.112 C 
HETATM   18  C10         0      69.227  30.377  32.692  1.00  0.00     0.112 C 
HETATM   19  C12         0      68.157  30.758  33.493  1.00  0.00     0.028 C 
BRANCH  17  20
HETATM   20  O9          0      69.963  30.615  30.373  1.00  0.00    -0.357 OA
HETATM   21  H9          0      70.258  30.032  29.683  1.00  0.00     0.218 HD
ENDBRANCH  17  20
BRANCH  18  22
HETATM   22  O11         0      70.543  30.472  33.123  1.00  0.00    -0.357 OA
HETATM   23  H11         0      71.067  29.680  33.081  1.00  0.00     0.218 HD
ENDBRANCH  18  22
ENDBRANCH   4  14
BRANCH   8  24
HETATM   24  O17         0      67.364  36.578  36.705  1.00  0.00    -0.359 OA
HETATM   25  H17         0      68.076  37.096  36.348  1.00  0.00     0.218 HD
ENDBRANCH   8  24
TORSDOF 5
ENDMDL
