MODEL 1
REMARK VINA RESULT:      -4.9      0.000      0.000
REMARK  5 active torsions:
REMARK  status: ('A' for Active; 'I' for Inactive)
REMARK    1  A    between atoms: C4_4  and  C5_5 
REMARK    2  A    between atoms: C8_8  and  O9_9 
REMARK    3  A    between atoms: C10_11  and  O11_12 
REMARK    4  A    between atoms: C16_18  and  O17_19 
REMARK    5  A    between atoms: C19_22  and  O20_23 
ROOT
HETATM    1  O1          0      37.284 115.802  -0.427  1.00  0.00    -0.286 OA
HETATM    2  C2          0      36.308 115.024  -0.608  1.00  0.00     0.201 C 
HETATM    3  C3          0      36.459 113.717  -1.039  1.00  0.00     0.067 C 
HETATM    4  C4          0      35.362 112.914  -1.329  1.00  0.00     0.103 C 
HETATM    5  O13         0      34.149 113.413  -1.166  1.00  0.00    -0.307 OA
HETATM    6  C14         0      33.950 114.658  -0.795  1.00  0.00     0.107 C 
HETATM    7  C15         0      32.737 115.298  -1.005  1.00  0.00     0.049 C 
HETATM    8  C16         0      32.610 116.673  -0.849  1.00  0.00     0.093 C 
HETATM    9  C18         0      33.541 117.256   0.003  1.00  0.00     0.048 C 
HETATM   10  C19         0      34.745 116.620   0.272  1.00  0.00     0.096 C 
HETATM   11  C21         0      35.012 115.403  -0.293  1.00  0.00     0.084 C 
ENDROOT
BRANCH  10  12
HETATM   12  O20         0      35.819 117.369   0.744  1.00  0.00    -0.359 OA
HETATM   13  H20         0      35.816 118.305   0.580  1.00  0.00     0.218 HD
ENDBRANCH  10  12
BRANCH   4  14
HETATM   14  C5          0      35.557 111.840  -2.305  1.00  0.00     0.025 C 
HETATM   15  C6          0      34.784 111.715  -3.451  1.00  0.00     0.004 C 
HETATM   16  C7          0      35.422 111.305  -4.617  1.00  0.00     0.026 C 
HETATM   17  C8          0      36.753 110.902  -4.617  1.00  0.00     0.112 C 
HETATM   18  C10         0      37.226 110.463  -3.388  1.00  0.00     0.112 C 
HETATM   19  C12         0      36.626 110.956  -2.235  1.00  0.00     0.028 C 
BRANCH  17  20
HETATM   20  O9          0      37.564 111.134  -5.714  1.00  0.00    -0.357 OA
HETATM   21  H9          0      38.511 111.185  -5.669  1.00  0.00     0.218 HD
ENDBRANCH  17  20
BRANCH  18  22
HETATM   22  O11         0      38.483 109.875  -3.372  1.00  0.00    -0.357 OA
HETATM   23  H11         0      39.223 110.436  -3.572  1.00  0.00     0.218 HD
ENDBRANCH  18  22
ENDBRANCH   4  14
BRANCH   8  24
HETATM   24  O17         0      31.838 117.439  -1.730  1.00  0.00    -0.359 OA
HETATM   25  H17         0      32.004 117.441  -2.666  1.00  0.00     0.218 HD
ENDBRANCH   8  24
TORSDOF 5
ENDMDL
MODEL 2
REMARK VINA RESULT:      -4.8      1.718      2.407
REMARK  5 active torsions:
REMARK  status: ('A' for Active; 'I' for Inactive)
REMARK    1  A    between atoms: C4_4  and  C5_5 
REMARK    2  A    between atoms: C8_8  and  O9_9 
REMARK    3  A    between atoms: C10_11  and  O11_12 
REMARK    4  A    between atoms: C16_18  and  O17_19 
REMARK    5  A    between atoms: C19_22  and  O20_23 
ROOT
HETATM    1  O1          0      34.800 114.000   1.302  1.00  0.00    -0.286 OA
HETATM    2  C2          0      34.963 114.047   0.052  1.00  0.00     0.201 C 
HETATM    3  C3          0      34.762 112.954  -0.773  1.00  0.00     0.067 C 
HETATM    4  C4          0      35.048 113.004  -2.132  1.00  0.00     0.103 C 
HETATM    5  O13         0      35.504 114.134  -2.644  1.00  0.00    -0.307 OA
HETATM    6  C14         0      35.748 115.190  -1.899  1.00  0.00     0.107 C 
HETATM    7  C15         0      36.580 116.213  -2.331  1.00  0.00     0.049 C 
HETATM    8  C16         0      37.037 117.191  -1.455  1.00  0.00     0.093 C 
HETATM    9  C18         0      36.235 117.400  -0.339  1.00  0.00     0.048 C 
HETATM   10  C19         0      35.358 116.415   0.093  1.00  0.00     0.096 C 
HETATM   11  C21         0      35.269 115.235  -0.594  1.00  0.00     0.084 C 
ENDROOT
BRANCH  10  12
HETATM   12  O20         0      34.901 116.440   1.408  1.00  0.00    -0.359 OA
HETATM   13  H20         0      34.419 115.687   1.726  1.00  0.00     0.218 HD
ENDBRANCH  10  12
BRANCH   4  14
HETATM   14  C5          0      35.391 111.743  -2.792  1.00  0.00     0.025 C 
HETATM   15  C6          0      34.678 111.240  -3.870  1.00  0.00     0.004 C 
HETATM   16  C7          0      35.397 110.615  -4.884  1.00  0.00     0.026 C 
HETATM   17  C8          0      36.762 110.378  -4.770  1.00  0.00     0.112 C 
HETATM   18  C10         0      37.236 110.330  -3.465  1.00  0.00     0.112 C 
HETATM   19  C12         0      36.545 111.033  -2.486  1.00  0.00     0.028 C 
BRANCH  17  20
HETATM   20  O9          0      37.582 110.407  -5.884  1.00  0.00    -0.357 OA
HETATM   21  H9          0      37.335 110.054  -6.731  1.00  0.00     0.218 HD
ENDBRANCH  17  20
BRANCH  18  22
HETATM   22  O11         0      38.547 109.911  -3.288  1.00  0.00    -0.357 OA
HETATM   23  H11         0      39.139 110.030  -4.021  1.00  0.00     0.218 HD
ENDBRANCH  18  22
ENDBRANCH   4  14
BRANCH   8  24
HETATM   24  O17         0      38.349 117.671  -1.519  1.00  0.00    -0.359 OA
HETATM   25  H17         0      38.577 118.542  -1.217  1.00  0.00     0.218 HD
ENDBRANCH   8  24
TORSDOF 5
ENDMDL
MODEL 3
REMARK VINA RESULT:      -4.8      1.595      6.768
REMARK  5 active torsions:
REMARK  status: ('A' for Active; 'I' for Inactive)
REMARK    1  A    between atoms: C4_4  and  C5_5 
REMARK    2  A    between atoms: C8_8  and  O9_9 
REMARK    3  A    between atoms: C10_11  and  O11_12 
REMARK    4  A    between atoms: C16_18  and  O17_19 
REMARK    5  A    between atoms: C19_22  and  O20_23 
ROOT
HETATM    1  O1          0      33.463 112.554  -5.206  1.00  0.00    -0.286 OA
HETATM    2  C2          0      33.884 112.700  -4.026  1.00  0.00     0.201 C 
HETATM    3  C3          0      33.553 113.791  -3.241  1.00  0.00     0.067 C 
HETATM    4  C4          0      34.112 113.980  -1.982  1.00  0.00     0.103 C 
HETATM    5  O13         0      34.965 113.080  -1.525  1.00  0.00    -0.307 OA
HETATM    6  C14         0      35.343 112.046  -2.245  1.00  0.00     0.107 C 
HETATM    7  C15         0      36.501 111.338  -1.957  1.00  0.00     0.049 C 
HETATM    8  C16         0      37.028 110.420  -2.856  1.00  0.00     0.093 C 
HETATM    9  C18         0      36.109 109.875  -3.745  1.00  0.00     0.048 C 
HETATM   10  C19         0      34.919 110.534  -4.021  1.00  0.00     0.096 C 
HETATM   11  C21         0      34.640 111.721  -3.400  1.00  0.00     0.084 C 
ENDROOT
BRANCH  10  12
HETATM   12  O20         0      34.230 110.233  -5.192  1.00  0.00    -0.359 OA
HETATM   13  H20         0      33.529 110.815  -5.459  1.00  0.00     0.218 HD
ENDBRANCH  10  12
BRANCH   4  14
HETATM   14  C5          0      34.210 115.356  -1.492  1.00  0.00     0.025 C 
HETATM   15  C6          0      33.101 116.103  -1.121  1.00  0.00     0.004 C 
HETATM   16  C7          0      33.228 116.938  -0.016  1.00  0.00     0.026 C 
HETATM   17  C8          0      34.450 117.129   0.619  1.00  0.00     0.112 C 
HETATM   18  C10         0      35.561 116.869  -0.173  1.00  0.00     0.112 C 
HETATM   19  C12         0      35.429 115.965  -1.220  1.00  0.00     0.028 C 
BRANCH  17  20
HETATM   20  O9          0      34.514 117.350   1.983  1.00  0.00    -0.357 OA
HETATM   21  H9          0      34.914 116.746   2.598  1.00  0.00     0.218 HD
ENDBRANCH  17  20
BRANCH  18  22
HETATM   22  O11         0      36.799 117.223   0.345  1.00  0.00    -0.357 OA
HETATM   23  H11         0      37.243 117.957  -0.064  1.00  0.00     0.218 HD
ENDBRANCH  18  22
ENDBRANCH   4  14
BRANCH   8  24
HETATM   24  O17         0      38.407 110.315  -3.067  1.00  0.00    -0.359 OA
HETATM   25  H17         0      38.865 110.890  -3.669  1.00  0.00     0.218 HD
ENDBRANCH   8  24
TORSDOF 5
ENDMDL
MODEL 4
REMARK VINA RESULT:      -4.8      7.348     10.470
REMARK  5 active torsions:
REMARK  status: ('A' for Active; 'I' for Inactive)
REMARK    1  A    between atoms: C4_4  and  C5_5 
REMARK    2  A    between atoms: C8_8  and  O9_9 
REMARK    3  A    between atoms: C10_11  and  O11_12 
REMARK    4  A    between atoms: C16_18  and  O17_19 
REMARK    5  A    between atoms: C19_22  and  O20_23 
ROOT
HETATM    1  O1          0      35.220 118.380   2.762  1.00  0.00    -0.286 OA
HETATM    2  C2          0      35.299 119.576   2.369  1.00  0.00     0.201 C 
HETATM    3  C3          0      36.418 120.363   2.578  1.00  0.00     0.067 C 
HETATM    4  C4          0      36.440 121.708   2.227  1.00  0.00     0.103 C 
HETATM    5  O13         0      35.367 122.233   1.661  1.00  0.00    -0.307 OA
HETATM    6  C14         0      34.265 121.541   1.474  1.00  0.00     0.107 C 
HETATM    7  C15         0      33.040 122.158   1.265  1.00  0.00     0.049 C 
HETATM    8  C16         0      31.851 121.440   1.323  1.00  0.00     0.093 C 
HETATM    9  C18         0      31.973 120.080   1.065  1.00  0.00     0.048 C 
HETATM   10  C19         0      33.196 119.440   1.219  1.00  0.00     0.096 C 
HETATM   11  C21         0      34.293 120.157   1.612  1.00  0.00     0.084 C 
ENDROOT
BRANCH  10  12
HETATM   12  O20         0      33.224 118.059   1.389  1.00  0.00    -0.359 OA
HETATM   13  H20         0      33.482 117.525   0.648  1.00  0.00     0.218 HD
ENDBRANCH  10  12
BRANCH   4  14
HETATM   14  C5          0      37.339 122.583   2.981  1.00  0.00     0.025 C 
HETATM   15  C6          0      37.018 123.894   3.303  1.00  0.00     0.004 C 
HETATM   16  C7          0      37.406 124.364   4.553  1.00  0.00     0.026 C 
HETATM   17  C8          0      38.204 123.605   5.402  1.00  0.00     0.112 C 
HETATM   18  C10         0      38.970 122.637   4.767  1.00  0.00     0.112 C 
HETATM   19  C12         0      38.515 122.122   3.559  1.00  0.00     0.028 C 
BRANCH  17  20
HETATM   20  O9          0      38.059 123.690   6.776  1.00  0.00    -0.357 OA
HETATM   21  H9          0      38.002 122.934   7.349  1.00  0.00     0.218 HD
ENDBRANCH  17  20
BRANCH  18  22
HETATM   22  O11         0      39.920 121.981   5.537  1.00  0.00    -0.357 OA
HETATM   23  H11         0      40.111 122.352   6.391  1.00  0.00     0.218 HD
ENDBRANCH  18  22
ENDBRANCH   4  14
BRANCH   8  24
HETATM   24  O17         0      30.705 121.976   1.919  1.00  0.00    -0.359 OA
HETATM   25  H17         0      30.618 122.907   2.086  1.00  0.00     0.218 HD
ENDBRANCH   8  24
TORSDOF 5
ENDMDL
MODEL 5
REMARK VINA RESULT:      -4.7      3.844      5.644
REMARK  5 active torsions:
REMARK  status: ('A' for Active; 'I' for Inactive)
REMARK    1  A    between atoms: C4_4  and  C5_5 
REMARK    2  A    between atoms: C8_8  and  O9_9 
REMARK    3  A    between atoms: C10_11  and  O11_12 
REMARK    4  A    between atoms: C16_18  and  O17_19 
REMARK    5  A    between atoms: C19_22  and  O20_23 
ROOT
HETATM    1  O1          0      35.350 114.750  -0.446  1.00  0.00    -0.286 OA
HETATM    2  C2          0      36.134 115.738  -0.432  1.00  0.00     0.201 C 
HETATM    3  C3          0      37.433 115.671  -0.907  1.00  0.00     0.067 C 
HETATM    4  C4          0      38.309 116.744  -0.786  1.00  0.00     0.103 C 
HETATM    5  O13         0      37.875 117.857  -0.220  1.00  0.00    -0.307 OA
HETATM    6  C14         0      36.664 117.960   0.282  1.00  0.00     0.107 C 
HETATM    7  C15         0      36.337 118.940   1.208  1.00  0.00     0.049 C 
HETATM    8  C16         0      35.145 118.891   1.920  1.00  0.00     0.093 C 
HETATM    9  C18         0      34.123 118.177   1.306  1.00  0.00     0.048 C 
HETATM   10  C19         0      34.412 117.221   0.341  1.00  0.00     0.096 C 
HETATM   11  C21         0      35.712 116.993  -0.021  1.00  0.00     0.084 C 
ENDROOT
BRANCH  10  12
HETATM   12  O20         0      33.473 116.234   0.060  1.00  0.00    -0.359 OA
HETATM   13  H20         0      33.294 116.036  -0.852  1.00  0.00     0.218 HD
ENDBRANCH  10  12
BRANCH   4  14
HETATM   14  C5          0      39.740 116.438  -0.733  1.00  0.00     0.025 C 
HETATM   15  C6          0      40.661 117.259  -0.100  1.00  0.00     0.004 C 
HETATM   16  C7          0      41.696 116.646   0.601  1.00  0.00     0.026 C 
HETATM   17  C8          0      41.887 115.269   0.562  1.00  0.00     0.112 C 
HETATM   18  C10         0      41.348 114.639  -0.552  1.00  0.00     0.112 C 
HETATM   19  C12         0      40.259 115.231  -1.182  1.00  0.00     0.028 C 
BRANCH  17  20
HETATM   20  O9          0      42.386 114.592   1.661  1.00  0.00    -0.357 OA
HETATM   21  H9          0      43.049 113.913   1.606  1.00  0.00     0.218 HD
ENDBRANCH  17  20
BRANCH  18  22
HETATM   22  O11         0      41.670 113.302  -0.735  1.00  0.00    -0.357 OA
HETATM   23  H11         0      42.592 113.075  -0.710  1.00  0.00     0.218 HD
ENDBRANCH  18  22
ENDBRANCH   4  14
BRANCH   8  24
HETATM   24  O17         0      35.091 119.236   3.275  1.00  0.00    -0.359 OA
HETATM   25  H17         0      35.161 120.138   3.564  1.00  0.00     0.218 HD
ENDBRANCH   8  24
TORSDOF 5
ENDMDL
MODEL 6
REMARK VINA RESULT:      -4.6      3.242      5.501
REMARK  5 active torsions:
REMARK  status: ('A' for Active; 'I' for Inactive)
REMARK    1  A    between atoms: C4_4  and  C5_5 
REMARK    2  A    between atoms: C8_8  and  O9_9 
REMARK    3  A    between atoms: C10_11  and  O11_12 
REMARK    4  A    between atoms: C16_18  and  O17_19 
REMARK    5  A    between atoms: C19_22  and  O20_23 
ROOT
HETATM    1  O1          0      35.257 119.241   3.416  1.00  0.00    -0.286 OA
HETATM    2  C2          0      34.727 119.054   2.287  1.00  0.00     0.201 C 
HETATM    3  C3          0      34.746 117.829   1.642  1.00  0.00     0.067 C 
HETATM    4  C4          0      34.246 117.675   0.354  1.00  0.00     0.103 C 
HETATM    5  O13         0      33.723 118.726  -0.253  1.00  0.00    -0.307 OA
HETATM    6  C14         0      33.714 119.919   0.299  1.00  0.00     0.107 C 
HETATM    7  C15         0      33.547 121.072  -0.455  1.00  0.00     0.049 C 
HETATM    8  C16         0      33.791 122.329   0.085  1.00  0.00     0.093 C 
HETATM    9  C18         0      33.677 122.406   1.468  1.00  0.00     0.048 C 
HETATM   10  C19         0      33.792 121.265   2.249  1.00  0.00     0.096 C 
HETATM   11  C21         0      34.002 120.051   1.653  1.00  0.00     0.084 C 
ENDROOT
BRANCH  10  12
HETATM   12  O20         0      34.112 121.393   3.598  1.00  0.00    -0.359 OA
HETATM   13  H20         0      34.535 122.195   3.880  1.00  0.00     0.218 HD
ENDBRANCH  10  12
BRANCH   4  14
HETATM   14  C5          0      34.814 116.600  -0.461  1.00  0.00     0.025 C 
HETATM   15  C6          0      36.125 116.611  -0.913  1.00  0.00     0.004 C 
HETATM   16  C7          0      36.812 115.401  -0.929  1.00  0.00     0.026 C 
HETATM   17  C8          0      36.178 114.199  -0.634  1.00  0.00     0.112 C 
HETATM   18  C10         0      34.802 114.207  -0.822  1.00  0.00     0.112 C 
HETATM   19  C12         0      34.129 115.419  -0.717  1.00  0.00     0.028 C 
BRANCH  17  20
HETATM   20  O9          0      36.861 113.173  -0.006  1.00  0.00    -0.357 OA
HETATM   21  H9          0      36.809 112.262  -0.274  1.00  0.00     0.218 HD
ENDBRANCH  17  20
BRANCH  18  22
HETATM   22  O11         0      34.147 112.988  -0.726  1.00  0.00    -0.357 OA
HETATM   23  H11         0      33.869 112.716   0.141  1.00  0.00     0.218 HD
ENDBRANCH  18  22
ENDBRANCH   4  14
BRANCH   8  24
HETATM   24  O17         0      34.424 123.332  -0.658  1.00  0.00    -0.359 OA
HETATM   25  H17         0      34.288 123.421  -1.594  1.00  0.00     0.218 HD
ENDBRANCH   8  24
TORSDOF 5
ENDMDL
MODEL 7
REMARK VINA RESULT:      -4.6      2.586      7.854
REMARK  5 active torsions:
REMARK  status: ('A' for Active; 'I' for Inactive)
REMARK    1  A    between atoms: C4_4  and  C5_5 
REMARK    2  A    between atoms: C8_8  and  O9_9 
REMARK    3  A    between atoms: C10_11  and  O11_12 
REMARK    4  A    between atoms: C16_18  and  O17_19 
REMARK    5  A    between atoms: C19_22  and  O20_23 
ROOT
HETATM    1  O1          0      32.056 115.980  -2.299  1.00  0.00    -0.286 OA
HETATM    2  C2          0      32.839 116.192  -1.333  1.00  0.00     0.201 C 
HETATM    3  C3          0      32.815 117.359  -0.590  1.00  0.00     0.067 C 
HETATM    4  C4          0      33.755 117.611   0.403  1.00  0.00     0.103 C 
HETATM    5  O13         0      34.678 116.697   0.649  1.00  0.00    -0.307 OA
HETATM    6  C14         0      34.769 115.589  -0.052  1.00  0.00     0.107 C 
HETATM    7  C15         0      35.933 114.834  -0.080  1.00  0.00     0.049 C 
HETATM    8  C16         0      36.111 113.817  -1.009  1.00  0.00     0.093 C 
HETATM    9  C18         0      34.938 113.263  -1.506  1.00  0.00     0.048 C 
HETATM   10  C19         0      33.745 113.971  -1.451  1.00  0.00     0.096 C 
HETATM   11  C21         0      33.721 115.219  -0.889  1.00  0.00     0.084 C 
ENDROOT
BRANCH  10  12
HETATM   12  O20         0      32.707 113.623  -2.310  1.00  0.00    -0.359 OA
HETATM   13  H20         0      32.909 113.059  -3.047  1.00  0.00     0.218 HD
ENDBRANCH  10  12
BRANCH   4  14
HETATM   14  C5          0      34.053 119.012   0.704  1.00  0.00     0.025 C 
HETATM   15  C6          0      33.076 119.997   0.743  1.00  0.00     0.004 C 
HETATM   16  C7          0      33.188 120.978   1.723  1.00  0.00     0.026 C 
HETATM   17  C8          0      34.302 121.057   2.551  1.00  0.00     0.112 C 
HETATM   18  C10         0      35.450 120.470   2.037  1.00  0.00     0.112 C 
HETATM   19  C12         0      35.309 119.433   1.122  1.00  0.00     0.028 C 
BRANCH  17  20
HETATM   20  O9          0      34.184 121.500   3.857  1.00  0.00    -0.357 OA
HETATM   21  H9          0      33.600 122.199   4.127  1.00  0.00     0.218 HD
ENDBRANCH  17  20
BRANCH  18  22
HETATM   22  O11         0      36.631 120.684   2.733  1.00  0.00    -0.357 OA
HETATM   23  H11         0      36.555 120.886   3.658  1.00  0.00     0.218 HD
ENDBRANCH  18  22
ENDBRANCH   4  14
BRANCH   8  24
HETATM   24  O17         0      37.345 113.609  -1.636  1.00  0.00    -0.359 OA
HETATM   25  H17         0      38.149 113.519  -1.137  1.00  0.00     0.218 HD
ENDBRANCH   8  24
TORSDOF 5
ENDMDL
MODEL 8
REMARK VINA RESULT:      -4.5      3.457      5.998
REMARK  5 active torsions:
REMARK  status: ('A' for Active; 'I' for Inactive)
REMARK    1  A    between atoms: C4_4  and  C5_5 
REMARK    2  A    between atoms: C8_8  and  O9_9 
REMARK    3  A    between atoms: C10_11  and  O11_12 
REMARK    4  A    between atoms: C16_18  and  O17_19 
REMARK    5  A    between atoms: C19_22  and  O20_23 
ROOT
HETATM    1  O1          0      38.668 118.818   0.750  1.00  0.00    -0.286 OA
HETATM    2  C2          0      38.640 117.652   0.269  1.00  0.00     0.201 C 
HETATM    3  C3          0      37.469 117.033  -0.132  1.00  0.00     0.067 C 
HETATM    4  C4          0      37.454 115.711  -0.563  1.00  0.00     0.103 C 
HETATM    5  O13         0      38.594 115.045  -0.607  1.00  0.00    -0.307 OA
HETATM    6  C14         0      39.728 115.573  -0.202  1.00  0.00     0.107 C 
HETATM    7  C15         0      40.822 114.788   0.132  1.00  0.00     0.049 C 
HETATM    8  C16         0      41.920 115.323   0.795  1.00  0.00     0.093 C 
HETATM    9  C18         0      42.099 116.691   0.623  1.00  0.00     0.048 C 
HETATM   10  C19         0      41.036 117.499   0.244  1.00  0.00     0.096 C 
HETATM   11  C21         0      39.806 116.943   0.021  1.00  0.00     0.084 C 
ENDROOT
BRANCH  10  12
HETATM   12  O20         0      41.098 118.867   0.494  1.00  0.00    -0.359 OA
HETATM   13  H20         0      41.950 119.248   0.672  1.00  0.00     0.218 HD
ENDBRANCH  10  12
BRANCH   4  14
HETATM   14  C5          0      36.207 114.964  -0.389  1.00  0.00     0.025 C 
HETATM   15  C6          0      35.002 115.575  -0.075  1.00  0.00     0.004 C 
HETATM   16  C7          0      33.850 115.077  -0.676  1.00  0.00     0.026 C 
HETATM   17  C8          0      33.875 113.927  -1.457  1.00  0.00     0.112 C 
HETATM   18  C10         0      34.935 113.070  -1.195  1.00  0.00     0.112 C 
HETATM   19  C12         0      36.105 113.608  -0.673  1.00  0.00     0.028 C 
BRANCH  17  20
HETATM   20  O9          0      33.023 113.786  -2.538  1.00  0.00    -0.357 OA
HETATM   21  H9          0      33.275 113.967  -3.437  1.00  0.00     0.218 HD
ENDBRANCH  17  20
BRANCH  18  22
HETATM   22  O11         0      34.905 111.825  -1.808  1.00  0.00    -0.357 OA
HETATM   23  H11         0      35.591 111.639  -2.438  1.00  0.00     0.218 HD
ENDBRANCH  18  22
ENDBRANCH   4  14
BRANCH   8  24
HETATM   24  O17         0      42.575 114.617   1.810  1.00  0.00    -0.359 OA
HETATM   25  H17         0      43.517 114.492   1.803  1.00  0.00     0.218 HD
ENDBRANCH   8  24
TORSDOF 5
ENDMDL
MODEL 9
REMARK VINA RESULT:      -4.5      1.485      2.113
REMARK  5 active torsions:
REMARK  status: ('A' for Active; 'I' for Inactive)
REMARK    1  A    between atoms: C4_4  and  C5_5 
REMARK    2  A    between atoms: C8_8  and  O9_9 
REMARK    3  A    between atoms: C10_11  and  O11_12 
REMARK    4  A    between atoms: C16_18  and  O17_19 
REMARK    5  A    between atoms: C19_22  and  O20_23 
ROOT
HETATM    1  O1          0      34.929 116.084   0.456  1.00  0.00    -0.286 OA
HETATM    2  C2          0      34.626 115.133  -0.315  1.00  0.00     0.201 C 
HETATM    3  C3          0      35.451 114.041  -0.522  1.00  0.00     0.067 C 
HETATM    4  C4          0      35.140 113.058  -1.454  1.00  0.00     0.103 C 
HETATM    5  O13         0      34.016 113.167  -2.140  1.00  0.00    -0.307 OA
HETATM    6  C14         0      33.215 114.202  -2.010  1.00  0.00     0.107 C 
HETATM    7  C15         0      32.275 114.525  -2.978  1.00  0.00     0.049 C 
HETATM    8  C16         0      31.614 115.747  -2.963  1.00  0.00     0.093 C 
HETATM    9  C18         0      31.535 116.356  -1.716  1.00  0.00     0.048 C 
HETATM   10  C19         0      32.431 116.022  -0.710  1.00  0.00     0.096 C 
HETATM   11  C21         0      33.390 115.074  -0.941  1.00  0.00     0.084 C 
ENDROOT
BRANCH  10  12
HETATM   12  O20         0      32.630 116.909   0.344  1.00  0.00    -0.359 OA
HETATM   13  H20         0      33.478 117.331   0.416  1.00  0.00     0.218 HD
ENDBRANCH  10  12
BRANCH   4  14
HETATM   14  C5          0      36.256 112.315  -2.042  1.00  0.00     0.025 C 
HETATM   15  C6          0      36.412 110.945  -1.889  1.00  0.00     0.004 C 
HETATM   16  C7          0      36.882 110.224  -2.981  1.00  0.00     0.026 C 
HETATM   17  C8          0      37.311 110.856  -4.143  1.00  0.00     0.112 C 
HETATM   18  C10         0      37.708 112.176  -3.973  1.00  0.00     0.112 C 
HETATM   19  C12         0      37.157 112.900  -2.922  1.00  0.00     0.028 C 
BRANCH  17  20
HETATM   20  O9          0      37.139 110.259  -5.380  1.00  0.00    -0.357 OA
HETATM   21  H9          0      37.202 109.322  -5.527  1.00  0.00     0.218 HD
ENDBRANCH  17  20
BRANCH  18  22
HETATM   22  O11         0      38.319 112.793  -5.055  1.00  0.00    -0.357 OA
HETATM   23  H11         0      38.904 112.259  -5.581  1.00  0.00     0.218 HD
ENDBRANCH  18  22
ENDBRANCH   4  14
BRANCH   8  24
HETATM   24  O17         0      31.360 116.453  -4.144  1.00  0.00    -0.359 OA
HETATM   25  H17         0      31.782 116.224  -4.963  1.00  0.00     0.218 HD
ENDBRANCH   8  24
TORSDOF 5
ENDMDL
