MODEL 1
REMARK VINA RESULT:      -6.2      0.000      0.000
REMARK  5 active torsions:
REMARK  status: ('A' for Active; 'I' for Inactive)
REMARK    1  A    between atoms: C4_4  and  C5_5 
REMARK    2  A    between atoms: C8_8  and  O9_9 
REMARK    3  A    between atoms: C10_11  and  O11_12 
REMARK    4  A    between atoms: C16_18  and  O17_19 
REMARK    5  A    between atoms: C19_22  and  O20_23 
ROOT
HETATM    1  O1          0      25.403  52.002  -0.385  1.00  0.00    -0.286 OA
HETATM    2  C2          0      26.491  52.181   0.228  1.00  0.00     0.201 C 
HETATM    3  C3          0      27.081  51.203   1.011  1.00  0.00     0.067 C 
HETATM    4  C4          0      28.226  51.460   1.757  1.00  0.00     0.103 C 
HETATM    5  O13         0      28.767  52.664   1.696  1.00  0.00    -0.307 OA
HETATM    6  C14         0      28.226  53.639   0.998  1.00  0.00     0.107 C 
HETATM    7  C15         0      28.538  54.969   1.237  1.00  0.00     0.049 C 
HETATM    8  C16         0      27.786  55.998   0.683  1.00  0.00     0.093 C 
HETATM    9  C18         0      27.103  55.665  -0.480  1.00  0.00     0.048 C 
HETATM   10  C19         0      26.815  54.339  -0.774  1.00  0.00     0.096 C 
HETATM   11  C21         0      27.222  53.350   0.081  1.00  0.00     0.084 C 
ENDROOT
BRANCH  10  12
HETATM   12  O20         0      25.789  54.047  -1.668  1.00  0.00    -0.359 OA
HETATM   13  H20         0      25.597  54.682  -2.347  1.00  0.00     0.218 HD
ENDBRANCH  10  12
BRANCH   4  14
HETATM   14  C5          0      28.434  50.654   2.962  1.00  0.00     0.025 C 
HETATM   15  C6          0      29.667  50.543   3.588  1.00  0.00     0.004 C 
HETATM   16  C7          0      29.683  50.512   4.979  1.00  0.00     0.026 C 
HETATM   17  C8          0      28.508  50.456   5.721  1.00  0.00     0.112 C 
HETATM   18  C10         0      27.414  49.941   5.037  1.00  0.00     0.112 C 
HETATM   19  C12         0      27.385  50.063   3.653  1.00  0.00     0.028 C 
BRANCH  17  20
HETATM   20  O9          0      28.421  51.068   6.958  1.00  0.00    -0.357 OA
HETATM   21  H9          0      29.128  51.078   7.593  1.00  0.00     0.218 HD
ENDBRANCH  17  20
BRANCH  18  22
HETATM   22  O11         0      26.271  49.688   5.780  1.00  0.00    -0.357 OA
HETATM   23  H11         0      26.073  48.778   5.968  1.00  0.00     0.218 HD
ENDBRANCH  18  22
ENDBRANCH   4  14
BRANCH   8  24
HETATM   24  O17         0      27.476  57.150   1.414  1.00  0.00    -0.359 OA
HETATM   25  H17         0      27.115  57.924   0.997  1.00  0.00     0.218 HD
ENDBRANCH   8  24
TORSDOF 5
ENDMDL
MODEL 2
REMARK VINA RESULT:      -6.0      1.895      1.982
REMARK  5 active torsions:
REMARK  status: ('A' for Active; 'I' for Inactive)
REMARK    1  A    between atoms: C4_4  and  C5_5 
REMARK    2  A    between atoms: C8_8  and  O9_9 
REMARK    3  A    between atoms: C10_11  and  O11_12 
REMARK    4  A    between atoms: C16_18  and  O17_19 
REMARK    5  A    between atoms: C19_22  and  O20_23 
ROOT
HETATM    1  O1          0      29.164  51.335  -2.201  1.00  0.00    -0.286 OA
HETATM    2  C2          0      29.300  51.822  -1.045  1.00  0.00     0.201 C 
HETATM    3  C3          0      29.518  51.041   0.077  1.00  0.00     0.067 C 
HETATM    4  C4          0      29.562  51.593   1.352  1.00  0.00     0.103 C 
HETATM    5  O13         0      29.410  52.899   1.484  1.00  0.00    -0.307 OA
HETATM    6  C14         0      29.163  53.681   0.456  1.00  0.00     0.107 C 
HETATM    7  C15         0      28.616  54.946   0.615  1.00  0.00     0.049 C 
HETATM    8  C16         0      28.124  55.661  -0.470  1.00  0.00     0.093 C 
HETATM    9  C18         0      28.670  55.313  -1.700  1.00  0.00     0.048 C 
HETATM   10  C19         0      29.267  54.072  -1.880  1.00  0.00     0.096 C 
HETATM   11  C21         0      29.333  53.192  -0.835  1.00  0.00     0.084 C 
ENDROOT
BRANCH  10  12
HETATM   12  O20         0      29.409  53.567  -3.169  1.00  0.00    -0.359 OA
HETATM   13  H20         0      29.650  54.171  -3.860  1.00  0.00     0.218 HD
ENDBRANCH  10  12
BRANCH   4  14
HETATM   14  C5          0      29.193  50.724   2.472  1.00  0.00     0.025 C 
HETATM   15  C6          0      30.125  50.203   3.358  1.00  0.00     0.004 C 
HETATM   16  C7          0      29.764  50.123   4.699  1.00  0.00     0.026 C 
HETATM   17  C8          0      28.476  50.425   5.127  1.00  0.00     0.112 C 
HETATM   18  C10         0      27.498  50.311   4.148  1.00  0.00     0.112 C 
HETATM   19  C12         0      27.871  50.480   2.820  1.00  0.00     0.028 C 
BRANCH  17  20
HETATM   20  O9          0      28.256  50.992   6.370  1.00  0.00    -0.357 OA
HETATM   21  H9          0      28.760  51.721   6.714  1.00  0.00     0.218 HD
ENDBRANCH  17  20
BRANCH  18  22
HETATM   22  O11         0      26.178  50.415   4.563  1.00  0.00    -0.357 OA
HETATM   23  H11         0      25.795  49.649   4.974  1.00  0.00     0.218 HD
ENDBRANCH  18  22
ENDBRANCH   4  14
BRANCH   8  24
HETATM   24  O17         0      26.948  56.414  -0.374  1.00  0.00    -0.359 OA
HETATM   25  H17         0      26.181  56.210  -0.896  1.00  0.00     0.218 HD
ENDBRANCH   8  24
TORSDOF 5
ENDMDL
MODEL 3
REMARK VINA RESULT:      -5.7      2.061      6.418
REMARK  5 active torsions:
REMARK  status: ('A' for Active; 'I' for Inactive)
REMARK    1  A    between atoms: C4_4  and  C5_5 
REMARK    2  A    between atoms: C8_8  and  O9_9 
REMARK    3  A    between atoms: C10_11  and  O11_12 
REMARK    4  A    between atoms: C16_18  and  O17_19 
REMARK    5  A    between atoms: C19_22  and  O20_23 
ROOT
HETATM    1  O1          0      25.293  50.420   1.670  1.00  0.00    -0.286 OA
HETATM    2  C2          0      26.362  50.986   2.029  1.00  0.00     0.201 C 
HETATM    3  C3          0      26.741  52.235   1.569  1.00  0.00     0.067 C 
HETATM    4  C4          0      27.972  52.791   1.899  1.00  0.00     0.103 C 
HETATM    5  O13         0      28.784  52.111   2.689  1.00  0.00    -0.307 OA
HETATM    6  C14         0      28.489  50.905   3.123  1.00  0.00     0.107 C 
HETATM    7  C15         0      29.465  50.040   3.598  1.00  0.00     0.049 C 
HETATM    8  C16         0      29.194  48.694   3.813  1.00  0.00     0.093 C 
HETATM    9  C18         0      27.857  48.394   4.044  1.00  0.00     0.048 C 
HETATM   10  C19         0      26.857  49.260   3.623  1.00  0.00     0.096 C 
HETATM   11  C21         0      27.190  50.426   2.990  1.00  0.00     0.084 C 
ENDROOT
BRANCH  10  12
HETATM   12  O20         0      25.563  48.776   3.459  1.00  0.00    -0.359 OA
HETATM   13  H20         0      25.385  48.227   2.704  1.00  0.00     0.218 HD
ENDBRANCH  10  12
BRANCH   4  14
HETATM   14  C5          0      28.546  53.754   0.958  1.00  0.00     0.025 C 
HETATM   15  C6          0      29.864  53.691   0.529  1.00  0.00     0.004 C 
HETATM   16  C7          0      30.125  54.004  -0.801  1.00  0.00     0.026 C 
HETATM   17  C8          0      29.132  54.493  -1.643  1.00  0.00     0.112 C 
HETATM   18  C10         0      28.068  55.103  -0.992  1.00  0.00     0.112 C 
HETATM   19  C12         0      27.777  54.710   0.308  1.00  0.00     0.028 C 
BRANCH  17  20
HETATM   20  O9          0      29.134  54.189  -2.993  1.00  0.00    -0.357 OA
HETATM   21  H9          0      28.367  53.892  -3.469  1.00  0.00     0.218 HD
ENDBRANCH  17  20
BRANCH  18  22
HETATM   22  O11         0      27.147  55.773  -1.785  1.00  0.00    -0.357 OA
HETATM   23  H11         0      26.482  55.244  -2.211  1.00  0.00     0.218 HD
ENDBRANCH  18  22
ENDBRANCH   4  14
BRANCH   8  24
HETATM   24  O17         0      30.125  47.702   3.487  1.00  0.00    -0.359 OA
HETATM   25  H17         0      30.763  47.825   2.794  1.00  0.00     0.218 HD
ENDBRANCH   8  24
TORSDOF 5
ENDMDL
MODEL 4
REMARK VINA RESULT:      -5.6      2.341      6.450
REMARK  5 active torsions:
REMARK  status: ('A' for Active; 'I' for Inactive)
REMARK    1  A    between atoms: C4_4  and  C5_5 
REMARK    2  A    between atoms: C8_8  and  O9_9 
REMARK    3  A    between atoms: C10_11  and  O11_12 
REMARK    4  A    between atoms: C16_18  and  O17_19 
REMARK    5  A    between atoms: C19_22  and  O20_23 
ROOT
HETATM    1  O1          0      26.169  50.813   2.800  1.00  0.00    -0.286 OA
HETATM    2  C2          0      27.233  51.123   2.197  1.00  0.00     0.201 C 
HETATM    3  C3          0      27.610  52.435   1.966  1.00  0.00     0.067 C 
HETATM    4  C4          0      28.734  52.747   1.209  1.00  0.00     0.103 C 
HETATM    5  O13         0      29.464  51.760   0.720  1.00  0.00    -0.307 OA
HETATM    6  C14         0      29.129  50.498   0.878  1.00  0.00     0.107 C 
HETATM    7  C15         0      29.636  49.500   0.059  1.00  0.00     0.049 C 
HETATM    8  C16         0      29.094  48.220   0.060  1.00  0.00     0.093 C 
HETATM    9  C18         0      28.437  47.863   1.232  1.00  0.00     0.048 C 
HETATM   10  C19         0      27.958  48.836   2.097  1.00  0.00     0.096 C 
HETATM   11  C21         0      28.149  50.159   1.804  1.00  0.00     0.084 C 
ENDROOT
BRANCH  10  12
HETATM   12  O20         0      26.955  48.507   3.003  1.00  0.00    -0.359 OA
HETATM   13  H20         0      26.156  48.124   2.662  1.00  0.00     0.218 HD
ENDBRANCH  10  12
BRANCH   4  14
HETATM   14  C5          0      28.737  54.037   0.516  1.00  0.00     0.025 C 
HETATM   15  C6          0      28.823  54.149  -0.864  1.00  0.00     0.004 C 
HETATM   16  C7          0      28.067  55.142  -1.478  1.00  0.00     0.026 C 
HETATM   17  C8          0      27.354  56.079  -0.738  1.00  0.00     0.112 C 
HETATM   18  C10         0      27.824  56.277   0.554  1.00  0.00     0.112 C 
HETATM   19  C12         0      28.504  55.237   1.176  1.00  0.00     0.028 C 
BRANCH  17  20
HETATM   20  O9          0      26.157  56.590  -1.206  1.00  0.00    -0.357 OA
HETATM   21  H9          0      25.307  56.352  -0.853  1.00  0.00     0.218 HD
ENDBRANCH  17  20
BRANCH  18  22
HETATM   22  O11         0      27.272  57.330   1.269  1.00  0.00    -0.357 OA
HETATM   23  H11         0      27.772  57.657   2.008  1.00  0.00     0.218 HD
ENDBRANCH  18  22
ENDBRANCH   4  14
BRANCH   8  24
HETATM   24  O17         0      28.929  47.496  -1.126  1.00  0.00    -0.359 OA
HETATM   25  H17         0      29.429  46.709  -1.303  1.00  0.00     0.218 HD
ENDBRANCH   8  24
TORSDOF 5
ENDMDL
MODEL 5
REMARK VINA RESULT:      -5.3      8.094     12.396
REMARK  5 active torsions:
REMARK  status: ('A' for Active; 'I' for Inactive)
REMARK    1  A    between atoms: C4_4  and  C5_5 
REMARK    2  A    between atoms: C8_8  and  O9_9 
REMARK    3  A    between atoms: C10_11  and  O11_12 
REMARK    4  A    between atoms: C16_18  and  O17_19 
REMARK    5  A    between atoms: C19_22  and  O20_23 
ROOT
HETATM    1  O1          0      21.257  53.627  -5.154  1.00  0.00    -0.286 OA
HETATM    2  C2          0      21.086  54.806  -4.738  1.00  0.00     0.201 C 
HETATM    3  C3          0      20.269  55.718  -5.384  1.00  0.00     0.067 C 
HETATM    4  C4          0      20.178  57.040  -4.963  1.00  0.00     0.103 C 
HETATM    5  O13         0      20.878  57.420  -3.908  1.00  0.00    -0.307 OA
HETATM    6  C14         0      21.696  56.604  -3.282  1.00  0.00     0.107 C 
HETATM    7  C15         0      22.708  57.075  -2.457  1.00  0.00     0.049 C 
HETATM    8  C16         0      23.719  56.236  -2.004  1.00  0.00     0.093 C 
HETATM    9  C18         0      23.388  54.887  -1.963  1.00  0.00     0.048 C 
HETATM   10  C19         0      22.351  54.390  -2.740  1.00  0.00     0.096 C 
HETATM   11  C21         0      21.637  55.239  -3.542  1.00  0.00     0.084 C 
ENDROOT
BRANCH  10  12
HETATM   12  O20         0      22.308  53.030  -3.028  1.00  0.00    -0.359 OA
HETATM   13  H20         0      23.088  52.626  -3.388  1.00  0.00     0.218 HD
ENDBRANCH  10  12
BRANCH   4  14
HETATM   14  C5          0      19.824  58.041  -5.972  1.00  0.00     0.025 C 
HETATM   15  C6          0      20.772  58.796  -6.647  1.00  0.00     0.004 C 
HETATM   16  C7          0      20.544  59.061  -7.994  1.00  0.00     0.026 C 
HETATM   17  C8          0      19.352  58.704  -8.616  1.00  0.00     0.112 C 
HETATM   18  C10         0      18.273  58.552  -7.756  1.00  0.00     0.112 C 
HETATM   19  C12         0      18.525  58.203  -6.435  1.00  0.00     0.028 C 
BRANCH  17  20
HETATM   20  O9          0      19.332  58.333  -9.949  1.00  0.00    -0.357 OA
HETATM   21  H9          0      18.778  58.744 -10.603  1.00  0.00     0.218 HD
ENDBRANCH  17  20
BRANCH  18  22
HETATM   22  O11         0      17.025  58.383  -8.339  1.00  0.00    -0.357 OA
HETATM   23  H11         0      16.287  58.270  -7.751  1.00  0.00     0.218 HD
ENDBRANCH  18  22
ENDBRANCH   4  14
BRANCH   8  24
HETATM   24  O17         0      25.047  56.670  -1.928  1.00  0.00    -0.359 OA
HETATM   25  H17         0      25.360  57.411  -2.434  1.00  0.00     0.218 HD
ENDBRANCH   8  24
TORSDOF 5
ENDMDL
MODEL 6
REMARK VINA RESULT:      -5.3      1.902      2.201
REMARK  5 active torsions:
REMARK  status: ('A' for Active; 'I' for Inactive)
REMARK    1  A    between atoms: C4_4  and  C5_5 
REMARK    2  A    between atoms: C8_8  and  O9_9 
REMARK    3  A    between atoms: C10_11  and  O11_12 
REMARK    4  A    between atoms: C16_18  and  O17_19 
REMARK    5  A    between atoms: C19_22  and  O20_23 
ROOT
HETATM    1  O1          0      25.591  52.249   1.492  1.00  0.00    -0.286 OA
HETATM    2  C2          0      26.792  51.861   1.487  1.00  0.00     0.201 C 
HETATM    3  C3          0      27.291  50.952   2.404  1.00  0.00     0.067 C 
HETATM    4  C4          0      28.641  50.620   2.440  1.00  0.00     0.103 C 
HETATM    5  O13         0      29.455  51.177   1.561  1.00  0.00    -0.307 OA
HETATM    6  C14         0      29.040  52.075   0.694  1.00  0.00     0.107 C 
HETATM    7  C15         0      29.920  52.940   0.060  1.00  0.00     0.049 C 
HETATM    8  C16         0      29.461  54.042  -0.651  1.00  0.00     0.093 C 
HETATM    9  C18         0      28.161  53.932  -1.130  1.00  0.00     0.048 C 
HETATM   10  C19         0      27.268  53.043  -0.548  1.00  0.00     0.096 C 
HETATM   11  C21         0      27.676  52.255   0.494  1.00  0.00     0.084 C 
ENDROOT
BRANCH  10  12
HETATM   12  O20         0      25.901  53.240  -0.721  1.00  0.00    -0.359 OA
HETATM   13  H20         0      25.620  53.809  -1.427  1.00  0.00     0.218 HD
ENDBRANCH  10  12
BRANCH   4  14
HETATM   14  C5          0      29.187  50.175   3.724  1.00  0.00     0.025 C 
HETATM   15  C6          0      29.187  50.974   4.858  1.00  0.00     0.004 C 
HETATM   16  C7          0      28.934  50.358   6.080  1.00  0.00     0.026 C 
HETATM   17  C8          0      28.818  48.976   6.190  1.00  0.00     0.112 C 
HETATM   18  C10         0      29.444  48.260   5.179  1.00  0.00     0.112 C 
HETATM   19  C12         0      29.608  48.870   3.941  1.00  0.00     0.028 C 
BRANCH  17  20
HETATM   20  O9          0      27.965  48.409   7.119  1.00  0.00    -0.357 OA
HETATM   21  H9          0      28.235  47.758   7.756  1.00  0.00     0.218 HD
ENDBRANCH  17  20
BRANCH  18  22
HETATM   22  O11         0      29.522  46.884   5.340  1.00  0.00    -0.357 OA
HETATM   23  H11         0      29.965  46.566   6.118  1.00  0.00     0.218 HD
ENDBRANCH  18  22
ENDBRANCH   4  14
BRANCH   8  24
HETATM   24  O17         0      30.123  55.274  -0.594  1.00  0.00    -0.359 OA
HETATM   25  H17         0      29.889  55.936   0.046  1.00  0.00     0.218 HD
ENDBRANCH   8  24
TORSDOF 5
ENDMDL
MODEL 7
REMARK VINA RESULT:      -5.3      4.029      6.348
REMARK  5 active torsions:
REMARK  status: ('A' for Active; 'I' for Inactive)
REMARK    1  A    between atoms: C4_4  and  C5_5 
REMARK    2  A    between atoms: C8_8  and  O9_9 
REMARK    3  A    between atoms: C10_11  and  O11_12 
REMARK    4  A    between atoms: C16_18  and  O17_19 
REMARK    5  A    between atoms: C19_22  and  O20_23 
ROOT
HETATM    1  O1          0      26.652  49.612  -1.460  1.00  0.00    -0.286 OA
HETATM    2  C2          0      27.756  50.197  -1.635  1.00  0.00     0.201 C 
HETATM    3  C3          0      28.236  51.167  -0.773  1.00  0.00     0.067 C 
HETATM    4  C4          0      29.405  51.869  -1.043  1.00  0.00     0.103 C 
HETATM    5  O13         0      30.078  51.581  -2.144  1.00  0.00    -0.307 OA
HETATM    6  C14         0      29.647  50.696  -3.015  1.00  0.00     0.107 C 
HETATM    7  C15         0      30.108  50.673  -4.323  1.00  0.00     0.049 C 
HETATM    8  C16         0      29.474  49.913  -5.299  1.00  0.00     0.093 C 
HETATM    9  C18         0      28.752  48.827  -4.820  1.00  0.00     0.048 C 
HETATM   10  C19         0      28.316  48.795  -3.502  1.00  0.00     0.096 C 
HETATM   11  C21         0      28.612  49.835  -2.664  1.00  0.00     0.084 C 
ENDROOT
BRANCH  10  12
HETATM   12  O20         0      27.260  47.958  -3.155  1.00  0.00    -0.359 OA
HETATM   13  H20         0      27.461  47.057  -2.932  1.00  0.00     0.218 HD
ENDBRANCH  10  12
BRANCH   4  14
HETATM   14  C5          0      29.527  53.213  -0.474  1.00  0.00     0.025 C 
HETATM   15  C6          0      29.878  54.321  -1.230  1.00  0.00     0.004 C 
HETATM   16  C7          0      29.243  55.525  -0.943  1.00  0.00     0.026 C 
HETATM   17  C8          0      28.388  55.657   0.146  1.00  0.00     0.112 C 
HETATM   18  C10         0      28.596  54.733   1.162  1.00  0.00     0.112 C 
HETATM   19  C12         0      29.154  53.504   0.832  1.00  0.00     0.028 C 
BRANCH  17  20
HETATM   20  O9          0      27.298  56.508   0.092  1.00  0.00    -0.357 OA
HETATM   21  H9          0      26.419  56.256   0.350  1.00  0.00     0.218 HD
ENDBRANCH  17  20
BRANCH  18  22
HETATM   22  O11         0      27.902  54.935   2.346  1.00  0.00    -0.357 OA
HETATM   23  H11         0      28.076  54.327   3.055  1.00  0.00     0.218 HD
ENDBRANCH  18  22
ENDBRANCH   4  14
BRANCH   8  24
HETATM   24  O17         0      29.298  50.397  -6.600  1.00  0.00    -0.359 OA
HETATM   25  H17         0      28.835  51.209  -6.773  1.00  0.00     0.218 HD
ENDBRANCH   8  24
TORSDOF 5
ENDMDL
MODEL 8
REMARK VINA RESULT:      -5.3      3.442      6.965
REMARK  5 active torsions:
REMARK  status: ('A' for Active; 'I' for Inactive)
REMARK    1  A    between atoms: C4_4  and  C5_5 
REMARK    2  A    between atoms: C8_8  and  O9_9 
REMARK    3  A    between atoms: C10_11  and  O11_12 
REMARK    4  A    between atoms: C16_18  and  O17_19 
REMARK    5  A    between atoms: C19_22  and  O20_23 
ROOT
HETATM    1  O1          0      27.118  50.889   1.362  1.00  0.00    -0.286 OA
HETATM    2  C2          0      26.707  51.628   0.426  1.00  0.00     0.201 C 
HETATM    3  C3          0      25.853  51.178  -0.566  1.00  0.00     0.067 C 
HETATM    4  C4          0      25.497  51.983  -1.642  1.00  0.00     0.103 C 
HETATM    5  O13         0      25.976  53.213  -1.700  1.00  0.00    -0.307 OA
HETATM    6  C14         0      26.821  53.677  -0.805  1.00  0.00     0.107 C 
HETATM    7  C15         0      27.622  54.781  -1.060  1.00  0.00     0.049 C 
HETATM    8  C16         0      28.682  55.111  -0.224  1.00  0.00     0.093 C 
HETATM    9  C18         0      28.566  54.649   1.081  1.00  0.00     0.048 C 
HETATM   10  C19         0      27.737  53.576   1.379  1.00  0.00     0.096 C 
HETATM   11  C21         0      27.014  52.979   0.382  1.00  0.00     0.084 C 
ENDROOT
BRANCH  10  12
HETATM   12  O20         0      27.949  52.857   2.551  1.00  0.00    -0.359 OA
HETATM   13  H20         0      28.245  51.958   2.474  1.00  0.00     0.218 HD
ENDBRANCH  10  12
BRANCH   4  14
HETATM   14  C5          0      25.130  51.310  -2.889  1.00  0.00     0.025 C 
HETATM   15  C6          0      23.865  51.404  -3.451  1.00  0.00     0.004 C 
HETATM   16  C7          0      23.779  51.488  -4.837  1.00  0.00     0.026 C 
HETATM   17  C8          0      24.901  51.348  -5.647  1.00  0.00     0.112 C 
HETATM   18  C10         0      25.951  50.648  -5.067  1.00  0.00     0.112 C 
HETATM   19  C12         0      26.062  50.651  -3.682  1.00  0.00     0.028 C 
BRANCH  17  20
HETATM   20  O9          0      25.006  52.044  -6.838  1.00  0.00    -0.357 OA
HETATM   21  H9          0      25.783  52.522  -7.104  1.00  0.00     0.218 HD
ENDBRANCH  17  20
BRANCH  18  22
HETATM   22  O11         0      27.016  50.317  -5.892  1.00  0.00    -0.357 OA
HETATM   23  H11         0      27.099  49.404  -6.142  1.00  0.00     0.218 HD
ENDBRANCH  18  22
ENDBRANCH   4  14
BRANCH   8  24
HETATM   24  O17         0      29.901  55.566  -0.738  1.00  0.00    -0.359 OA
HETATM   25  H17         0      30.134  55.446  -1.651  1.00  0.00     0.218 HD
ENDBRANCH   8  24
TORSDOF 5
ENDMDL
MODEL 9
REMARK VINA RESULT:      -4.9      3.622      5.524
REMARK  5 active torsions:
REMARK  status: ('A' for Active; 'I' for Inactive)
REMARK    1  A    between atoms: C4_4  and  C5_5 
REMARK    2  A    between atoms: C8_8  and  O9_9 
REMARK    3  A    between atoms: C10_11  and  O11_12 
REMARK    4  A    between atoms: C16_18  and  O17_19 
REMARK    5  A    between atoms: C19_22  and  O20_23 
ROOT
HETATM    1  O1          0      22.272  52.366  -1.671  1.00  0.00    -0.286 OA
HETATM    2  C2          0      23.118  53.298  -1.749  1.00  0.00     0.201 C 
HETATM    3  C3          0      24.469  53.106  -1.514  1.00  0.00     0.067 C 
HETATM    4  C4          0      25.365  54.169  -1.506  1.00  0.00     0.103 C 
HETATM    5  O13         0      24.910  55.385  -1.748  1.00  0.00    -0.307 OA
HETATM    6  C14         0      23.631  55.627  -1.939  1.00  0.00     0.107 C 
HETATM    7  C15         0      23.099  56.900  -1.795  1.00  0.00     0.049 C 
HETATM    8  C16         0      21.726  57.107  -1.746  1.00  0.00     0.093 C 
HETATM    9  C18         0      20.962  56.123  -2.362  1.00  0.00     0.048 C 
HETATM   10  C19         0      21.480  54.852  -2.564  1.00  0.00     0.096 C 
HETATM   11  C21         0      22.759  54.569  -2.170  1.00  0.00     0.084 C 
ENDROOT
BRANCH  10  12
HETATM   12  O20         0      20.608  53.786  -2.764  1.00  0.00    -0.359 OA
HETATM   13  H20         0      20.964  52.979  -3.117  1.00  0.00     0.218 HD
ENDBRANCH  10  12
BRANCH   4  14
HETATM   14  C5          0      26.576  54.018  -0.696  1.00  0.00     0.025 C 
HETATM   15  C6          0      27.585  54.968  -0.668  1.00  0.00     0.004 C 
HETATM   16  C7          0      28.207  55.213   0.552  1.00  0.00     0.026 C 
HETATM   17  C8          0      27.930  54.446   1.679  1.00  0.00     0.112 C 
HETATM   18  C10         0      27.426  53.181   1.409  1.00  0.00     0.112 C 
HETATM   19  C12         0      26.735  52.985   0.219  1.00  0.00     0.028 C 
BRANCH  17  20
HETATM   20  O9          0      27.963  55.007   2.943  1.00  0.00    -0.357 OA
HETATM   21  H9          0      27.314  54.832   3.615  1.00  0.00     0.218 HD
ENDBRANCH  17  20
BRANCH  18  22
HETATM   22  O11         0      27.311  52.309   2.482  1.00  0.00    -0.357 OA
HETATM   23  H11         0      26.752  51.550   2.361  1.00  0.00     0.218 HD
ENDBRANCH  18  22
ENDBRANCH   4  14
BRANCH   8  24
HETATM   24  O17         0      21.159  58.036  -0.865  1.00  0.00    -0.359 OA
HETATM   25  H17         0      20.848  57.782  -0.005  1.00  0.00     0.218 HD
ENDBRANCH   8  24
TORSDOF 5
ENDMDL
