MODEL 1
REMARK VINA RESULT:      -5.8      0.000      0.000
REMARK  5 active torsions:
REMARK  status: ('A' for Active; 'I' for Inactive)
REMARK    1  A    between atoms: C4_4  and  C5_5 
REMARK    2  A    between atoms: C8_8  and  O9_9 
REMARK    3  A    between atoms: C10_11  and  O11_12 
REMARK    4  A    between atoms: C16_18  and  O17_19 
REMARK    5  A    between atoms: C19_22  and  O20_23 
ROOT
HETATM    1  O1          0      27.140  24.060   3.779  1.00  0.00    -0.286 OA
HETATM    2  C2          0      26.574  22.964   3.513  1.00  0.00     0.201 C 
HETATM    3  C3          0      26.228  22.043   4.487  1.00  0.00     0.067 C 
HETATM    4  C4          0      25.700  20.800   4.159  1.00  0.00     0.103 C 
HETATM    5  O13         0      25.508  20.508   2.884  1.00  0.00    -0.307 OA
HETATM    6  C14         0      25.854  21.331   1.919  1.00  0.00     0.107 C 
HETATM    7  C15         0      26.033  20.894   0.615  1.00  0.00     0.049 C 
HETATM    8  C16         0      26.639  21.701  -0.341  1.00  0.00     0.093 C 
HETATM    9  C18         0      26.559  23.066  -0.092  1.00  0.00     0.048 C 
HETATM   10  C19         0      26.334  23.537   1.194  1.00  0.00     0.096 C 
HETATM   11  C21         0      26.174  22.650   2.224  1.00  0.00     0.084 C 
ENDROOT
BRANCH  10  12
HETATM   12  O20         0      26.683  24.846   1.510  1.00  0.00    -0.359 OA
HETATM   13  H20         0      26.918  25.040   2.409  1.00  0.00     0.218 HD
ENDBRANCH  10  12
BRANCH   4  14
HETATM   14  C5          0      25.921  19.707   5.107  1.00  0.00     0.025 C 
HETATM   15  C6          0      25.963  18.374   4.722  1.00  0.00     0.004 C 
HETATM   16  C7          0      26.890  17.550   5.352  1.00  0.00     0.026 C 
HETATM   17  C8          0      27.657  17.999   6.421  1.00  0.00     0.112 C 
HETATM   18  C10         0      27.114  19.072   7.114  1.00  0.00     0.112 C 
HETATM   19  C12         0      26.256  19.930   6.436  1.00  0.00     0.028 C 
BRANCH  17  20
HETATM   20  O9          0      28.945  17.532   6.614  1.00  0.00    -0.357 OA
HETATM   21  H9          0      29.235  16.663   6.362  1.00  0.00     0.218 HD
ENDBRANCH  17  20
BRANCH  18  22
HETATM   22  O11         0      27.740  19.438   8.298  1.00  0.00    -0.357 OA
HETATM   23  H11         0      27.336  19.144   9.106  1.00  0.00     0.218 HD
ENDBRANCH  18  22
ENDBRANCH   4  14
BRANCH   8  24
HETATM   24  O17         0      27.537  21.175  -1.276  1.00  0.00    -0.359 OA
HETATM   25  H17         0      27.764  20.253  -1.286  1.00  0.00     0.218 HD
ENDBRANCH   8  24
TORSDOF 5
ENDMDL
MODEL 2
REMARK VINA RESULT:      -5.6      1.739      1.977
REMARK  5 active torsions:
REMARK  status: ('A' for Active; 'I' for Inactive)
REMARK    1  A    between atoms: C4_4  and  C5_5 
REMARK    2  A    between atoms: C8_8  and  O9_9 
REMARK    3  A    between atoms: C10_11  and  O11_12 
REMARK    4  A    between atoms: C16_18  and  O17_19 
REMARK    5  A    between atoms: C19_22  and  O20_23 
ROOT
HETATM    1  O1          0      26.339  23.785   5.041  1.00  0.00    -0.286 OA
HETATM    2  C2          0      26.290  22.594   4.627  1.00  0.00     0.201 C 
HETATM    3  C3          0      25.792  21.554   5.392  1.00  0.00     0.067 C 
HETATM    4  C4          0      25.844  20.236   4.953  1.00  0.00     0.103 C 
HETATM    5  O13         0      26.367  19.983   3.765  1.00  0.00    -0.307 OA
HETATM    6  C14         0      26.888  20.929   3.015  1.00  0.00     0.107 C 
HETATM    7  C15         0      27.773  20.642   1.987  1.00  0.00     0.049 C 
HETATM    8  C16         0      28.512  21.644   1.369  1.00  0.00     0.093 C 
HETATM    9  C18         0      27.954  22.915   1.443  1.00  0.00     0.048 C 
HETATM   10  C19         0      27.029  23.223   2.431  1.00  0.00     0.096 C 
HETATM   11  C21         0      26.651  22.263   3.330  1.00  0.00     0.084 C 
ENDROOT
BRANCH  10  12
HETATM   12  O20         0      26.814  24.555   2.770  1.00  0.00    -0.359 OA
HETATM   13  H20         0      25.918  24.843   2.896  1.00  0.00     0.218 HD
ENDBRANCH  10  12
BRANCH   4  14
HETATM   14  C5          0      25.881  19.189   5.976  1.00  0.00     0.025 C 
HETATM   15  C6          0      24.763  18.452   6.338  1.00  0.00     0.004 C 
HETATM   16  C7          0      24.944  17.101   6.614  1.00  0.00     0.026 C 
HETATM   17  C8          0      26.210  16.529   6.661  1.00  0.00     0.112 C 
HETATM   18  C10         0      27.241  17.423   6.917  1.00  0.00     0.112 C 
HETATM   19  C12         0      27.067  18.753   6.553  1.00  0.00     0.028 C 
BRANCH  17  20
HETATM   20  O9          0      26.411  15.217   6.269  1.00  0.00    -0.357 OA
HETATM   21  H9          0      25.744  14.682   5.854  1.00  0.00     0.218 HD
ENDBRANCH  17  20
BRANCH  18  22
HETATM   22  O11         0      28.496  16.883   7.161  1.00  0.00    -0.357 OA
HETATM   23  H11         0      29.065  16.762   6.410  1.00  0.00     0.218 HD
ENDBRANCH  18  22
ENDBRANCH   4  14
BRANCH   8  24
HETATM   24  O17         0      29.850  21.448   1.011  1.00  0.00    -0.359 OA
HETATM   25  H17         0      30.388  22.158   0.681  1.00  0.00     0.218 HD
ENDBRANCH   8  24
TORSDOF 5
ENDMDL
MODEL 3
REMARK VINA RESULT:      -5.6      3.023      3.657
REMARK  5 active torsions:
REMARK  status: ('A' for Active; 'I' for Inactive)
REMARK    1  A    between atoms: C4_4  and  C5_5 
REMARK    2  A    between atoms: C8_8  and  O9_9 
REMARK    3  A    between atoms: C10_11  and  O11_12 
REMARK    4  A    between atoms: C16_18  and  O17_19 
REMARK    5  A    between atoms: C19_22  and  O20_23 
ROOT
HETATM    1  O1          0      25.266  23.748   5.226  1.00  0.00    -0.286 OA
HETATM    2  C2          0      25.219  22.626   4.651  1.00  0.00     0.201 C 
HETATM    3  C3          0      24.186  21.725   4.847  1.00  0.00     0.067 C 
HETATM    4  C4          0      24.210  20.456   4.281  1.00  0.00     0.103 C 
HETATM    5  O13         0      25.237  20.118   3.522  1.00  0.00    -0.307 OA
HETATM    6  C14         0      26.261  20.922   3.333  1.00  0.00     0.107 C 
HETATM    7  C15         0      27.489  20.450   2.892  1.00  0.00     0.049 C 
HETATM    8  C16         0      28.627  21.246   2.937  1.00  0.00     0.093 C 
HETATM    9  C18         0      28.386  22.615   2.924  1.00  0.00     0.048 C 
HETATM   10  C19         0      27.153  23.118   3.316  1.00  0.00     0.096 C 
HETATM   11  C21         0      26.160  22.259   3.701  1.00  0.00     0.084 C 
ENDROOT
BRANCH  10  12
HETATM   12  O20         0      27.056  24.448   3.715  1.00  0.00    -0.359 OA
HETATM   13  H20         0      27.630  24.747   4.409  1.00  0.00     0.218 HD
ENDBRANCH  10  12
BRANCH   4  14
HETATM   14  C5          0      23.468  19.400   4.973  1.00  0.00     0.025 C 
HETATM   15  C6          0      24.034  18.179   5.309  1.00  0.00     0.004 C 
HETATM   16  C7          0      23.676  17.617   6.530  1.00  0.00     0.026 C 
HETATM   17  C8          0      22.688  18.180   7.331  1.00  0.00     0.112 C 
HETATM   18  C10         0      21.778  18.979   6.653  1.00  0.00     0.112 C 
HETATM   19  C12         0      22.189  19.598   5.478  1.00  0.00     0.028 C 
BRANCH  17  20
HETATM   20  O9          0      22.764  18.102   8.710  1.00  0.00    -0.357 OA
HETATM   21  H9          0      22.067  18.377   9.294  1.00  0.00     0.218 HD
ENDBRANCH  17  20
BRANCH  18  22
HETATM   22  O11         0      20.668  19.410   7.365  1.00  0.00    -0.357 OA
HETATM   23  H11         0      20.795  20.142   7.957  1.00  0.00     0.218 HD
ENDBRANCH  18  22
ENDBRANCH   4  14
BRANCH   8  24
HETATM   24  O17         0      29.870  20.721   3.307  1.00  0.00    -0.359 OA
HETATM   25  H17         0      30.438  21.170   3.921  1.00  0.00     0.218 HD
ENDBRANCH   8  24
TORSDOF 5
ENDMDL
MODEL 4
REMARK VINA RESULT:      -5.5      3.431      5.350
REMARK  5 active torsions:
REMARK  status: ('A' for Active; 'I' for Inactive)
REMARK    1  A    between atoms: C4_4  and  C5_5 
REMARK    2  A    between atoms: C8_8  and  O9_9 
REMARK    3  A    between atoms: C10_11  and  O11_12 
REMARK    4  A    between atoms: C16_18  and  O17_19 
REMARK    5  A    between atoms: C19_22  and  O20_23 
ROOT
HETATM    1  O1          0      26.133  18.508   6.651  1.00  0.00    -0.286 OA
HETATM    2  C2          0      26.619  19.130   5.667  1.00  0.00     0.201 C 
HETATM    3  C3          0      27.826  18.785   5.083  1.00  0.00     0.067 C 
HETATM    4  C4          0      28.388  19.549   4.066  1.00  0.00     0.103 C 
HETATM    5  O13         0      27.737  20.617   3.641  1.00  0.00    -0.307 OA
HETATM    6  C14         0      26.607  21.010   4.185  1.00  0.00     0.107 C 
HETATM    7  C15         0      26.134  22.305   4.034  1.00  0.00     0.049 C 
HETATM    8  C16         0      25.086  22.787   4.810  1.00  0.00     0.093 C 
HETATM    9  C18         0      24.233  21.812   5.313  1.00  0.00     0.048 C 
HETATM   10  C19         0      24.658  20.496   5.435  1.00  0.00     0.096 C 
HETATM   11  C21         0      25.923  20.152   5.040  1.00  0.00     0.084 C 
ENDROOT
BRANCH  10  12
HETATM   12  O20         0      23.995  19.645   6.313  1.00  0.00    -0.359 OA
HETATM   13  H20         0      24.457  18.876   6.622  1.00  0.00     0.218 HD
ENDBRANCH  10  12
BRANCH   4  14
HETATM   14  C5          0      29.845  19.509   3.927  1.00  0.00     0.025 C 
HETATM   15  C6          0      30.692  19.172   4.973  1.00  0.00     0.004 C 
HETATM   16  C7          0      31.812  18.403   4.673  1.00  0.00     0.026 C 
HETATM   17  C8          0      32.153  18.091   3.361  1.00  0.00     0.112 C 
HETATM   18  C10         0      31.648  18.965   2.408  1.00  0.00     0.112 C 
HETATM   19  C12         0      30.480  19.658   2.700  1.00  0.00     0.028 C 
BRANCH  17  20
HETATM   20  O9          0      32.763  16.888   3.054  1.00  0.00    -0.357 OA
HETATM   21  H9          0      33.538  16.561   3.496  1.00  0.00     0.218 HD
ENDBRANCH  17  20
BRANCH  18  22
HETATM   22  O11         0      32.111  18.813   1.108  1.00  0.00    -0.357 OA
HETATM   23  H11         0      31.581  19.193   0.416  1.00  0.00     0.218 HD
ENDBRANCH  18  22
ENDBRANCH   4  14
BRANCH   8  24
HETATM   24  O17         0      25.093  24.091   5.316  1.00  0.00    -0.359 OA
HETATM   25  H17         0      24.579  24.334   6.077  1.00  0.00     0.218 HD
ENDBRANCH   8  24
TORSDOF 5
ENDMDL
MODEL 5
REMARK VINA RESULT:      -5.5      1.822      6.753
REMARK  5 active torsions:
REMARK  status: ('A' for Active; 'I' for Inactive)
REMARK    1  A    between atoms: C4_4  and  C5_5 
REMARK    2  A    between atoms: C8_8  and  O9_9 
REMARK    3  A    between atoms: C10_11  and  O11_12 
REMARK    4  A    between atoms: C16_18  and  O17_19 
REMARK    5  A    between atoms: C19_22  and  O20_23 
ROOT
HETATM    1  O1          0      30.087  17.580   3.847  1.00  0.00    -0.286 OA
HETATM    2  C2          0      29.000  18.206   3.709  1.00  0.00     0.201 C 
HETATM    3  C3          0      28.677  18.903   2.557  1.00  0.00     0.067 C 
HETATM    4  C4          0      27.519  19.668   2.470  1.00  0.00     0.103 C 
HETATM    5  O13         0      26.704  19.708   3.509  1.00  0.00    -0.307 OA
HETATM    6  C14         0      26.982  19.095   4.639  1.00  0.00     0.107 C 
HETATM    7  C15         0      26.365  19.445   5.831  1.00  0.00     0.049 C 
HETATM    8  C16         0      26.837  18.979   7.052  1.00  0.00     0.093 C 
HETATM    9  C18         0      27.557  17.792   6.989  1.00  0.00     0.048 C 
HETATM   10  C19         0      28.149  17.389   5.800  1.00  0.00     0.096 C 
HETATM   11  C21         0      28.008  18.157   4.676  1.00  0.00     0.084 C 
ENDROOT
BRANCH  10  12
HETATM   12  O20         0      29.197  16.474   5.837  1.00  0.00    -0.359 OA
HETATM   13  H20         0      29.288  15.933   6.613  1.00  0.00     0.218 HD
ENDBRANCH  10  12
BRANCH   4  14
HETATM   14  C5          0      27.533  20.800   1.542  1.00  0.00     0.025 C 
HETATM   15  C6          0      26.437  21.152   0.768  1.00  0.00     0.004 C 
HETATM   16  C7          0      26.187  22.508   0.582  1.00  0.00     0.026 C 
HETATM   17  C8          0      27.071  23.481   1.037  1.00  0.00     0.112 C 
HETATM   18  C10         0      28.377  23.043   1.208  1.00  0.00     0.112 C 
HETATM   19  C12         0      28.592  21.697   1.477  1.00  0.00     0.028 C 
BRANCH  17  20
HETATM   20  O9          0      26.609  24.710   1.473  1.00  0.00    -0.357 OA
HETATM   21  H9          0      25.879  24.817   2.073  1.00  0.00     0.218 HD
ENDBRANCH  17  20
BRANCH  18  22
HETATM   22  O11         0      29.334  24.012   1.477  1.00  0.00    -0.357 OA
HETATM   23  H11         0      30.227  23.819   1.213  1.00  0.00     0.218 HD
ENDBRANCH  18  22
ENDBRANCH   4  14
BRANCH   8  24
HETATM   24  O17         0      26.877  19.805   8.181  1.00  0.00    -0.359 OA
HETATM   25  H17         0      27.185  20.702   8.133  1.00  0.00     0.218 HD
ENDBRANCH   8  24
TORSDOF 5
ENDMDL
MODEL 6
REMARK VINA RESULT:      -5.5      2.494      3.182
REMARK  5 active torsions:
REMARK  status: ('A' for Active; 'I' for Inactive)
REMARK    1  A    between atoms: C4_4  and  C5_5 
REMARK    2  A    between atoms: C8_8  and  O9_9 
REMARK    3  A    between atoms: C10_11  and  O11_12 
REMARK    4  A    between atoms: C16_18  and  O17_19 
REMARK    5  A    between atoms: C19_22  and  O20_23 
ROOT
HETATM    1  O1          0      27.980  24.295   3.631  1.00  0.00    -0.286 OA
HETATM    2  C2          0      27.281  23.282   3.350  1.00  0.00     0.201 C 
HETATM    3  C3          0      26.166  22.913   4.082  1.00  0.00     0.067 C 
HETATM    4  C4          0      25.474  21.738   3.813  1.00  0.00     0.103 C 
HETATM    5  O13         0      25.888  20.970   2.820  1.00  0.00    -0.307 OA
HETATM    6  C14         0      26.963  21.255   2.118  1.00  0.00     0.107 C 
HETATM    7  C15         0      27.624  20.292   1.369  1.00  0.00     0.049 C 
HETATM    8  C16         0      28.887  20.529   0.841  1.00  0.00     0.093 C 
HETATM    9  C18         0      29.197  21.868   0.640  1.00  0.00     0.048 C 
HETATM   10  C19         0      28.524  22.861   1.339  1.00  0.00     0.096 C 
HETATM   11  C21         0      27.535  22.519   2.220  1.00  0.00     0.084 C 
ENDROOT
BRANCH  10  12
HETATM   12  O20         0      29.108  24.117   1.470  1.00  0.00    -0.359 OA
HETATM   13  H20         0      29.504  24.506   0.699  1.00  0.00     0.218 HD
ENDBRANCH  10  12
BRANCH   4  14
HETATM   14  C5          0      24.745  21.121   4.923  1.00  0.00     0.025 C 
HETATM   15  C6          0      23.569  21.650   5.436  1.00  0.00     0.004 C 
HETATM   16  C7          0      22.575  20.757   5.821  1.00  0.00     0.026 C 
HETATM   17  C8          0      22.789  19.383   5.823  1.00  0.00     0.112 C 
HETATM   18  C10         0      24.122  19.004   5.916  1.00  0.00     0.112 C 
HETATM   19  C12         0      25.092  19.882   5.445  1.00  0.00     0.028 C 
BRANCH  17  20
HETATM   20  O9          0      21.759  18.504   5.540  1.00  0.00    -0.357 OA
HETATM   21  H9          0      21.232  18.545   4.751  1.00  0.00     0.218 HD
ENDBRANCH  17  20
BRANCH  18  22
HETATM   22  O11         0      24.380  17.655   6.112  1.00  0.00    -0.357 OA
HETATM   23  H11         0      23.765  17.174   6.653  1.00  0.00     0.218 HD
ENDBRANCH  18  22
ENDBRANCH   4  14
BRANCH   8  24
HETATM   24  O17         0      29.873  19.536   0.837  1.00  0.00    -0.359 OA
HETATM   25  H17         0      30.116  19.071   1.628  1.00  0.00     0.218 HD
ENDBRANCH   8  24
TORSDOF 5
ENDMDL
MODEL 7
REMARK VINA RESULT:      -5.4      3.001      4.104
REMARK  5 active torsions:
REMARK  status: ('A' for Active; 'I' for Inactive)
REMARK    1  A    between atoms: C4_4  and  C5_5 
REMARK    2  A    between atoms: C8_8  and  O9_9 
REMARK    3  A    between atoms: C10_11  and  O11_12 
REMARK    4  A    between atoms: C16_18  and  O17_19 
REMARK    5  A    between atoms: C19_22  and  O20_23 
ROOT
HETATM    1  O1          0      28.257  19.415   3.250  1.00  0.00    -0.286 OA
HETATM    2  C2          0      27.328  20.109   3.746  1.00  0.00     0.201 C 
HETATM    3  C3          0      26.311  19.564   4.512  1.00  0.00     0.067 C 
HETATM    4  C4          0      25.244  20.334   4.960  1.00  0.00     0.103 C 
HETATM    5  O13         0      25.219  21.621   4.660  1.00  0.00    -0.307 OA
HETATM    6  C14         0      26.139  22.180   3.905  1.00  0.00     0.107 C 
HETATM    7  C15         0      25.921  23.391   3.264  1.00  0.00     0.049 C 
HETATM    8  C16         0      26.784  23.850   2.275  1.00  0.00     0.093 C 
HETATM    9  C18         0      28.078  23.348   2.346  1.00  0.00     0.048 C 
HETATM   10  C19         0      28.338  22.162   3.019  1.00  0.00     0.096 C 
HETATM   11  C21         0      27.316  21.491   3.633  1.00  0.00     0.084 C 
ENDROOT
BRANCH  10  12
HETATM   12  O20         0      29.500  21.454   2.726  1.00  0.00    -0.359 OA
HETATM   13  H20         0      29.481  20.852   1.993  1.00  0.00     0.218 HD
ENDBRANCH  10  12
BRANCH   4  14
HETATM   14  C5          0      23.977  19.643   5.207  1.00  0.00     0.025 C 
HETATM   15  C6          0      23.909  18.313   5.593  1.00  0.00     0.004 C 
HETATM   16  C7          0      22.937  17.961   6.525  1.00  0.00     0.026 C 
HETATM   17  C8          0      21.979  18.871   6.959  1.00  0.00     0.112 C 
HETATM   18  C10         0      21.738  19.921   6.083  1.00  0.00     0.112 C 
HETATM   19  C12         0      22.757  20.308   5.220  1.00  0.00     0.028 C 
BRANCH  17  20
HETATM   20  O9          0      21.486  18.819   8.250  1.00  0.00    -0.357 OA
HETATM   21  H9          0      21.094  19.562   8.696  1.00  0.00     0.218 HD
ENDBRANCH  17  20
BRANCH  18  22
HETATM   22  O11         0      20.664  20.749   6.375  1.00  0.00    -0.357 OA
HETATM   23  H11         0      20.038  20.903   5.677  1.00  0.00     0.218 HD
ENDBRANCH  18  22
ENDBRANCH   4  14
BRANCH   8  24
HETATM   24  O17         0      26.303  24.485   1.125  1.00  0.00    -0.359 OA
HETATM   25  H17         0      26.570  25.366   0.892  1.00  0.00     0.218 HD
ENDBRANCH   8  24
TORSDOF 5
ENDMDL
MODEL 8
REMARK VINA RESULT:      -5.2      2.065      6.686
REMARK  5 active torsions:
REMARK  status: ('A' for Active; 'I' for Inactive)
REMARK    1  A    between atoms: C4_4  and  C5_5 
REMARK    2  A    between atoms: C8_8  and  O9_9 
REMARK    3  A    between atoms: C10_11  and  O11_12 
REMARK    4  A    between atoms: C16_18  and  O17_19 
REMARK    5  A    between atoms: C19_22  and  O20_23 
ROOT
HETATM    1  O1          0      23.517  17.622   5.276  1.00  0.00    -0.286 OA
HETATM    2  C2          0      24.488  18.382   5.541  1.00  0.00     0.201 C 
HETATM    3  C3          0      24.539  19.704   5.134  1.00  0.00     0.067 C 
HETATM    4  C4          0      25.666  20.490   5.350  1.00  0.00     0.103 C 
HETATM    5  O13         0      26.699  19.959   5.978  1.00  0.00    -0.307 OA
HETATM    6  C14         0      26.717  18.698   6.353  1.00  0.00     0.107 C 
HETATM    7  C15         0      27.903  18.037   6.637  1.00  0.00     0.049 C 
HETATM    8  C16         0      27.943  16.655   6.781  1.00  0.00     0.093 C 
HETATM    9  C18         0      26.739  16.070   7.153  1.00  0.00     0.048 C 
HETATM   10  C19         0      25.536  16.724   6.926  1.00  0.00     0.096 C 
HETATM   11  C21         0      25.536  17.964   6.347  1.00  0.00     0.084 C 
ENDROOT
BRANCH  10  12
HETATM   12  O20         0      24.356  15.987   6.888  1.00  0.00    -0.359 OA
HETATM   13  H20         0      23.835  15.940   7.681  1.00  0.00     0.218 HD
ENDBRANCH  10  12
BRANCH   4  14
HETATM   14  C5          0      25.899  21.596   4.420  1.00  0.00     0.025 C 
HETATM   15  C6          0      26.028  22.914   4.835  1.00  0.00     0.004 C 
HETATM   16  C7          0      26.966  23.707   4.182  1.00  0.00     0.026 C 
HETATM   17  C8          0      27.658  23.249   3.066  1.00  0.00     0.112 C 
HETATM   18  C10         0      27.028  22.224   2.374  1.00  0.00     0.112 C 
HETATM   19  C12         0      26.159  21.393   3.071  1.00  0.00     0.028 C 
BRANCH  17  20
HETATM   20  O9          0      28.958  23.655   2.822  1.00  0.00    -0.357 OA
HETATM   21  H9          0      29.662  23.061   2.593  1.00  0.00     0.218 HD
ENDBRANCH  17  20
BRANCH  18  22
HETATM   22  O11         0      27.577  21.860   1.153  1.00  0.00    -0.357 OA
HETATM   23  H11         0      26.975  21.742   0.427  1.00  0.00     0.218 HD
ENDBRANCH  18  22
ENDBRANCH   4  14
BRANCH   8  24
HETATM   24  O17         0      29.001  15.898   6.267  1.00  0.00    -0.359 OA
HETATM   25  H17         0      29.903  16.071   6.510  1.00  0.00     0.218 HD
ENDBRANCH   8  24
TORSDOF 5
ENDMDL
MODEL 9
REMARK VINA RESULT:      -5.2      2.207      6.490
REMARK  5 active torsions:
REMARK  status: ('A' for Active; 'I' for Inactive)
REMARK    1  A    between atoms: C4_4  and  C5_5 
REMARK    2  A    between atoms: C8_8  and  O9_9 
REMARK    3  A    between atoms: C10_11  and  O11_12 
REMARK    4  A    between atoms: C16_18  and  O17_19 
REMARK    5  A    between atoms: C19_22  and  O20_23 
ROOT
HETATM    1  O1          0      22.850  19.541   3.910  1.00  0.00    -0.286 OA
HETATM    2  C2          0      23.905  19.910   4.495  1.00  0.00     0.201 C 
HETATM    3  C3          0      24.654  20.997   4.077  1.00  0.00     0.067 C 
HETATM    4  C4          0      25.866  21.320   4.675  1.00  0.00     0.103 C 
HETATM    5  O13         0      26.296  20.577   5.680  1.00  0.00    -0.307 OA
HETATM    6  C14         0      25.643  19.512   6.091  1.00  0.00     0.107 C 
HETATM    7  C15         0      26.259  18.523   6.845  1.00  0.00     0.049 C 
HETATM    8  C16         0      25.648  17.293   7.058  1.00  0.00     0.093 C 
HETATM    9  C18         0      24.261  17.302   6.961  1.00  0.00     0.048 C 
HETATM   10  C19         0      23.610  18.304   6.255  1.00  0.00     0.096 C 
HETATM   11  C21         0      24.337  19.300   5.663  1.00  0.00     0.084 C 
ENDROOT
BRANCH  10  12
HETATM   12  O20         0      22.315  18.081   5.797  1.00  0.00    -0.359 OA
HETATM   13  H20         0      21.875  17.287   6.075  1.00  0.00     0.218 HD
ENDBRANCH  10  12
BRANCH   4  14
HETATM   14  C5          0      26.847  22.035   3.857  1.00  0.00     0.025 C 
HETATM   15  C6          0      27.966  21.419   3.315  1.00  0.00     0.004 C 
HETATM   16  C7          0      28.356  21.803   2.036  1.00  0.00     0.026 C 
HETATM   17  C8          0      27.740  22.857   1.370  1.00  0.00     0.112 C 
HETATM   18  C10         0      27.111  23.777   2.199  1.00  0.00     0.112 C 
HETATM   19  C12         0      26.654  23.345   3.438  1.00  0.00     0.028 C 
BRANCH  17  20
HETATM   20  O9          0      27.601  22.842  -0.006  1.00  0.00    -0.357 OA
HETATM   21  H9          0      28.327  22.729  -0.609  1.00  0.00     0.218 HD
ENDBRANCH  17  20
BRANCH  18  22
HETATM   22  O11         0      26.645  24.941   1.605  1.00  0.00    -0.357 OA
HETATM   23  H11         0      27.299  25.544   1.270  1.00  0.00     0.218 HD
ENDBRANCH  18  22
ENDBRANCH   4  14
BRANCH   8  24
HETATM   24  O17         0      26.380  16.101   7.032  1.00  0.00    -0.359 OA
HETATM   25  H17         0      26.593  15.664   6.216  1.00  0.00     0.218 HD
ENDBRANCH   8  24
TORSDOF 5
ENDMDL
