MODEL 1
REMARK VINA RESULT:      -5.1      0.000      0.000
REMARK  5 active torsions:
REMARK  status: ('A' for Active; 'I' for Inactive)
REMARK    1  A    between atoms: C4_4  and  C5_5 
REMARK    2  A    between atoms: C8_8  and  O9_9 
REMARK    3  A    between atoms: C10_11  and  O11_12 
REMARK    4  A    between atoms: C16_18  and  O17_19 
REMARK    5  A    between atoms: C19_22  and  O20_23 
ROOT
HETATM    1  O1          0      57.523  41.328 -11.800  1.00  0.00    -0.286 OA
HETATM    2  C2          0      56.592  40.710 -11.214  1.00  0.00     0.201 C 
HETATM    3  C3          0      56.619  39.343 -10.996  1.00  0.00     0.067 C 
HETATM    4  C4          0      55.536  38.672 -10.441  1.00  0.00     0.103 C 
HETATM    5  O13         0      54.466  39.368 -10.098  1.00  0.00    -0.307 OA
HETATM    6  C14         0      54.373  40.661 -10.318  1.00  0.00     0.107 C 
HETATM    7  C15         0      53.149  41.313 -10.339  1.00  0.00     0.049 C 
HETATM    8  C16         0      53.031  42.612 -10.818  1.00  0.00     0.093 C 
HETATM    9  C18         0      54.196  43.368 -10.758  1.00  0.00     0.048 C 
HETATM   10  C19         0      55.436  42.748 -10.689  1.00  0.00     0.096 C 
HETATM   11  C21         0      55.512  41.382 -10.662  1.00  0.00     0.084 C 
ENDROOT
BRANCH  10  12
HETATM   12  O20         0      56.573  43.457 -11.063  1.00  0.00    -0.359 OA
HETATM   13  H20         0      57.036  43.942 -10.391  1.00  0.00     0.218 HD
ENDBRANCH  10  12
BRANCH   4  14
HETATM   14  C5          0      55.376  37.258 -10.785  1.00  0.00     0.025 C 
HETATM   15  C6          0      55.594  36.233  -9.875  1.00  0.00     0.004 C 
HETATM   16  C7          0      54.740  35.137  -9.923  1.00  0.00     0.026 C 
HETATM   17  C8          0      53.786  34.998 -10.925  1.00  0.00     0.112 C 
HETATM   18  C10         0      54.063  35.701 -12.090  1.00  0.00     0.112 C 
HETATM   19  C12         0      54.850  36.842 -12.002  1.00  0.00     0.028 C 
BRANCH  17  20
HETATM   20  O9          0      52.574  34.380 -10.670  1.00  0.00    -0.357 OA
HETATM   21  H9          0      52.336  33.525 -11.010  1.00  0.00     0.218 HD
ENDBRANCH  17  20
BRANCH  18  22
HETATM   22  O11         0      53.247  35.450 -13.184  1.00  0.00    -0.357 OA
HETATM   23  H11         0      52.627  34.734 -13.103  1.00  0.00     0.218 HD
ENDBRANCH  18  22
ENDBRANCH   4  14
BRANCH   8  24
HETATM   24  O17         0      51.939  43.005 -11.599  1.00  0.00    -0.359 OA
HETATM   25  H17         0      52.052  43.483 -12.412  1.00  0.00     0.218 HD
ENDBRANCH   8  24
TORSDOF 5
ENDMDL
MODEL 2
REMARK VINA RESULT:      -5.0      2.010      3.392
REMARK  5 active torsions:
REMARK  status: ('A' for Active; 'I' for Inactive)
REMARK    1  A    between atoms: C4_4  and  C5_5 
REMARK    2  A    between atoms: C8_8  and  O9_9 
REMARK    3  A    between atoms: C10_11  and  O11_12 
REMARK    4  A    between atoms: C16_18  and  O17_19 
REMARK    5  A    between atoms: C19_22  and  O20_23 
ROOT
HETATM    1  O1          0      52.991  42.053  -9.875  1.00  0.00    -0.286 OA
HETATM    2  C2          0      54.074  41.634 -10.368  1.00  0.00     0.201 C 
HETATM    3  C3          0      54.367  40.287 -10.500  1.00  0.00     0.067 C 
HETATM    4  C4          0      55.608  39.852 -10.952  1.00  0.00     0.103 C 
HETATM    5  O13         0      56.516  40.754 -11.279  1.00  0.00    -0.307 OA
HETATM    6  C14         0      56.303  42.044 -11.137  1.00  0.00     0.107 C 
HETATM    7  C15         0      57.347  42.956 -11.091  1.00  0.00     0.049 C 
HETATM    8  C16         0      57.140  44.271 -10.689  1.00  0.00     0.093 C 
HETATM    9  C18         0      55.843  44.739 -10.861  1.00  0.00     0.048 C 
HETATM   10  C19         0      54.779  43.852 -10.958  1.00  0.00     0.096 C 
HETATM   11  C21         0      55.012  42.504 -10.902  1.00  0.00     0.084 C 
ENDROOT
BRANCH  10  12
HETATM   12  O20         0      53.490  44.303 -10.692  1.00  0.00    -0.359 OA
HETATM   13  H20         0      52.882  43.698 -10.285  1.00  0.00     0.218 HD
ENDBRANCH  10  12
BRANCH   4  14
HETATM   14  C5          0      56.055  38.530 -10.511  1.00  0.00     0.025 C 
HETATM   15  C6          0      55.208  37.613  -9.904  1.00  0.00     0.004 C 
HETATM   16  C7          0      55.371  36.271 -10.232  1.00  0.00     0.026 C 
HETATM   17  C8          0      56.424  35.837 -11.029  1.00  0.00     0.112 C 
HETATM   18  C10         0      57.524  36.684 -11.048  1.00  0.00     0.112 C 
HETATM   19  C12         0      57.320  38.036 -10.801  1.00  0.00     0.028 C 
BRANCH  17  20
HETATM   20  O9          0      56.270  34.759 -11.883  1.00  0.00    -0.357 OA
HETATM   21  H9          0      55.532  34.654 -12.473  1.00  0.00     0.218 HD
ENDBRANCH  17  20
BRANCH  18  22
HETATM   22  O11         0      58.670  36.212 -11.672  1.00  0.00    -0.357 OA
HETATM   23  H11         0      58.560  35.807 -12.524  1.00  0.00     0.218 HD
ENDBRANCH  18  22
ENDBRANCH   4  14
BRANCH   8  24
HETATM   24  O17         0      58.062  44.939  -9.876  1.00  0.00    -0.359 OA
HETATM   25  H17         0      58.989  44.736  -9.902  1.00  0.00     0.218 HD
ENDBRANCH   8  24
TORSDOF 5
ENDMDL
MODEL 3
REMARK VINA RESULT:      -4.8      3.327      5.402
REMARK  5 active torsions:
REMARK  status: ('A' for Active; 'I' for Inactive)
REMARK    1  A    between atoms: C4_4  and  C5_5 
REMARK    2  A    between atoms: C8_8  and  O9_9 
REMARK    3  A    between atoms: C10_11  and  O11_12 
REMARK    4  A    between atoms: C16_18  and  O17_19 
REMARK    5  A    between atoms: C19_22  and  O20_23 
ROOT
HETATM    1  O1          0      56.611  39.338 -10.609  1.00  0.00    -0.286 OA
HETATM    2  C2          0      55.916  40.391 -10.631  1.00  0.00     0.201 C 
HETATM    3  C3          0      54.536  40.377 -10.741  1.00  0.00     0.067 C 
HETATM    4  C4          0      53.803  41.551 -10.866  1.00  0.00     0.103 C 
HETATM    5  O13         0      54.447  42.705 -10.858  1.00  0.00    -0.307 OA
HETATM    6  C14         0      55.758  42.773 -10.793  1.00  0.00     0.107 C 
HETATM    7  C15         0      56.451  43.911 -11.180  1.00  0.00     0.049 C 
HETATM    8  C16         0      57.830  43.893 -11.352  1.00  0.00     0.093 C 
HETATM    9  C18         0      58.498  42.909 -10.634  1.00  0.00     0.048 C 
HETATM   10  C19         0      57.825  41.779 -10.191  1.00  0.00     0.096 C 
HETATM   11  C21         0      56.488  41.640 -10.449  1.00  0.00     0.084 C 
ENDROOT
BRANCH  10  12
HETATM   12  O20         0      58.550  40.634  -9.877  1.00  0.00    -0.359 OA
HETATM   13  H20         0      58.169  40.021  -9.260  1.00  0.00     0.218 HD
ENDBRANCH  10  12
BRANCH   4  14
HETATM   14  C5          0      52.516  41.467 -11.559  1.00  0.00     0.025 C 
HETATM   15  C6          0      51.339  41.972 -11.025  1.00  0.00     0.004 C 
HETATM   16  C7          0      50.446  42.585 -11.897  1.00  0.00     0.026 C 
HETATM   17  C8          0      50.649  42.578 -13.273  1.00  0.00     0.112 C 
HETATM   18  C10         0      51.459  41.549 -13.734  1.00  0.00     0.112 C 
HETATM   19  C12         0      52.403  41.012 -12.867  1.00  0.00     0.028 C 
BRANCH  17  20
HETATM   20  O9          0      50.239  43.643 -14.056  1.00  0.00    -0.357 OA
HETATM   21  H9          0      50.837  44.212 -14.527  1.00  0.00     0.218 HD
ENDBRANCH  17  20
BRANCH  18  22
HETATM   22  O11         0      51.541  41.382 -15.110  1.00  0.00    -0.357 OA
HETATM   23  H11         0      50.727  41.226 -15.573  1.00  0.00     0.218 HD
ENDBRANCH  18  22
ENDBRANCH   4  14
BRANCH   8  24
HETATM   24  O17         0      58.442  44.577 -12.409  1.00  0.00    -0.359 OA
HETATM   25  H17         0      59.191  45.144 -12.269  1.00  0.00     0.218 HD
ENDBRANCH   8  24
TORSDOF 5
ENDMDL
MODEL 4
REMARK VINA RESULT:      -4.8      1.960      2.441
REMARK  5 active torsions:
REMARK  status: ('A' for Active; 'I' for Inactive)
REMARK    1  A    between atoms: C4_4  and  C5_5 
REMARK    2  A    between atoms: C8_8  and  O9_9 
REMARK    3  A    between atoms: C10_11  and  O11_12 
REMARK    4  A    between atoms: C16_18  and  O17_19 
REMARK    5  A    between atoms: C19_22  and  O20_23 
ROOT
HETATM    1  O1          0      57.004  42.556 -11.355  1.00  0.00    -0.286 OA
HETATM    2  C2          0      56.076  41.812 -10.933  1.00  0.00     0.201 C 
HETATM    3  C3          0      56.258  40.467 -10.661  1.00  0.00     0.067 C 
HETATM    4  C4          0      55.196  39.647 -10.296  1.00  0.00     0.103 C 
HETATM    5  O13         0      53.991  40.179 -10.190  1.00  0.00    -0.307 OA
HETATM    6  C14         0      53.757  41.442 -10.473  1.00  0.00     0.107 C 
HETATM    7  C15         0      52.479  41.903 -10.751  1.00  0.00     0.049 C 
HETATM    8  C16         0      52.269  43.165 -11.294  1.00  0.00     0.093 C 
HETATM    9  C18         0      53.279  44.087 -11.043  1.00  0.00     0.048 C 
HETATM   10  C19         0      54.559  43.659 -10.716  1.00  0.00     0.096 C 
HETATM   11  C21         0      54.824  42.320 -10.623  1.00  0.00     0.084 C 
ENDROOT
BRANCH  10  12
HETATM   12  O20         0      55.632  44.527 -10.895  1.00  0.00    -0.359 OA
HETATM   13  H20         0      56.453  44.313 -10.468  1.00  0.00     0.218 HD
ENDBRANCH  10  12
BRANCH   4  14
HETATM   14  C5          0      55.312  38.221 -10.609  1.00  0.00     0.025 C 
HETATM   15  C6          0      54.750  37.652 -11.743  1.00  0.00     0.004 C 
HETATM   16  C7          0      55.476  36.659 -12.392  1.00  0.00     0.026 C 
HETATM   17  C8          0      56.657  36.152 -11.860  1.00  0.00     0.112 C 
HETATM   18  C10         0      56.787  36.308 -10.487  1.00  0.00     0.112 C 
HETATM   19  C12         0      56.119  37.361  -9.875  1.00  0.00     0.028 C 
BRANCH  17  20
HETATM   20  O9          0      57.683  35.730 -12.687  1.00  0.00    -0.357 OA
HETATM   21  H9          0      58.363  35.124 -12.416  1.00  0.00     0.218 HD
ENDBRANCH  17  20
BRANCH  18  22
HETATM   22  O11         0      57.852  35.657  -9.879  1.00  0.00    -0.357 OA
HETATM   23  H11         0      57.836  34.707  -9.888  1.00  0.00     0.218 HD
ENDBRANCH  18  22
ENDBRANCH   4  14
BRANCH   8  24
HETATM   24  O17         0      51.303  43.383 -12.283  1.00  0.00    -0.359 OA
HETATM   25  H17         0      51.488  43.232 -13.203  1.00  0.00     0.218 HD
ENDBRANCH   8  24
TORSDOF 5
ENDMDL
MODEL 5
REMARK VINA RESULT:      -4.8      2.256      6.252
REMARK  5 active torsions:
REMARK  status: ('A' for Active; 'I' for Inactive)
REMARK    1  A    between atoms: C4_4  and  C5_5 
REMARK    2  A    between atoms: C8_8  and  O9_9 
REMARK    3  A    between atoms: C10_11  and  O11_12 
REMARK    4  A    between atoms: C16_18  and  O17_19 
REMARK    5  A    between atoms: C19_22  and  O20_23 
ROOT
HETATM    1  O1          0      55.540  36.611 -10.497  1.00  0.00    -0.286 OA
HETATM    2  C2          0      55.762  37.845 -10.362  1.00  0.00     0.201 C 
HETATM    3  C3          0      54.750  38.788 -10.295  1.00  0.00     0.067 C 
HETATM    4  C4          0      55.024  40.150 -10.250  1.00  0.00     0.103 C 
HETATM    5  O13         0      56.285  40.544 -10.250  1.00  0.00    -0.307 OA
HETATM    6  C14         0      57.283  39.693 -10.350  1.00  0.00     0.107 C 
HETATM    7  C15         0      58.550  40.096 -10.748  1.00  0.00     0.049 C 
HETATM    8  C16         0      59.526  39.169 -11.096  1.00  0.00     0.093 C 
HETATM    9  C18         0      59.365  37.908 -10.534  1.00  0.00     0.048 C 
HETATM   10  C19         0      58.120  37.491 -10.082  1.00  0.00     0.096 C 
HETATM   11  C21         0      57.046  38.334 -10.175  1.00  0.00     0.084 C 
ENDROOT
BRANCH  10  12
HETATM   12  O20         0      57.870  36.130  -9.937  1.00  0.00    -0.359 OA
HETATM   13  H20         0      57.953  35.578 -10.705  1.00  0.00     0.218 HD
ENDBRANCH  10  12
BRANCH   4  14
HETATM   14  C5          0      54.003  41.057 -10.777  1.00  0.00     0.025 C 
HETATM   15  C6          0      53.232  41.874  -9.963  1.00  0.00     0.004 C 
HETATM   16  C7          0      52.938  43.153 -10.427  1.00  0.00     0.026 C 
HETATM   17  C8          0      53.283  43.559 -11.712  1.00  0.00     0.112 C 
HETATM   18  C10         0      53.456  42.524 -12.621  1.00  0.00     0.112 C 
HETATM   19  C12         0      53.833  41.277 -12.137  1.00  0.00     0.028 C 
BRANCH  17  20
HETATM   20  O9          0      53.625  44.875 -11.971  1.00  0.00    -0.357 OA
HETATM   21  H9          0      53.462  45.309 -12.800  1.00  0.00     0.218 HD
ENDBRANCH  17  20
BRANCH  18  22
HETATM   22  O11         0      53.614  42.878 -13.953  1.00  0.00    -0.357 OA
HETATM   23  H11         0      53.312  43.742 -14.208  1.00  0.00     0.218 HD
ENDBRANCH  18  22
ENDBRANCH   4  14
BRANCH   8  24
HETATM   24  O17         0      60.388  39.389 -12.176  1.00  0.00    -0.359 OA
HETATM   25  H17         0      60.410  38.803 -12.923  1.00  0.00     0.218 HD
ENDBRANCH   8  24
TORSDOF 5
ENDMDL
MODEL 6
REMARK VINA RESULT:      -4.7      4.039      6.328
REMARK  5 active torsions:
REMARK  status: ('A' for Active; 'I' for Inactive)
REMARK    1  A    between atoms: C4_4  and  C5_5 
REMARK    2  A    between atoms: C8_8  and  O9_9 
REMARK    3  A    between atoms: C10_11  and  O11_12 
REMARK    4  A    between atoms: C16_18  and  O17_19 
REMARK    5  A    between atoms: C19_22  and  O20_23 
ROOT
HETATM    1  O1          0      60.187  43.915 -11.742  1.00  0.00    -0.286 OA
HETATM    2  C2          0      59.088  44.180 -11.181  1.00  0.00     0.201 C 
HETATM    3  C3          0      58.054  43.264 -11.086  1.00  0.00     0.067 C 
HETATM    4  C4          0      56.818  43.613 -10.555  1.00  0.00     0.103 C 
HETATM    5  O13         0      56.641  44.847 -10.115  1.00  0.00    -0.307 OA
HETATM    6  C14         0      57.577  45.765 -10.216  1.00  0.00     0.107 C 
HETATM    7  C15         0      57.284  47.119 -10.137  1.00  0.00     0.049 C 
HETATM    8  C16         0      58.219  48.082 -10.495  1.00  0.00     0.093 C 
HETATM    9  C18         0      59.545  47.673 -10.409  1.00  0.00     0.048 C 
HETATM   10  C19         0      59.870  46.324 -10.438  1.00  0.00     0.096 C 
HETATM   11  C21         0      58.877  45.388 -10.535  1.00  0.00     0.084 C 
ENDROOT
BRANCH  10  12
HETATM   12  O20         0      61.162  45.943 -10.787  1.00  0.00    -0.359 OA
HETATM   13  H20         0      61.796  46.628 -10.965  1.00  0.00     0.218 HD
ENDBRANCH  10  12
BRANCH   4  14
HETATM   14  C5          0      55.652  42.856 -11.017  1.00  0.00     0.025 C 
HETATM   15  C6          0      55.405  41.547 -10.632  1.00  0.00     0.004 C 
HETATM   16  C7          0      54.083  41.184 -10.392  1.00  0.00     0.026 C 
HETATM   17  C8          0      53.030  42.053 -10.656  1.00  0.00     0.112 C 
HETATM   18  C10         0      53.310  43.036 -11.596  1.00  0.00     0.112 C 
HETATM   19  C12         0      54.630  43.440 -11.754  1.00  0.00     0.028 C 
BRANCH  17  20
HETATM   20  O9          0      51.888  42.039  -9.875  1.00  0.00    -0.357 OA
HETATM   21  H9          0      51.016  41.875 -10.217  1.00  0.00     0.218 HD
ENDBRANCH  17  20
BRANCH  18  22
HETATM   22  O11         0      52.244  43.808 -12.035  1.00  0.00    -0.357 OA
HETATM   23  H11         0      52.356  44.751 -12.008  1.00  0.00     0.218 HD
ENDBRANCH  18  22
ENDBRANCH   4  14
BRANCH   8  24
HETATM   24  O17         0      57.848  49.232 -11.200  1.00  0.00    -0.359 OA
HETATM   25  H17         0      57.954  50.101 -10.829  1.00  0.00     0.218 HD
ENDBRANCH   8  24
TORSDOF 5
ENDMDL
MODEL 7
REMARK VINA RESULT:      -4.6      2.452      3.291
REMARK  5 active torsions:
REMARK  status: ('A' for Active; 'I' for Inactive)
REMARK    1  A    between atoms: C4_4  and  C5_5 
REMARK    2  A    between atoms: C8_8  and  O9_9 
REMARK    3  A    between atoms: C10_11  and  O11_12 
REMARK    4  A    between atoms: C16_18  and  O17_19 
REMARK    5  A    between atoms: C19_22  and  O20_23 
ROOT
HETATM    1  O1          0      56.081  43.724 -12.731  1.00  0.00    -0.286 OA
HETATM    2  C2          0      55.821  42.852 -11.857  1.00  0.00     0.201 C 
HETATM    3  C3          0      56.743  41.905 -11.444  1.00  0.00     0.067 C 
HETATM    4  C4          0      56.400  40.892 -10.556  1.00  0.00     0.103 C 
HETATM    5  O13         0      55.166  40.852 -10.085  1.00  0.00    -0.307 OA
HETATM    6  C14         0      54.242  41.704 -10.473  1.00  0.00     0.107 C 
HETATM    7  C15         0      52.890  41.440 -10.309  1.00  0.00     0.049 C 
HETATM    8  C16         0      51.922  42.212 -10.941  1.00  0.00     0.093 C 
HETATM    9  C18         0      52.322  43.502 -11.270  1.00  0.00     0.048 C 
HETATM   10  C19         0      53.669  43.811 -11.396  1.00  0.00     0.096 C 
HETATM   11  C21         0      54.612  42.844 -11.179  1.00  0.00     0.084 C 
ENDROOT
BRANCH  10  12
HETATM   12  O20         0      54.044  44.934 -12.129  1.00  0.00    -0.359 OA
HETATM   13  H20         0      53.407  45.308 -12.726  1.00  0.00     0.218 HD
ENDBRANCH  10  12
BRANCH   4  14
HETATM   14  C5          0      57.165  39.646 -10.633  1.00  0.00     0.025 C 
HETATM   15  C6          0      56.753  38.472 -10.020  1.00  0.00     0.004 C 
HETATM   16  C7          0      56.969  37.279 -10.702  1.00  0.00     0.026 C 
HETATM   17  C8          0      57.690  37.238 -11.891  1.00  0.00     0.112 C 
HETATM   18  C10         0      58.567  38.299 -12.073  1.00  0.00     0.112 C 
HETATM   19  C12         0      58.281  39.507 -11.448  1.00  0.00     0.028 C 
BRANCH  17  20
HETATM   20  O9          0      57.378  36.321 -12.878  1.00  0.00    -0.357 OA
HETATM   21  H9          0      57.352  36.531 -13.804  1.00  0.00     0.218 HD
ENDBRANCH  17  20
BRANCH  18  22
HETATM   22  O11         0      59.444  38.213 -13.145  1.00  0.00    -0.357 OA
HETATM   23  H11         0      59.215  37.607 -13.840  1.00  0.00     0.218 HD
ENDBRANCH  18  22
ENDBRANCH   4  14
BRANCH   8  24
HETATM   24  O17         0      50.776  41.633 -11.497  1.00  0.00    -0.359 OA
HETATM   25  H17         0      49.905  41.865 -11.200  1.00  0.00     0.218 HD
ENDBRANCH   8  24
TORSDOF 5
ENDMDL
MODEL 8
REMARK VINA RESULT:      -4.5      1.937      6.299
REMARK  5 active torsions:
REMARK  status: ('A' for Active; 'I' for Inactive)
REMARK    1  A    between atoms: C4_4  and  C5_5 
REMARK    2  A    between atoms: C8_8  and  O9_9 
REMARK    3  A    between atoms: C10_11  and  O11_12 
REMARK    4  A    between atoms: C16_18  and  O17_19 
REMARK    5  A    between atoms: C19_22  and  O20_23 
ROOT
HETATM    1  O1          0      57.453  38.351  -9.875  1.00  0.00    -0.286 OA
HETATM    2  C2          0      56.500  38.436 -10.697  1.00  0.00     0.201 C 
HETATM    3  C3          0      55.788  39.605 -10.902  1.00  0.00     0.067 C 
HETATM    4  C4          0      54.677  39.645 -11.737  1.00  0.00     0.103 C 
HETATM    5  O13         0      54.313  38.539 -12.363  1.00  0.00    -0.307 OA
HETATM    6  C14         0      54.932  37.394 -12.175  1.00  0.00     0.107 C 
HETATM    7  C15         0      54.337  36.182 -12.493  1.00  0.00     0.049 C 
HETATM    8  C16         0      54.880  34.977 -12.063  1.00  0.00     0.093 C 
HETATM    9  C18         0      56.244  35.010 -11.796  1.00  0.00     0.048 C 
HETATM   10  C19         0      56.880  36.212 -11.519  1.00  0.00     0.096 C 
HETATM   11  C21         0      56.162  37.377 -11.526  1.00  0.00     0.084 C 
ENDROOT
BRANCH  10  12
HETATM   12  O20         0      58.095  36.199 -10.842  1.00  0.00    -0.359 OA
HETATM   13  H20         0      58.086  35.995  -9.915  1.00  0.00     0.218 HD
ENDBRANCH  10  12
BRANCH   4  14
HETATM   14  C5          0      53.662  40.661 -11.454  1.00  0.00     0.025 C 
HETATM   15  C6          0      53.479  41.211 -10.193  1.00  0.00     0.004 C 
HETATM   16  C7          0      53.180  42.567 -10.118  1.00  0.00     0.026 C 
HETATM   17  C8          0      52.937  43.325 -11.259  1.00  0.00     0.112 C 
HETATM   18  C10         0      52.523  42.593 -12.364  1.00  0.00     0.112 C 
HETATM   19  C12         0      52.908  41.260 -12.455  1.00  0.00     0.028 C 
BRANCH  17  20
HETATM   20  O9          0      53.294  44.660 -11.312  1.00  0.00    -0.357 OA
HETATM   21  H9          0      54.065  44.983 -11.765  1.00  0.00     0.218 HD
ENDBRANCH  17  20
BRANCH  18  22
HETATM   22  O11         0      52.088  43.312 -13.467  1.00  0.00    -0.357 OA
HETATM   23  H11         0      52.318  42.969 -14.323  1.00  0.00     0.218 HD
ENDBRANCH  18  22
ENDBRANCH   4  14
BRANCH   8  24
HETATM   24  O17         0      54.068  33.929 -11.616  1.00  0.00    -0.359 OA
HETATM   25  H17         0      53.747  33.893 -10.722  1.00  0.00     0.218 HD
ENDBRANCH   8  24
TORSDOF 5
ENDMDL
MODEL 9
REMARK VINA RESULT:      -4.3      3.922      5.185
REMARK  5 active torsions:
REMARK  status: ('A' for Active; 'I' for Inactive)
REMARK    1  A    between atoms: C4_4  and  C5_5 
REMARK    2  A    between atoms: C8_8  and  O9_9 
REMARK    3  A    between atoms: C10_11  and  O11_12 
REMARK    4  A    between atoms: C16_18  and  O17_19 
REMARK    5  A    between atoms: C19_22  and  O20_23 
ROOT
HETATM    1  O1          0      57.775  42.953 -13.645  1.00  0.00    -0.286 OA
HETATM    2  C2          0      57.087  43.016 -12.590  1.00  0.00     0.201 C 
HETATM    3  C3          0      56.098  42.097 -12.283  1.00  0.00     0.067 C 
HETATM    4  C4          0      55.286  42.247 -11.165  1.00  0.00     0.103 C 
HETATM    5  O13         0      55.485  43.284 -10.370  1.00  0.00    -0.307 OA
HETATM    6  C14         0      56.385  44.205 -10.635  1.00  0.00     0.107 C 
HETATM    7  C15         0      56.334  45.465 -10.057  1.00  0.00     0.049 C 
HETATM    8  C16         0      57.125  46.507 -10.525  1.00  0.00     0.093 C 
HETATM    9  C18         0      58.285  46.114 -11.183  1.00  0.00     0.048 C 
HETATM   10  C19         0      58.387  44.843 -11.733  1.00  0.00     0.096 C 
HETATM   11  C21         0      57.345  43.965 -11.613  1.00  0.00     0.084 C 
ENDROOT
BRANCH  10  12
HETATM   12  O20         0      59.325  44.609 -12.734  1.00  0.00    -0.359 OA
HETATM   13  H20         0      60.052  44.030 -12.536  1.00  0.00     0.218 HD
ENDBRANCH  10  12
BRANCH   4  14
HETATM   14  C5          0      53.951  41.648 -11.221  1.00  0.00     0.025 C 
HETATM   15  C6          0      53.005  41.823 -10.221  1.00  0.00     0.004 C 
HETATM   16  C7          0      51.678  41.974 -10.609  1.00  0.00     0.026 C 
HETATM   17  C8          0      51.283  41.822 -11.934  1.00  0.00     0.112 C 
HETATM   18  C10         0      52.139  41.051 -12.709  1.00  0.00     0.112 C 
HETATM   19  C12         0      53.479  40.986 -12.347  1.00  0.00     0.028 C 
BRANCH  17  20
HETATM   20  O9          0      50.237  42.565 -12.451  1.00  0.00    -0.357 OA
HETATM   21  H9          0      49.614  42.230 -13.086  1.00  0.00     0.218 HD
ENDBRANCH  17  20
BRANCH  18  22
HETATM   22  O11         0      51.700  40.711 -13.980  1.00  0.00    -0.357 OA
HETATM   23  H11         0      51.285  41.397 -14.490  1.00  0.00     0.218 HD
ENDBRANCH  18  22
ENDBRANCH   4  14
BRANCH   8  24
HETATM   24  O17         0      56.629  47.811 -10.626  1.00  0.00    -0.359 OA
HETATM   25  H17         0      56.304  48.282  -9.867  1.00  0.00     0.218 HD
ENDBRANCH   8  24
TORSDOF 5
ENDMDL
