MODEL 1
REMARK VINA RESULT:      -0.8      0.000      0.000
REMARK  5 active torsions:
REMARK  status: ('A' for Active; 'I' for Inactive)
REMARK    1  A    between atoms: C4_4  and  C5_5 
REMARK    2  A    between atoms: C8_8  and  O9_9 
REMARK    3  A    between atoms: C10_11  and  O11_12 
REMARK    4  A    between atoms: C16_18  and  O17_19 
REMARK    5  A    between atoms: C19_22  and  O20_23 
ROOT
HETATM    1  O1          0      39.689 111.475 -15.154  1.00  0.00    -0.286 OA
HETATM    2  C2          0      39.173 110.943 -14.133  1.00  0.00     0.201 C 
HETATM    3  C3          0      37.805 110.897 -13.922  1.00  0.00     0.067 C 
HETATM    4  C4          0      37.267 110.398 -12.741  1.00  0.00     0.103 C 
HETATM    5  O13         0      38.088 109.941 -11.813  1.00  0.00    -0.307 OA
HETATM    6  C14         0      39.395 109.996 -11.947  1.00  0.00     0.107 C 
HETATM    7  C15         0      40.247 109.901 -10.855  1.00  0.00     0.049 C 
HETATM    8  C16         0      41.597 110.213 -10.964  1.00  0.00     0.093 C 
HETATM    9  C18         0      42.125 110.094 -12.244  1.00  0.00     0.048 C 
HETATM   10  C19         0      41.296 110.137 -13.356  1.00  0.00     0.096 C 
HETATM   11  C21         0      39.946 110.282 -13.191  1.00  0.00     0.084 C 
ENDROOT
BRANCH  10  12
HETATM   12  O20         0      41.840 110.454 -14.597  1.00  0.00    -0.359 OA
HETATM   13  H20         0      42.721 110.155 -14.787  1.00  0.00     0.218 HD
ENDBRANCH  10  12
BRANCH   4  14
HETATM   14  C5          0      35.957 110.909 -12.334  1.00  0.00     0.025 C 
HETATM   15  C6          0      35.426 110.695 -11.070  1.00  0.00     0.004 C 
HETATM   16  C7          0      34.714 111.738 -10.485  1.00  0.00     0.026 C 
HETATM   17  C8          0      34.423 112.904 -11.184  1.00  0.00     0.112 C 
HETATM   18  C10         0      34.427 112.768 -12.566  1.00  0.00     0.112 C 
HETATM   19  C12         0      35.214 111.772 -13.130  1.00  0.00     0.028 C 
BRANCH  17  20
HETATM   20  O9          0      34.354 114.123 -10.532  1.00  0.00    -0.357 OA
HETATM   21  H9          0      34.412 114.221  -9.589  1.00  0.00     0.218 HD
ENDBRANCH  17  20
BRANCH  18  22
HETATM   22  O11         0      33.960 113.847 -13.305  1.00  0.00    -0.357 OA
HETATM   23  H11         0      34.604 114.488 -13.582  1.00  0.00     0.218 HD
ENDBRANCH  18  22
ENDBRANCH   4  14
BRANCH   8  24
HETATM   24  O17         0      42.269 110.908  -9.952  1.00  0.00    -0.359 OA
HETATM   25  H17         0      42.189 110.660  -9.039  1.00  0.00     0.218 HD
ENDBRANCH   8  24
TORSDOF 5
ENDMDL
MODEL 2
REMARK VINA RESULT:      -0.8      1.613      6.537
REMARK  5 active torsions:
REMARK  status: ('A' for Active; 'I' for Inactive)
REMARK    1  A    between atoms: C4_4  and  C5_5 
REMARK    2  A    between atoms: C8_8  and  O9_9 
REMARK    3  A    between atoms: C10_11  and  O11_12 
REMARK    4  A    between atoms: C16_18  and  O17_19 
REMARK    5  A    between atoms: C19_22  and  O20_23 
ROOT
HETATM    1  O1          0      36.540 112.863 -14.743  1.00  0.00    -0.286 OA
HETATM    2  C2          0      36.889 112.371 -13.635  1.00  0.00     0.201 C 
HETATM    3  C3          0      38.193 111.997 -13.358  1.00  0.00     0.067 C 
HETATM    4  C4          0      38.532 111.362 -12.169  1.00  0.00     0.103 C 
HETATM    5  O13         0      37.583 111.133 -11.278  1.00  0.00    -0.307 OA
HETATM    6  C14         0      36.323 111.434 -11.507  1.00  0.00     0.107 C 
HETATM    7  C15         0      35.291 110.853 -10.784  1.00  0.00     0.049 C 
HETATM    8  C16         0      33.968 110.975 -11.192  1.00  0.00     0.093 C 
HETATM    9  C18         0      33.697 112.087 -11.981  1.00  0.00     0.048 C 
HETATM   10  C19         0      34.715 112.720 -12.680  1.00  0.00     0.096 C 
HETATM   11  C21         0      35.998 112.258 -12.579  1.00  0.00     0.084 C 
ENDROOT
BRANCH  10  12
HETATM   12  O20         0      34.394 113.520 -13.773  1.00  0.00    -0.359 OA
HETATM   13  H20         0      33.712 113.217 -14.361  1.00  0.00     0.218 HD
ENDBRANCH  10  12
BRANCH   4  14
HETATM   14  C5          0      39.707 110.489 -12.186  1.00  0.00     0.025 C 
HETATM   15  C6          0      40.301 110.051 -13.361  1.00  0.00     0.004 C 
HETATM   16  C7          0      41.689 109.968 -13.390  1.00  0.00     0.026 C 
HETATM   17  C8          0      42.457 110.184 -12.251  1.00  0.00     0.112 C 
HETATM   18  C10         0      41.784 109.984 -11.053  1.00  0.00     0.112 C 
HETATM   19  C12         0      40.405 110.156 -11.033  1.00  0.00     0.028 C 
BRANCH  17  20
HETATM   20  O9          0      43.714 110.755 -12.340  1.00  0.00    -0.357 OA
HETATM   21  H9          0      44.522 110.255 -12.345  1.00  0.00     0.218 HD
ENDBRANCH  17  20
BRANCH  18  22
HETATM   22  O11         0      42.547 110.000  -9.894  1.00  0.00    -0.357 OA
HETATM   23  H11         0      42.807 109.158  -9.538  1.00  0.00     0.218 HD
ENDBRANCH  18  22
ENDBRANCH   4  14
BRANCH   8  24
HETATM   24  O17         0      33.075 109.902 -11.101  1.00  0.00    -0.359 OA
HETATM   25  H17         0      32.818 109.401 -11.866  1.00  0.00     0.218 HD
ENDBRANCH   8  24
TORSDOF 5
ENDMDL
MODEL 3
REMARK VINA RESULT:      -0.7      2.753      3.760
REMARK  5 active torsions:
REMARK  status: ('A' for Active; 'I' for Inactive)
REMARK    1  A    between atoms: C4_4  and  C5_5 
REMARK    2  A    between atoms: C8_8  and  O9_9 
REMARK    3  A    between atoms: C10_11  and  O11_12 
REMARK    4  A    between atoms: C16_18  and  O17_19 
REMARK    5  A    between atoms: C19_22  and  O20_23 
ROOT
HETATM    1  O1          0      42.025 111.338 -15.609  1.00  0.00    -0.286 OA
HETATM    2  C2          0      41.876 111.359 -14.356  1.00  0.00     0.201 C 
HETATM    3  C3          0      40.996 110.522 -13.691  1.00  0.00     0.067 C 
HETATM    4  C4          0      40.775 110.635 -12.323  1.00  0.00     0.103 C 
HETATM    5  O13         0      41.442 111.554 -11.647  1.00  0.00    -0.307 OA
HETATM    6  C14         0      42.261 112.398 -12.235  1.00  0.00     0.107 C 
HETATM    7  C15         0      42.644 113.587 -11.630  1.00  0.00     0.049 C 
HETATM    8  C16         0      43.295 114.584 -12.346  1.00  0.00     0.093 C 
HETATM    9  C18         0      43.989 114.144 -13.467  1.00  0.00     0.048 C 
HETATM   10  C19         0      43.663 112.936 -14.069  1.00  0.00     0.096 C 
HETATM   11  C21         0      42.661 112.165 -13.546  1.00  0.00     0.084 C 
ENDROOT
BRANCH  10  12
HETATM   12  O20         0      44.035 112.714 -15.392  1.00  0.00    -0.359 OA
HETATM   13  H20         0      43.519 113.125 -16.074  1.00  0.00     0.218 HD
ENDBRANCH  10  12
BRANCH   4  14
HETATM   14  C5          0      39.476 110.190 -11.815  1.00  0.00     0.025 C 
HETATM   15  C6          0      39.250 109.906 -10.476  1.00  0.00     0.004 C 
HETATM   16  C7          0      38.022 110.277  -9.938  1.00  0.00     0.026 C 
HETATM   17  C8          0      37.002 110.789 -10.732  1.00  0.00     0.112 C 
HETATM   18  C10         0      37.084 110.446 -12.075  1.00  0.00     0.112 C 
HETATM   19  C12         0      38.336 110.163 -12.608  1.00  0.00     0.028 C 
BRANCH  17  20
HETATM   20  O9          0      36.120 111.731 -10.233  1.00  0.00    -0.357 OA
HETATM   21  H9          0      35.251 111.881 -10.587  1.00  0.00     0.218 HD
ENDBRANCH  17  20
BRANCH  18  22
HETATM   22  O11         0      35.998 110.770 -12.875  1.00  0.00    -0.357 OA
HETATM   23  H11         0      36.187 111.102 -13.744  1.00  0.00     0.218 HD
ENDBRANCH  18  22
ENDBRANCH   4  14
BRANCH   8  24
HETATM   24  O17         0      42.994 115.937 -12.151  1.00  0.00    -0.359 OA
HETATM   25  H17         0      43.170 116.588 -12.820  1.00  0.00     0.218 HD
ENDBRANCH   8  24
TORSDOF 5
ENDMDL
MODEL 4
REMARK VINA RESULT:      -0.7      2.811      4.168
REMARK  5 active torsions:
REMARK  status: ('A' for Active; 'I' for Inactive)
REMARK    1  A    between atoms: C4_4  and  C5_5 
REMARK    2  A    between atoms: C8_8  and  O9_9 
REMARK    3  A    between atoms: C10_11  and  O11_12 
REMARK    4  A    between atoms: C16_18  and  O17_19 
REMARK    5  A    between atoms: C19_22  and  O20_23 
ROOT
HETATM    1  O1          0      41.018 110.961 -14.400  1.00  0.00    -0.286 OA
HETATM    2  C2          0      39.820 110.567 -14.418  1.00  0.00     0.201 C 
HETATM    3  C3          0      39.055 110.544 -15.572  1.00  0.00     0.067 C 
HETATM    4  C4          0      37.707 110.203 -15.546  1.00  0.00     0.103 C 
HETATM    5  O13         0      37.158 109.875 -14.390  1.00  0.00    -0.307 OA
HETATM    6  C14         0      37.829 109.916 -13.260  1.00  0.00     0.107 C 
HETATM    7  C15         0      37.188 109.969 -12.030  1.00  0.00     0.049 C 
HETATM    8  C16         0      37.885 110.267 -10.866  1.00  0.00     0.093 C 
HETATM    9  C18         0      39.244 109.982 -10.905  1.00  0.00     0.048 C 
HETATM   10  C19         0      39.908 109.877 -12.120  1.00  0.00     0.096 C 
HETATM   11  C21         0      39.214 110.037 -13.289  1.00  0.00     0.084 C 
ENDROOT
BRANCH  10  12
HETATM   12  O20         0      41.290 110.029 -12.156  1.00  0.00    -0.359 OA
HETATM   13  H20         0      41.762 110.010 -11.332  1.00  0.00     0.218 HD
ENDBRANCH  10  12
BRANCH   4  14
HETATM   14  C5          0      36.855 110.760 -16.598  1.00  0.00     0.025 C 
HETATM   15  C6          0      36.310 109.985 -17.612  1.00  0.00     0.004 C 
HETATM   16  C7          0      35.015 110.283 -18.025  1.00  0.00     0.026 C 
HETATM   17  C8          0      34.334 111.396 -17.544  1.00  0.00     0.112 C 
HETATM   18  C10         0      35.150 112.412 -17.063  1.00  0.00     0.112 C 
HETATM   19  C12         0      36.407 112.074 -16.577  1.00  0.00     0.028 C 
BRANCH  17  20
HETATM   20  O9          0      32.961 111.370 -17.377  1.00  0.00    -0.357 OA
HETATM   21  H9          0      32.482 110.613 -17.058  1.00  0.00     0.218 HD
ENDBRANCH  17  20
BRANCH  18  22
HETATM   22  O11         0      34.535 113.615 -16.747  1.00  0.00    -0.357 OA
HETATM   23  H11         0      35.093 114.307 -16.410  1.00  0.00     0.218 HD
ENDBRANCH  18  22
ENDBRANCH   4  14
BRANCH   8  24
HETATM   24  O17         0      37.334 111.091  -9.878  1.00  0.00    -0.359 OA
HETATM   25  H17         0      37.778 111.246  -9.052  1.00  0.00     0.218 HD
ENDBRANCH   8  24
TORSDOF 5
ENDMDL
MODEL 5
REMARK VINA RESULT:      -0.6      2.581      6.707
REMARK  5 active torsions:
REMARK  status: ('A' for Active; 'I' for Inactive)
REMARK    1  A    between atoms: C4_4  and  C5_5 
REMARK    2  A    between atoms: C8_8  and  O9_9 
REMARK    3  A    between atoms: C10_11  and  O11_12 
REMARK    4  A    between atoms: C16_18  and  O17_19 
REMARK    5  A    between atoms: C19_22  and  O20_23 
ROOT
HETATM    1  O1          0      39.452 114.256 -11.370  1.00  0.00    -0.286 OA
HETATM    2  C2          0      39.727 113.029 -11.469  1.00  0.00     0.201 C 
HETATM    3  C3          0      40.912 112.567 -12.016  1.00  0.00     0.067 C 
HETATM    4  C4          0      41.145 111.210 -12.207  1.00  0.00     0.103 C 
HETATM    5  O13         0      40.216 110.347 -11.836  1.00  0.00    -0.307 OA
HETATM    6  C14         0      39.059 110.734 -11.346  1.00  0.00     0.107 C 
HETATM    7  C15         0      37.954 109.895 -11.332  1.00  0.00     0.049 C 
HETATM    8  C16         0      36.682 110.381 -11.054  1.00  0.00     0.093 C 
HETATM    9  C18         0      36.651 111.549 -10.302  1.00  0.00     0.048 C 
HETATM   10  C19         0      37.756 112.388 -10.257  1.00  0.00     0.096 C 
HETATM   11  C21         0      38.891 112.055 -10.945  1.00  0.00     0.084 C 
ENDROOT
BRANCH  10  12
HETATM   12  O20         0      37.585 113.718  -9.886  1.00  0.00    -0.359 OA
HETATM   13  H20         0      36.943 114.234 -10.360  1.00  0.00     0.218 HD
ENDBRANCH  10  12
BRANCH   4  14
HETATM   14  C5          0      42.068 110.834 -13.280  1.00  0.00     0.025 C 
HETATM   15  C6          0      41.760 109.875 -14.235  1.00  0.00     0.004 C 
HETATM   16  C7          0      42.183 110.106 -15.540  1.00  0.00     0.026 C 
HETATM   17  C8          0      43.000 111.185 -15.862  1.00  0.00     0.112 C 
HETATM   18  C10         0      43.745 111.684 -14.802  1.00  0.00     0.112 C 
HETATM   19  C12         0      43.256 111.514 -13.513  1.00  0.00     0.028 C 
BRANCH  17  20
HETATM   20  O9          0      42.891 111.815 -17.089  1.00  0.00    -0.357 OA
HETATM   21  H9          0      42.063 112.067 -17.481  1.00  0.00     0.218 HD
ENDBRANCH  17  20
BRANCH  18  22
HETATM   22  O11         0      44.712 112.632 -15.106  1.00  0.00    -0.357 OA
HETATM   23  H11         0      44.411 113.523 -15.248  1.00  0.00     0.218 HD
ENDBRANCH  18  22
ENDBRANCH   4  14
BRANCH   8  24
HETATM   24  O17         0      35.559 109.928 -11.756  1.00  0.00    -0.359 OA
HETATM   25  H17         0      34.689 110.263 -11.575  1.00  0.00     0.218 HD
ENDBRANCH   8  24
TORSDOF 5
ENDMDL
MODEL 6
REMARK VINA RESULT:      -0.6      2.506      3.851
REMARK  5 active torsions:
REMARK  status: ('A' for Active; 'I' for Inactive)
REMARK    1  A    between atoms: C4_4  and  C5_5 
REMARK    2  A    between atoms: C8_8  and  O9_9 
REMARK    3  A    between atoms: C10_11  and  O11_12 
REMARK    4  A    between atoms: C16_18  and  O17_19 
REMARK    5  A    between atoms: C19_22  and  O20_23 
ROOT
HETATM    1  O1          0      39.705 112.977 -16.525  1.00  0.00    -0.286 OA
HETATM    2  C2          0      40.130 112.033 -15.804  1.00  0.00     0.201 C 
HETATM    3  C3          0      39.302 111.275 -14.994  1.00  0.00     0.067 C 
HETATM    4  C4          0      39.810 110.309 -14.132  1.00  0.00     0.103 C 
HETATM    5  O13         0      41.115 110.103 -14.109  1.00  0.00    -0.307 OA
HETATM    6  C14         0      41.949 110.820 -14.830  1.00  0.00     0.107 C 
HETATM    7  C15         0      43.301 110.893 -14.527  1.00  0.00     0.049 C 
HETATM    8  C16         0      44.124 111.839 -15.124  1.00  0.00     0.093 C 
HETATM    9  C18         0      43.684 112.306 -16.357  1.00  0.00     0.048 C 
HETATM   10  C19         0      42.346 112.206 -16.712  1.00  0.00     0.096 C 
HETATM   11  C21         0      41.456 111.628 -15.849  1.00  0.00     0.084 C 
ENDROOT
BRANCH  10  12
HETATM   12  O20         0      41.843 113.036 -17.709  1.00  0.00    -0.359 OA
HETATM   13  H20         0      41.077 113.560 -17.508  1.00  0.00     0.218 HD
ENDBRANCH  10  12
BRANCH   4  14
HETATM   14  C5          0      39.026 110.000 -12.935  1.00  0.00     0.025 C 
HETATM   15  C6          0      39.594 109.879 -11.675  1.00  0.00     0.004 C 
HETATM   16  C7          0      38.875 110.379 -10.594  1.00  0.00     0.026 C 
HETATM   17  C8          0      37.579 110.861 -10.739  1.00  0.00     0.112 C 
HETATM   18  C10         0      36.898 110.368 -11.844  1.00  0.00     0.112 C 
HETATM   19  C12         0      37.638 109.955 -12.946  1.00  0.00     0.028 C 
BRANCH  17  20
HETATM   20  O9          0      37.118 111.903  -9.954  1.00  0.00    -0.357 OA
HETATM   21  H9          0      37.061 111.865  -9.007  1.00  0.00     0.218 HD
ENDBRANCH  17  20
BRANCH  18  22
HETATM   22  O11         0      35.546 110.667 -11.934  1.00  0.00    -0.357 OA
HETATM   23  H11         0      35.061 110.713 -11.118  1.00  0.00     0.218 HD
ENDBRANCH  18  22
ENDBRANCH   4  14
BRANCH   8  24
HETATM   24  O17         0      45.117 112.506 -14.397  1.00  0.00    -0.359 OA
HETATM   25  H17         0      46.038 112.301 -14.505  1.00  0.00     0.218 HD
ENDBRANCH   8  24
TORSDOF 5
ENDMDL
MODEL 7
REMARK VINA RESULT:      -0.6      2.037      2.788
REMARK  5 active torsions:
REMARK  status: ('A' for Active; 'I' for Inactive)
REMARK    1  A    between atoms: C4_4  and  C5_5 
REMARK    2  A    between atoms: C8_8  and  O9_9 
REMARK    3  A    between atoms: C10_11  and  O11_12 
REMARK    4  A    between atoms: C16_18  and  O17_19 
REMARK    5  A    between atoms: C19_22  and  O20_23 
ROOT
HETATM    1  O1          0      41.516 113.909 -14.347  1.00  0.00    -0.286 OA
HETATM    2  C2          0      40.954 112.867 -13.913  1.00  0.00     0.201 C 
HETATM    3  C3          0      39.578 112.725 -13.854  1.00  0.00     0.067 C 
HETATM    4  C4          0      38.984 111.609 -13.277  1.00  0.00     0.103 C 
HETATM    5  O13         0      39.761 110.655 -12.793  1.00  0.00    -0.307 OA
HETATM    6  C14         0      41.072 110.757 -12.790  1.00  0.00     0.107 C 
HETATM    7  C15         0      41.863 109.984 -11.952  1.00  0.00     0.049 C 
HETATM    8  C16         0      43.211 110.268 -11.766  1.00  0.00     0.093 C 
HETATM    9  C18         0      43.812 110.964 -12.808  1.00  0.00     0.048 C 
HETATM   10  C19         0      43.046 111.710 -13.693  1.00  0.00     0.096 C 
HETATM   11  C21         0      41.686 111.746 -13.550  1.00  0.00     0.084 C 
ENDROOT
BRANCH  10  12
HETATM   12  O20         0      43.652 112.722 -14.431  1.00  0.00    -0.359 OA
HETATM   13  H20         0      44.532 112.571 -14.756  1.00  0.00     0.218 HD
ENDBRANCH  10  12
BRANCH   4  14
HETATM   14  C5          0      37.644 111.779 -12.713  1.00  0.00     0.025 C 
HETATM   15  C6          0      36.607 112.385 -13.409  1.00  0.00     0.004 C 
HETATM   16  C7          0      35.332 111.850 -13.259  1.00  0.00     0.026 C 
HETATM   17  C8          0      35.069 110.834 -12.346  1.00  0.00     0.112 C 
HETATM   18  C10         0      35.975 110.749 -11.297  1.00  0.00     0.112 C 
HETATM   19  C12         0      37.268 111.213 -11.502  1.00  0.00     0.028 C 
BRANCH  17  20
HETATM   20  O9          0      34.106 109.876 -12.610  1.00  0.00    -0.357 OA
HETATM   21  H9          0      33.982 109.094 -12.084  1.00  0.00     0.218 HD
ENDBRANCH  17  20
BRANCH  18  22
HETATM   22  O11         0      35.657 109.881 -10.262  1.00  0.00    -0.357 OA
HETATM   23  H11         0      36.081 110.036  -9.425  1.00  0.00     0.218 HD
ENDBRANCH  18  22
ENDBRANCH   4  14
BRANCH   8  24
HETATM   24  O17         0      43.811 110.165 -10.507  1.00  0.00    -0.359 OA
HETATM   25  H17         0      44.616 109.677 -10.376  1.00  0.00     0.218 HD
ENDBRANCH   8  24
TORSDOF 5
ENDMDL
MODEL 8
REMARK VINA RESULT:      -0.6      3.057      4.240
REMARK  5 active torsions:
REMARK  status: ('A' for Active; 'I' for Inactive)
REMARK    1  A    between atoms: C4_4  and  C5_5 
REMARK    2  A    between atoms: C8_8  and  O9_9 
REMARK    3  A    between atoms: C10_11  and  O11_12 
REMARK    4  A    between atoms: C16_18  and  O17_19 
REMARK    5  A    between atoms: C19_22  and  O20_23 
ROOT
HETATM    1  O1          0      37.583 114.413 -16.027  1.00  0.00    -0.286 OA
HETATM    2  C2          0      38.348 113.531 -15.550  1.00  0.00     0.201 C 
HETATM    3  C3          0      37.886 112.321 -15.062  1.00  0.00     0.067 C 
HETATM    4  C4          0      38.737 111.409 -14.448  1.00  0.00     0.103 C 
HETATM    5  O13         0      40.021 111.706 -14.351  1.00  0.00    -0.307 OA
HETATM    6  C14         0      40.506 112.857 -14.763  1.00  0.00     0.107 C 
HETATM    7  C15         0      41.729 113.337 -14.318  1.00  0.00     0.049 C 
HETATM    8  C16         0      42.117 114.651 -14.551  1.00  0.00     0.093 C 
HETATM    9  C18         0      41.515 115.255 -15.649  1.00  0.00     0.048 C 
HETATM   10  C19         0      40.315 114.771 -16.150  1.00  0.00     0.096 C 
HETATM   11  C21         0      39.726 113.680 -15.569  1.00  0.00     0.084 C 
ENDROOT
BRANCH  10  12
HETATM   12  O20         0      39.518 115.603 -16.930  1.00  0.00    -0.359 OA
HETATM   13  H20         0      39.932 116.076 -17.642  1.00  0.00     0.218 HD
ENDBRANCH  10  12
BRANCH   4  14
HETATM   14  C5          0      38.148 110.500 -13.464  1.00  0.00     0.025 C 
HETATM   15  C6          0      38.857 110.002 -12.381  1.00  0.00     0.004 C 
HETATM   16  C7          0      38.182 109.875 -11.171  1.00  0.00     0.026 C 
HETATM   17  C8          0      36.814 110.107 -11.072  1.00  0.00     0.112 C 
HETATM   18  C10         0      36.115 109.971 -12.263  1.00  0.00     0.112 C 
HETATM   19  C12         0      36.795 110.187 -13.456  1.00  0.00     0.028 C 
BRANCH  17  20
HETATM   20  O9          0      36.267 110.635  -9.916  1.00  0.00    -0.357 OA
HETATM   21  H9          0      35.787 110.122  -9.276  1.00  0.00     0.218 HD
ENDBRANCH  17  20
BRANCH  18  22
HETATM   22  O11         0      34.730 110.005 -12.187  1.00  0.00    -0.357 OA
HETATM   23  H11         0      34.288 110.680 -12.689  1.00  0.00     0.218 HD
ENDBRANCH  18  22
ENDBRANCH   4  14
BRANCH   8  24
HETATM   24  O17         0      42.784 115.399 -13.575  1.00  0.00    -0.359 OA
HETATM   25  H17         0      42.572 116.311 -13.413  1.00  0.00     0.218 HD
ENDBRANCH   8  24
TORSDOF 5
ENDMDL
MODEL 9
REMARK VINA RESULT:      -0.6      1.972      2.582
REMARK  5 active torsions:
REMARK  status: ('A' for Active; 'I' for Inactive)
REMARK    1  A    between atoms: C4_4  and  C5_5 
REMARK    2  A    between atoms: C8_8  and  O9_9 
REMARK    3  A    between atoms: C10_11  and  O11_12 
REMARK    4  A    between atoms: C16_18  and  O17_19 
REMARK    5  A    between atoms: C19_22  and  O20_23 
ROOT
HETATM    1  O1          0      38.226 112.752 -14.795  1.00  0.00    -0.286 OA
HETATM    2  C2          0      37.655 111.988 -13.970  1.00  0.00     0.201 C 
HETATM    3  C3          0      36.291 112.019 -13.737  1.00  0.00     0.067 C 
HETATM    4  C4          0      35.702 111.238 -12.749  1.00  0.00     0.103 C 
HETATM    5  O13         0      36.469 110.434 -12.034  1.00  0.00    -0.307 OA
HETATM    6  C14         0      37.774 110.394 -12.188  1.00  0.00     0.107 C 
HETATM    7  C15         0      38.611 109.879 -11.208  1.00  0.00     0.049 C 
HETATM    8  C16         0      39.987 110.069 -11.261  1.00  0.00     0.093 C 
HETATM    9  C18         0      40.499 110.297 -12.533  1.00  0.00     0.048 C 
HETATM   10  C19         0      39.679 110.767 -13.550  1.00  0.00     0.096 C 
HETATM   11  C21         0      38.352 110.992 -13.303  1.00  0.00     0.084 C 
ENDROOT
BRANCH  10  12
HETATM   12  O20         0      40.254 111.394 -14.651  1.00  0.00    -0.359 OA
HETATM   13  H20         0      41.133 111.741 -14.558  1.00  0.00     0.218 HD
ENDBRANCH  10  12
BRANCH   4  14
HETATM   14  C5          0      34.455 111.730 -12.161  1.00  0.00     0.025 C 
HETATM   15  C6          0      33.937 112.987 -12.439  1.00  0.00     0.004 C 
HETATM   16  C7          0      32.556 113.101 -12.565  1.00  0.00     0.026 C 
HETATM   17  C8          0      31.708 112.033 -12.293  1.00  0.00     0.112 C 
HETATM   18  C10         0      32.240 111.072 -11.443  1.00  0.00     0.112 C 
HETATM   19  C12         0      33.621 110.921 -11.400  1.00  0.00     0.028 C 
BRANCH  17  20
HETATM   20  O9          0      30.527 111.869 -12.994  1.00  0.00    -0.357 OA
HETATM   21  H9          0      29.688 112.206 -12.702  1.00  0.00     0.218 HD
ENDBRANCH  17  20
BRANCH  18  22
HETATM   22  O11         0      31.375 110.087 -10.989  1.00  0.00    -0.357 OA
HETATM   23  H11         0      30.489 110.357 -10.775  1.00  0.00     0.218 HD
ENDBRANCH  18  22
ENDBRANCH   4  14
BRANCH   8  24
HETATM   24  O17         0      40.730 110.344 -10.108  1.00  0.00    -0.359 OA
HETATM   25  H17         0      40.715 109.765  -9.355  1.00  0.00     0.218 HD
ENDBRANCH   8  24
TORSDOF 5
ENDMDL
