MODEL 1
REMARK VINA RESULT:      -5.2      0.000      0.000
REMARK  5 active torsions:
REMARK  status: ('A' for Active; 'I' for Inactive)
REMARK    1  A    between atoms: C4_4  and  C5_5 
REMARK    2  A    between atoms: C8_8  and  O9_9 
REMARK    3  A    between atoms: C10_11  and  O11_12 
REMARK    4  A    between atoms: C16_18  and  O17_19 
REMARK    5  A    between atoms: C19_22  and  O20_23 
ROOT
HETATM    1  O1          0      55.415  97.712 -24.166  1.00  0.00    -0.286 OA
HETATM    2  C2          0      54.239  97.260 -24.119  1.00  0.00     0.201 C 
HETATM    3  C3          0      53.832  96.323 -23.184  1.00  0.00     0.067 C 
HETATM    4  C4          0      52.559  95.765 -23.218  1.00  0.00     0.103 C 
HETATM    5  O13         0      51.718  96.160 -24.158  1.00  0.00    -0.307 OA
HETATM    6  C14         0      52.066  97.018 -25.092  1.00  0.00     0.107 C 
HETATM    7  C15         0      51.359  97.131 -26.280  1.00  0.00     0.049 C 
HETATM    8  C16         0      51.869  97.844 -27.358  1.00  0.00     0.093 C 
HETATM    9  C18         0      52.792  98.828 -27.027  1.00  0.00     0.048 C 
HETATM   10  C19         0      53.483  98.771 -25.824  1.00  0.00     0.096 C 
HETATM   11  C21         0      53.242  97.746 -24.951  1.00  0.00     0.084 C 
ENDROOT
BRANCH  10  12
HETATM   12  O20         0      54.677  99.474 -25.691  1.00  0.00    -0.359 OA
HETATM   13  H20         0      55.349  99.339 -26.349  1.00  0.00     0.218 HD
ENDBRANCH  10  12
BRANCH   4  14
HETATM   14  C5          0      52.398  94.427 -22.645  1.00  0.00     0.025 C 
HETATM   15  C6          0      51.160  93.892 -22.320  1.00  0.00     0.004 C 
HETATM   16  C7          0      50.959  92.537 -22.566  1.00  0.00     0.026 C 
HETATM   17  C8          0      51.994  91.712 -22.993  1.00  0.00     0.112 C 
HETATM   18  C10         0      53.267  92.170 -22.680  1.00  0.00     0.112 C 
HETATM   19  C12         0      53.458  93.538 -22.524  1.00  0.00     0.028 C 
BRANCH  17  20
HETATM   20  O9          0      51.747  90.647 -23.840  1.00  0.00    -0.357 OA
HETATM   21  H9          0      51.446  89.796 -23.544  1.00  0.00     0.218 HD
ENDBRANCH  17  20
BRANCH  18  22
HETATM   22  O11         0      54.323  91.300 -22.913  1.00  0.00    -0.357 OA
HETATM   23  H11         0      54.979  91.578 -23.541  1.00  0.00     0.218 HD
ENDBRANCH  18  22
ENDBRANCH   4  14
BRANCH   8  24
HETATM   24  O17         0      51.724  97.383 -28.672  1.00  0.00    -0.359 OA
HETATM   25  H17         0      51.156  96.652 -28.884  1.00  0.00     0.218 HD
ENDBRANCH   8  24
TORSDOF 5
ENDMDL
MODEL 2
REMARK VINA RESULT:      -5.0      2.027      2.681
REMARK  5 active torsions:
REMARK  status: ('A' for Active; 'I' for Inactive)
REMARK    1  A    between atoms: C4_4  and  C5_5 
REMARK    2  A    between atoms: C8_8  and  O9_9 
REMARK    3  A    between atoms: C10_11  and  O11_12 
REMARK    4  A    between atoms: C16_18  and  O17_19 
REMARK    5  A    between atoms: C19_22  and  O20_23 
ROOT
HETATM    1  O1          0      55.044  97.191 -26.940  1.00  0.00    -0.286 OA
HETATM    2  C2          0      53.915  97.134 -26.381  1.00  0.00     0.201 C 
HETATM    3  C3          0      53.730  96.600 -25.117  1.00  0.00     0.067 C 
HETATM    4  C4          0      52.461  96.455 -24.566  1.00  0.00     0.103 C 
HETATM    5  O13         0      51.416  96.859 -25.266  1.00  0.00    -0.307 OA
HETATM    6  C14         0      51.533  97.338 -26.485  1.00  0.00     0.107 C 
HETATM    7  C15         0      50.456  97.384 -27.358  1.00  0.00     0.049 C 
HETATM    8  C16         0      50.635  97.648 -28.711  1.00  0.00     0.093 C 
HETATM    9  C18         0      51.787  98.360 -29.023  1.00  0.00     0.048 C 
HETATM   10  C19         0      52.866  98.373 -28.149  1.00  0.00     0.096 C 
HETATM   11  C21         0      52.789  97.694 -26.964  1.00  0.00     0.084 C 
ENDROOT
BRANCH  10  12
HETATM   12  O20         0      54.129  98.698 -28.634  1.00  0.00    -0.359 OA
HETATM   13  H20         0      54.555  98.080 -29.216  1.00  0.00     0.218 HD
ENDBRANCH  10  12
BRANCH   4  14
HETATM   14  C5          0      52.279  95.393 -23.575  1.00  0.00     0.025 C 
HETATM   15  C6          0      52.620  94.071 -23.818  1.00  0.00     0.004 C 
HETATM   16  C7          0      53.182  93.347 -22.772  1.00  0.00     0.026 C 
HETATM   17  C8          0      53.279  93.875 -21.489  1.00  0.00     0.112 C 
HETATM   18  C10         0      52.375  94.891 -21.210  1.00  0.00     0.112 C 
HETATM   19  C12         0      51.893  95.655 -22.266  1.00  0.00     0.028 C 
BRANCH  17  20
HETATM   20  O9          0      54.338  93.541 -20.664  1.00  0.00    -0.357 OA
HETATM   21  H9          0      54.970  94.170 -20.335  1.00  0.00     0.218 HD
ENDBRANCH  17  20
BRANCH  18  22
HETATM   22  O11         0      52.301  95.322 -19.893  1.00  0.00    -0.357 OA
HETATM   23  H11         0      53.086  95.706 -19.522  1.00  0.00     0.218 HD
ENDBRANCH  18  22
ENDBRANCH   4  14
BRANCH   8  24
HETATM   24  O17         0      49.904  96.966 -29.690  1.00  0.00    -0.359 OA
HETATM   25  H17         0      49.037  96.620 -29.515  1.00  0.00     0.218 HD
ENDBRANCH   8  24
TORSDOF 5
ENDMDL
MODEL 3
REMARK VINA RESULT:      -5.0      3.889      6.370
REMARK  5 active torsions:
REMARK  status: ('A' for Active; 'I' for Inactive)
REMARK    1  A    between atoms: C4_4  and  C5_5 
REMARK    2  A    between atoms: C8_8  and  O9_9 
REMARK    3  A    between atoms: C10_11  and  O11_12 
REMARK    4  A    between atoms: C16_18  and  O17_19 
REMARK    5  A    between atoms: C19_22  and  O20_23 
ROOT
HETATM    1  O1          0      52.665  95.757 -25.180  1.00  0.00    -0.286 OA
HETATM    2  C2          0      53.679  95.246 -24.629  1.00  0.00     0.201 C 
HETATM    3  C3          0      54.970  95.477 -25.072  1.00  0.00     0.067 C 
HETATM    4  C4          0      56.060  94.821 -24.513  1.00  0.00     0.103 C 
HETATM    5  O13         0      55.851  93.974 -23.521  1.00  0.00    -0.307 OA
HETATM    6  C14         0      54.642  93.689 -23.088  1.00  0.00     0.107 C 
HETATM    7  C15         0      54.380  92.542 -22.353  1.00  0.00     0.049 C 
HETATM    8  C16         0      53.078  92.117 -22.119  1.00  0.00     0.093 C 
HETATM    9  C18         0      52.116  93.118 -22.172  1.00  0.00     0.048 C 
HETATM   10  C19         0      52.363  94.299 -22.859  1.00  0.00     0.096 C 
HETATM   11  C21         0      53.570  94.486 -23.475  1.00  0.00     0.084 C 
ENDROOT
BRANCH  10  12
HETATM   12  O20         0      51.290  95.081 -23.275  1.00  0.00    -0.359 OA
HETATM   13  H20         0      51.215  95.959 -22.920  1.00  0.00     0.218 HD
ENDBRANCH  10  12
BRANCH   4  14
HETATM   14  C5          0      57.238  94.635 -25.362  1.00  0.00     0.025 C 
HETATM   15  C6          0      58.379  93.973 -24.932  1.00  0.00     0.004 C 
HETATM   16  C7          0      59.035  93.158 -25.849  1.00  0.00     0.026 C 
HETATM   17  C8          0      58.651  93.106 -27.185  1.00  0.00     0.112 C 
HETATM   18  C10         0      57.963  94.225 -27.634  1.00  0.00     0.112 C 
HETATM   19  C12         0      57.245  94.974 -26.709  1.00  0.00     0.028 C 
BRANCH  17  20
HETATM   20  O9          0      58.773  91.936 -27.912  1.00  0.00    -0.357 OA
HETATM   21  H9          0      58.788  91.070 -27.521  1.00  0.00     0.218 HD
ENDBRANCH  17  20
BRANCH  18  22
HETATM   22  O11         0      57.724  94.310 -28.998  1.00  0.00    -0.357 OA
HETATM   23  H11         0      58.405  94.704 -29.531  1.00  0.00     0.218 HD
ENDBRANCH  18  22
ENDBRANCH   4  14
BRANCH   8  24
HETATM   24  O17         0      52.734  90.762 -22.166  1.00  0.00    -0.359 OA
HETATM   25  H17         0      53.270  90.096 -21.753  1.00  0.00     0.218 HD
ENDBRANCH   8  24
TORSDOF 5
ENDMDL
MODEL 4
REMARK VINA RESULT:      -4.7      2.125      6.547
REMARK  5 active torsions:
REMARK  status: ('A' for Active; 'I' for Inactive)
REMARK    1  A    between atoms: C4_4  and  C5_5 
REMARK    2  A    between atoms: C8_8  and  O9_9 
REMARK    3  A    between atoms: C10_11  and  O11_12 
REMARK    4  A    between atoms: C16_18  and  O17_19 
REMARK    5  A    between atoms: C19_22  and  O20_23 
ROOT
HETATM    1  O1          0      55.313  94.424 -24.860  1.00  0.00    -0.286 OA
HETATM    2  C2          0      54.141  94.889 -24.838  1.00  0.00     0.201 C 
HETATM    3  C3          0      53.612  95.641 -25.874  1.00  0.00     0.067 C 
HETATM    4  C4          0      52.355  96.228 -25.781  1.00  0.00     0.103 C 
HETATM    5  O13         0      51.648  96.041 -24.681  1.00  0.00    -0.307 OA
HETATM    6  C14         0      52.117  95.367 -23.654  1.00  0.00     0.107 C 
HETATM    7  C15         0      51.575  95.499 -22.383  1.00  0.00     0.049 C 
HETATM    8  C16         0      52.224  94.991 -21.265  1.00  0.00     0.093 C 
HETATM    9  C18         0      53.095  93.938 -21.520  1.00  0.00     0.048 C 
HETATM   10  C19         0      53.620  93.749 -22.791  1.00  0.00     0.096 C 
HETATM   11  C21         0      53.264  94.595 -23.806  1.00  0.00     0.084 C 
ENDROOT
BRANCH  10  12
HETATM   12  O20         0      54.785  93.003 -22.942  1.00  0.00    -0.359 OA
HETATM   13  H20         0      54.711  92.132 -23.311  1.00  0.00     0.218 HD
ENDBRANCH  10  12
BRANCH   4  14
HETATM   14  C5          0      52.120  97.436 -26.573  1.00  0.00     0.025 C 
HETATM   15  C6          0      52.959  98.540 -26.529  1.00  0.00     0.004 C 
HETATM   16  C7          0      53.200  99.215 -27.721  1.00  0.00     0.026 C 
HETATM   17  C8          0      52.526  98.888 -28.893  1.00  0.00     0.112 C 
HETATM   18  C10         0      51.309  98.249 -28.703  1.00  0.00     0.112 C 
HETATM   19  C12         0      51.125  97.510 -27.540  1.00  0.00     0.028 C 
BRANCH  17  20
HETATM   20  O9          0      53.145  99.012 -30.124  1.00  0.00    -0.357 OA
HETATM   21  H9          0      53.499  99.829 -30.458  1.00  0.00     0.218 HD
ENDBRANCH  17  20
BRANCH  18  22
HETATM   22  O11         0      50.510  98.071 -29.824  1.00  0.00    -0.357 OA
HETATM   23  H11         0      49.973  97.287 -29.849  1.00  0.00     0.218 HD
ENDBRANCH  18  22
ENDBRANCH   4  14
BRANCH   8  24
HETATM   24  O17         0      52.256  95.696 -20.057  1.00  0.00    -0.359 OA
HETATM   25  H17         0      53.051  95.766 -19.540  1.00  0.00     0.218 HD
ENDBRANCH   8  24
TORSDOF 5
ENDMDL
MODEL 5
REMARK VINA RESULT:      -4.2      2.922      4.389
REMARK  5 active torsions:
REMARK  status: ('A' for Active; 'I' for Inactive)
REMARK    1  A    between atoms: C4_4  and  C5_5 
REMARK    2  A    between atoms: C8_8  and  O9_9 
REMARK    3  A    between atoms: C10_11  and  O11_12 
REMARK    4  A    between atoms: C16_18  and  O17_19 
REMARK    5  A    between atoms: C19_22  and  O20_23 
ROOT
HETATM    1  O1          0      54.652  98.543 -26.298  1.00  0.00    -0.286 OA
HETATM    2  C2          0      54.586  97.325 -25.975  1.00  0.00     0.201 C 
HETATM    3  C3          0      53.459  96.761 -25.402  1.00  0.00     0.067 C 
HETATM    4  C4          0      53.448  95.442 -24.961  1.00  0.00     0.103 C 
HETATM    5  O13         0      54.539  94.712 -25.116  1.00  0.00    -0.307 OA
HETATM    6  C14         0      55.647  95.209 -25.620  1.00  0.00     0.107 C 
HETATM    7  C15         0      56.878  94.600 -25.422  1.00  0.00     0.049 C 
HETATM    8  C16         0      58.065  95.253 -25.732  1.00  0.00     0.093 C 
HETATM    9  C18         0      57.953  96.249 -26.695  1.00  0.00     0.048 C 
HETATM   10  C19         0      56.727  96.847 -26.951  1.00  0.00     0.096 C 
HETATM   11  C21         0      55.616  96.442 -26.262  1.00  0.00     0.084 C 
ENDROOT
BRANCH  10  12
HETATM   12  O20         0      56.695  98.095 -27.565  1.00  0.00    -0.359 OA
HETATM   13  H20         0      57.359  98.729 -27.322  1.00  0.00     0.218 HD
ENDBRANCH  10  12
BRANCH   4  14
HETATM   14  C5          0      52.523  95.105 -23.878  1.00  0.00     0.025 C 
HETATM   15  C6          0      52.443  93.836 -23.325  1.00  0.00     0.004 C 
HETATM   16  C7          0      52.244  93.742 -21.951  1.00  0.00     0.026 C 
HETATM   17  C8          0      51.999  94.867 -21.171  1.00  0.00     0.112 C 
HETATM   18  C10         0      51.480  95.952 -21.865  1.00  0.00     0.112 C 
HETATM   19  C12         0      51.765  96.066 -23.221  1.00  0.00     0.028 C 
BRANCH  17  20
HETATM   20  O9          0      52.447  94.935 -19.864  1.00  0.00    -0.357 OA
HETATM   21  H9          0      52.080  94.423 -19.153  1.00  0.00     0.218 HD
ENDBRANCH  17  20
BRANCH  18  22
HETATM   22  O11         0      51.042  97.030 -21.110  1.00  0.00    -0.357 OA
HETATM   23  H11         0      51.709  97.555 -20.682  1.00  0.00     0.218 HD
ENDBRANCH  18  22
ENDBRANCH   4  14
BRANCH   8  24
HETATM   24  O17         0      59.190  95.151 -24.906  1.00  0.00    -0.359 OA
HETATM   25  H17         0      59.292  94.437 -24.287  1.00  0.00     0.218 HD
ENDBRANCH   8  24
TORSDOF 5
ENDMDL
MODEL 6
REMARK VINA RESULT:      -4.2      2.799      4.130
REMARK  5 active torsions:
REMARK  status: ('A' for Active; 'I' for Inactive)
REMARK    1  A    between atoms: C4_4  and  C5_5 
REMARK    2  A    between atoms: C8_8  and  O9_9 
REMARK    3  A    between atoms: C10_11  and  O11_12 
REMARK    4  A    between atoms: C16_18  and  O17_19 
REMARK    5  A    between atoms: C19_22  and  O20_23 
ROOT
HETATM    1  O1          0      50.392  97.486 -23.542  1.00  0.00    -0.286 OA
HETATM    2  C2          0      51.359  96.862 -23.025  1.00  0.00     0.201 C 
HETATM    3  C3          0      51.565  95.506 -23.215  1.00  0.00     0.067 C 
HETATM    4  C4          0      52.577  94.823 -22.552  1.00  0.00     0.103 C 
HETATM    5  O13         0      53.370  95.497 -21.737  1.00  0.00    -0.307 OA
HETATM    6  C14         0      53.195  96.777 -21.492  1.00  0.00     0.107 C 
HETATM    7  C15         0      53.740  97.388 -20.373  1.00  0.00     0.049 C 
HETATM    8  C16         0      53.348  98.663 -19.983  1.00  0.00     0.093 C 
HETATM    9  C18         0      52.838  99.457 -21.003  1.00  0.00     0.048 C 
HETATM   10  C19         0      52.327  98.880 -22.158  1.00  0.00     0.096 C 
HETATM   11  C21         0      52.341  97.520 -22.301  1.00  0.00     0.084 C 
ENDROOT
BRANCH  10  12
HETATM   12  O20         0      51.448  99.610 -22.952  1.00  0.00    -0.359 OA
HETATM   13  H20         0      51.091  99.189 -23.724  1.00  0.00     0.218 HD
ENDBRANCH  10  12
BRANCH   4  14
HETATM   14  C5          0      52.377  93.392 -22.315  1.00  0.00     0.025 C 
HETATM   15  C6          0      51.225  92.720 -22.700  1.00  0.00     0.004 C 
HETATM   16  C7          0      51.368  91.428 -23.195  1.00  0.00     0.026 C 
HETATM   17  C8          0      52.595  90.773 -23.183  1.00  0.00     0.112 C 
HETATM   18  C10         0      53.496  91.248 -22.239  1.00  0.00     0.112 C 
HETATM   19  C12         0      53.383  92.570 -21.825  1.00  0.00     0.028 C 
BRANCH  17  20
HETATM   20  O9          0      52.930  89.877 -24.182  1.00  0.00    -0.357 OA
HETATM   21  H9          0      52.772  90.033 -25.106  1.00  0.00     0.218 HD
ENDBRANCH  17  20
BRANCH  18  22
HETATM   22  O11         0      54.658  90.513 -22.055  1.00  0.00    -0.357 OA
HETATM   23  H11         0      55.229  90.782 -21.344  1.00  0.00     0.218 HD
ENDBRANCH  18  22
ENDBRANCH   4  14
BRANCH   8  24
HETATM   24  O17         0      53.166  98.990 -18.635  1.00  0.00    -0.359 OA
HETATM   25  H17         0      53.410  98.392 -17.939  1.00  0.00     0.218 HD
ENDBRANCH   8  24
TORSDOF 5
ENDMDL
MODEL 7
REMARK VINA RESULT:      -4.2      2.528      3.850
REMARK  5 active torsions:
REMARK  status: ('A' for Active; 'I' for Inactive)
REMARK    1  A    between atoms: C4_4  and  C5_5 
REMARK    2  A    between atoms: C8_8  and  O9_9 
REMARK    3  A    between atoms: C10_11  and  O11_12 
REMARK    4  A    between atoms: C16_18  and  O17_19 
REMARK    5  A    between atoms: C19_22  and  O20_23 
ROOT
HETATM    1  O1          0      54.589  97.058 -24.806  1.00  0.00    -0.286 OA
HETATM    2  C2          0      54.572  96.529 -23.661  1.00  0.00     0.201 C 
HETATM    3  C3          0      54.250  95.198 -23.454  1.00  0.00     0.067 C 
HETATM    4  C4          0      54.138  94.666 -22.174  1.00  0.00     0.103 C 
HETATM    5  O13         0      54.368  95.453 -21.138  1.00  0.00    -0.307 OA
HETATM    6  C14         0      54.641  96.731 -21.277  1.00  0.00     0.107 C 
HETATM    7  C15         0      54.488  97.630 -20.231  1.00  0.00     0.049 C 
HETATM    8  C16         0      54.529  99.002 -20.446  1.00  0.00     0.093 C 
HETATM    9  C18         0      55.233  99.398 -21.577  1.00  0.00     0.048 C 
HETATM   10  C19         0      55.445  98.510 -22.623  1.00  0.00     0.096 C 
HETATM   11  C21         0      54.971  97.229 -22.533  1.00  0.00     0.084 C 
ENDROOT
BRANCH  10  12
HETATM   12  O20         0      55.744  99.007 -23.887  1.00  0.00    -0.359 OA
HETATM   13  H20         0      55.563  98.455 -24.638  1.00  0.00     0.218 HD
ENDBRANCH  10  12
BRANCH   4  14
HETATM   14  C5          0      53.251  93.515 -22.003  1.00  0.00     0.025 C 
HETATM   15  C6          0      51.868  93.616 -22.058  1.00  0.00     0.004 C 
HETATM   16  C7          0      51.170  92.583 -22.675  1.00  0.00     0.026 C 
HETATM   17  C8          0      51.809  91.425 -23.103  1.00  0.00     0.112 C 
HETATM   18  C10         0      53.007  91.151 -22.457  1.00  0.00     0.112 C 
HETATM   19  C12         0      53.727  92.213 -21.923  1.00  0.00     0.028 C 
BRANCH  17  20
HETATM   20  O9          0      51.369  90.746 -24.226  1.00  0.00    -0.357 OA
HETATM   21  H9          0      51.934  90.499 -24.948  1.00  0.00     0.218 HD
ENDBRANCH  17  20
BRANCH  18  22
HETATM   22  O11         0      53.589  89.917 -22.709  1.00  0.00    -0.357 OA
HETATM   23  H11         0      53.089  89.147 -22.462  1.00  0.00     0.218 HD
ENDBRANCH  18  22
ENDBRANCH   4  14
BRANCH   8  24
HETATM   24  O17         0      53.658  99.871 -19.780  1.00  0.00    -0.359 OA
HETATM   25  H17         0      53.487 100.749 -20.101  1.00  0.00     0.218 HD
ENDBRANCH   8  24
TORSDOF 5
ENDMDL
MODEL 8
REMARK VINA RESULT:      -3.9      3.864      4.777
REMARK  5 active torsions:
REMARK  status: ('A' for Active; 'I' for Inactive)
REMARK    1  A    between atoms: C4_4  and  C5_5 
REMARK    2  A    between atoms: C8_8  and  O9_9 
REMARK    3  A    between atoms: C10_11  and  O11_12 
REMARK    4  A    between atoms: C16_18  and  O17_19 
REMARK    5  A    between atoms: C19_22  and  O20_23 
ROOT
HETATM    1  O1          0      59.268  93.706 -22.437  1.00  0.00    -0.286 OA
HETATM    2  C2          0      58.129  94.003 -22.889  1.00  0.00     0.201 C 
HETATM    3  C3          0      56.967  93.852 -22.151  1.00  0.00     0.067 C 
HETATM    4  C4          0      55.715  94.089 -22.708  1.00  0.00     0.103 C 
HETATM    5  O13         0      55.644  94.488 -23.966  1.00  0.00    -0.307 OA
HETATM    6  C14         0      56.714  94.610 -24.721  1.00  0.00     0.107 C 
HETATM    7  C15         0      56.632  94.631 -26.106  1.00  0.00     0.049 C 
HETATM    8  C16         0      57.767  94.504 -26.897  1.00  0.00     0.093 C 
HETATM    9  C18         0      58.955  94.887 -26.286  1.00  0.00     0.048 C 
HETATM   10  C19         0      59.057  94.923 -24.902  1.00  0.00     0.096 C 
HETATM   11  C21         0      57.974  94.594 -24.133  1.00  0.00     0.084 C 
ENDROOT
BRANCH  10  12
HETATM   12  O20         0      60.316  94.874 -24.312  1.00  0.00    -0.359 OA
HETATM   13  H20         0      60.603  95.630 -23.814  1.00  0.00     0.218 HD
ENDBRANCH  10  12
BRANCH   4  14
HETATM   14  C5          0      54.578  93.368 -22.132  1.00  0.00     0.025 C 
HETATM   15  C6          0      53.369  93.981 -21.839  1.00  0.00     0.004 C 
HETATM   16  C7          0      52.205  93.259 -22.082  1.00  0.00     0.026 C 
HETATM   17  C8          0      52.242  91.926 -22.477  1.00  0.00     0.112 C 
HETATM   18  C10         0      53.405  91.252 -22.132  1.00  0.00     0.112 C 
HETATM   19  C12         0      54.574  91.988 -21.977  1.00  0.00     0.028 C 
BRANCH  17  20
HETATM   20  O9          0      51.278  91.411 -23.325  1.00  0.00    -0.357 OA
HETATM   21  H9          0      50.700  91.947 -23.855  1.00  0.00     0.218 HD
ENDBRANCH  17  20
BRANCH  18  22
HETATM   22  O11         0      53.418  89.878 -22.331  1.00  0.00    -0.357 OA
HETATM   23  H11         0      53.309  89.573 -23.224  1.00  0.00     0.218 HD
ENDBRANCH  18  22
ENDBRANCH   4  14
BRANCH   8  24
HETATM   24  O17         0      57.756  93.742 -28.071  1.00  0.00    -0.359 OA
HETATM   25  H17         0      57.112  93.059 -28.217  1.00  0.00     0.218 HD
ENDBRANCH   8  24
TORSDOF 5
ENDMDL
MODEL 9
REMARK VINA RESULT:      -3.8      3.759      6.112
REMARK  5 active torsions:
REMARK  status: ('A' for Active; 'I' for Inactive)
REMARK    1  A    between atoms: C4_4  and  C5_5 
REMARK    2  A    between atoms: C8_8  and  O9_9 
REMARK    3  A    between atoms: C10_11  and  O11_12 
REMARK    4  A    between atoms: C16_18  and  O17_19 
REMARK    5  A    between atoms: C19_22  and  O20_23 
ROOT
HETATM    1  O1          0      52.685  96.319 -25.792  1.00  0.00    -0.286 OA
HETATM    2  C2          0      53.557  95.763 -25.069  1.00  0.00     0.201 C 
HETATM    3  C3          0      54.892  95.685 -25.429  1.00  0.00     0.067 C 
HETATM    4  C4          0      55.813  94.978 -24.665  1.00  0.00     0.103 C 
HETATM    5  O13         0      55.398  94.385 -23.559  1.00  0.00    -0.307 OA
HETATM    6  C14         0      54.135  94.396 -23.192  1.00  0.00     0.107 C 
HETATM    7  C15         0      53.629  93.473 -22.288  1.00  0.00     0.049 C 
HETATM    8  C16         0      52.260  93.325 -22.098  1.00  0.00     0.093 C 
HETATM    9  C18         0      51.499  94.443 -22.417  1.00  0.00     0.048 C 
HETATM   10  C19         0      51.994  95.410 -23.282  1.00  0.00     0.096 C 
HETATM   11  C21         0      53.248  95.270 -23.811  1.00  0.00     0.084 C 
ENDROOT
BRANCH  10  12
HETATM   12  O20         0      51.105  96.265 -23.927  1.00  0.00    -0.359 OA
HETATM   13  H20         0      51.338  97.183 -23.991  1.00  0.00     0.218 HD
ENDBRANCH  10  12
BRANCH   4  14
HETATM   14  C5          0      56.983  94.437 -25.358  1.00  0.00     0.025 C 
HETATM   15  C6          0      57.336  94.814 -26.646  1.00  0.00     0.004 C 
HETATM   16  C7          0      58.690  94.957 -26.928  1.00  0.00     0.026 C 
HETATM   17  C8          0      59.669  94.608 -26.003  1.00  0.00     0.112 C 
HETATM   18  C10         0      59.262  93.684 -25.050  1.00  0.00     0.112 C 
HETATM   19  C12         0      57.912  93.620 -24.725  1.00  0.00     0.028 C 
BRANCH  17  20
HETATM   20  O9          0      60.864  95.301 -25.939  1.00  0.00    -0.357 OA
HETATM   21  H9          0      61.679  94.922 -25.632  1.00  0.00     0.218 HD
ENDBRANCH  17  20
BRANCH  18  22
HETATM   22  O11         0      60.245  93.160 -24.222  1.00  0.00    -0.357 OA
HETATM   23  H11         0      59.994  92.964 -23.327  1.00  0.00     0.218 HD
ENDBRANCH  18  22
ENDBRANCH   4  14
BRANCH   8  24
HETATM   24  O17         0      51.680  92.063 -21.930  1.00  0.00    -0.359 OA
HETATM   25  H17         0      50.750  91.959 -21.767  1.00  0.00     0.218 HD
ENDBRANCH   8  24
TORSDOF 5
ENDMDL
