MODEL 1
REMARK VINA RESULT:      -0.9      0.000      0.000
REMARK  5 active torsions:
REMARK  status: ('A' for Active; 'I' for Inactive)
REMARK    1  A    between atoms: C4_4  and  C5_5 
REMARK    2  A    between atoms: C8_8  and  O9_9 
REMARK    3  A    between atoms: C10_11  and  O11_12 
REMARK    4  A    between atoms: C16_18  and  O17_19 
REMARK    5  A    between atoms: C19_22  and  O20_23 
ROOT
HETATM    1  O1          0      28.272  35.588 -19.401  1.00  0.00    -0.286 OA
HETATM    2  C2          0      28.847  36.688 -19.172  1.00  0.00     0.201 C 
HETATM    3  C3          0      28.880  37.271 -17.917  1.00  0.00     0.067 C 
HETATM    4  C4          0      29.431  38.531 -17.713  1.00  0.00     0.103 C 
HETATM    5  O13         0      29.952  39.170 -18.745  1.00  0.00    -0.307 OA
HETATM    6  C14         0      29.914  38.678 -19.964  1.00  0.00     0.107 C 
HETATM    7  C15         0      30.083  39.482 -21.082  1.00  0.00     0.049 C 
HETATM    8  C16         0      29.792  39.014 -22.358  1.00  0.00     0.093 C 
HETATM    9  C18         0      29.853  37.634 -22.505  1.00  0.00     0.048 C 
HETATM   10  C19         0      29.734  36.801 -21.401  1.00  0.00     0.096 C 
HETATM   11  C21         0      29.573  37.344 -20.155  1.00  0.00     0.084 C 
ENDROOT
BRANCH  10  12
HETATM   12  O20         0      29.362  35.473 -21.587  1.00  0.00    -0.359 OA
HETATM   13  H20         0      28.460  35.293 -21.825  1.00  0.00     0.218 HD
ENDBRANCH  10  12
BRANCH   4  14
HETATM   14  C5          0      28.918  39.312 -16.586  1.00  0.00     0.025 C 
HETATM   15  C6          0      27.735  40.035 -16.649  1.00  0.00     0.004 C 
HETATM   16  C7          0      26.929  40.051 -15.516  1.00  0.00     0.026 C 
HETATM   17  C8          0      27.343  39.481 -14.317  1.00  0.00     0.112 C 
HETATM   18  C10         0      28.720  39.366 -14.175  1.00  0.00     0.112 C 
HETATM   19  C12         0      29.496  39.266 -15.324  1.00  0.00     0.028 C 
BRANCH  17  20
HETATM   20  O9          0      26.431  38.895 -13.458  1.00  0.00    -0.357 OA
HETATM   21  H9          0      26.205  39.250 -12.605  1.00  0.00     0.218 HD
ENDBRANCH  17  20
BRANCH  18  22
HETATM   22  O11         0      29.193  38.981 -12.929  1.00  0.00    -0.357 OA
HETATM   23  H11         0      29.076  38.069 -12.687  1.00  0.00     0.218 HD
ENDBRANCH  18  22
ENDBRANCH   4  14
BRANCH   8  24
HETATM   24  O17         0      29.165  39.829 -23.308  1.00  0.00    -0.359 OA
HETATM   25  H17         0      28.230  39.994 -23.284  1.00  0.00     0.218 HD
ENDBRANCH   8  24
TORSDOF 5
ENDMDL
MODEL 2
REMARK VINA RESULT:      -0.8      2.773      8.197
REMARK  5 active torsions:
REMARK  status: ('A' for Active; 'I' for Inactive)
REMARK    1  A    between atoms: C4_4  and  C5_5 
REMARK    2  A    between atoms: C8_8  and  O9_9 
REMARK    3  A    between atoms: C10_11  and  O11_12 
REMARK    4  A    between atoms: C16_18  and  O17_19 
REMARK    5  A    between atoms: C19_22  and  O20_23 
ROOT
HETATM    1  O1          0      25.007  40.125 -12.225  1.00  0.00    -0.286 OA
HETATM    2  C2          0      26.169  39.711 -12.491  1.00  0.00     0.201 C 
HETATM    3  C3          0      26.875  40.125 -13.608  1.00  0.00     0.067 C 
HETATM    4  C4          0      28.111  39.576 -13.933  1.00  0.00     0.103 C 
HETATM    5  O13         0      28.624  38.653 -13.139  1.00  0.00    -0.307 OA
HETATM    6  C14         0      27.979  38.198 -12.088  1.00  0.00     0.107 C 
HETATM    7  C15         0      28.307  36.986 -11.497  1.00  0.00     0.049 C 
HETATM    8  C16         0      27.472  36.392 -10.558  1.00  0.00     0.093 C 
HETATM    9  C18         0      26.635  37.268  -9.878  1.00  0.00     0.048 C 
HETATM   10  C19         0      26.323  38.508 -10.419  1.00  0.00     0.096 C 
HETATM   11  C21         0      26.858  38.878 -11.623  1.00  0.00     0.084 C 
ENDROOT
BRANCH  10  12
HETATM   12  O20         0      25.185  39.176  -9.978  1.00  0.00    -0.359 OA
HETATM   13  H20         0      25.280  40.075  -9.689  1.00  0.00     0.218 HD
ENDBRANCH  10  12
BRANCH   4  14
HETATM   14  C5          0      28.497  39.586 -15.345  1.00  0.00     0.025 C 
HETATM   15  C6          0      29.745  39.171 -15.786  1.00  0.00     0.004 C 
HETATM   16  C7          0      29.804  38.462 -16.981  1.00  0.00     0.026 C 
HETATM   17  C8          0      28.680  38.285 -17.780  1.00  0.00     0.112 C 
HETATM   18  C10         0      27.682  39.234 -17.596  1.00  0.00     0.112 C 
HETATM   19  C12         0      27.594  39.867 -16.362  1.00  0.00     0.028 C 
BRANCH  17  20
HETATM   20  O9          0      28.514  37.132 -18.527  1.00  0.00    -0.357 OA
HETATM   21  H9          0      28.717  36.261 -18.205  1.00  0.00     0.218 HD
ENDBRANCH  17  20
BRANCH  18  22
HETATM   22  O11         0      26.626  39.218 -18.495  1.00  0.00    -0.357 OA
HETATM   23  H11         0      26.791  39.576 -19.359  1.00  0.00     0.218 HD
ENDBRANCH  18  22
ENDBRANCH   4  14
BRANCH   8  24
HETATM   24  O17         0      27.255  35.009 -10.547  1.00  0.00    -0.359 OA
HETATM   25  H17         0      26.549  34.619 -10.046  1.00  0.00     0.218 HD
ENDBRANCH   8  24
TORSDOF 5
ENDMDL
MODEL 3
REMARK VINA RESULT:      -0.8      2.871      4.631
REMARK  5 active torsions:
REMARK  status: ('A' for Active; 'I' for Inactive)
REMARK    1  A    between atoms: C4_4  and  C5_5 
REMARK    2  A    between atoms: C8_8  and  O9_9 
REMARK    3  A    between atoms: C10_11  and  O11_12 
REMARK    4  A    between atoms: C16_18  and  O17_19 
REMARK    5  A    between atoms: C19_22  and  O20_23 
ROOT
HETATM    1  O1          0      26.418  35.680 -16.493  1.00  0.00    -0.286 OA
HETATM    2  C2          0      27.318  36.142 -15.740  1.00  0.00     0.201 C 
HETATM    3  C3          0      27.238  36.096 -14.359  1.00  0.00     0.067 C 
HETATM    4  C4          0      28.194  36.703 -13.553  1.00  0.00     0.103 C 
HETATM    5  O13         0      29.211  37.320 -14.128  1.00  0.00    -0.307 OA
HETATM    6  C14         0      29.315  37.426 -15.435  1.00  0.00     0.107 C 
HETATM    7  C15         0      30.125  38.384 -16.028  1.00  0.00     0.049 C 
HETATM    8  C16         0      30.039  38.660 -17.388  1.00  0.00     0.093 C 
HETATM    9  C18         0      29.538  37.624 -18.167  1.00  0.00     0.048 C 
HETATM   10  C19         0      28.763  36.624 -17.596  1.00  0.00     0.096 C 
HETATM   11  C21         0      28.503  36.649 -16.253  1.00  0.00     0.084 C 
ENDROOT
BRANCH  10  12
HETATM   12  O20         0      27.926  35.865 -18.409  1.00  0.00    -0.359 OA
HETATM   13  H20         0      28.240  35.626 -19.272  1.00  0.00     0.218 HD
ENDBRANCH  10  12
BRANCH   4  14
HETATM   14  C5          0      27.769  37.137 -12.221  1.00  0.00     0.025 C 
HETATM   15  C6          0      28.156  38.348 -11.665  1.00  0.00     0.004 C 
HETATM   16  C7          0      27.214  39.043 -10.913  1.00  0.00     0.026 C 
HETATM   17  C8          0      25.974  38.493 -10.610  1.00  0.00     0.112 C 
HETATM   18  C10         0      25.929  37.106 -10.650  1.00  0.00     0.112 C 
HETATM   19  C12         0      26.827  36.440 -11.476  1.00  0.00     0.028 C 
BRANCH  17  20
HETATM   20  O9          0      24.852  39.294 -10.494  1.00  0.00    -0.357 OA
HETATM   21  H9          0      24.885  40.242 -10.429  1.00  0.00     0.218 HD
ENDBRANCH  17  20
BRANCH  18  22
HETATM   22  O11         0      24.775  36.500 -10.175  1.00  0.00    -0.357 OA
HETATM   23  H11         0      24.031  36.467 -10.766  1.00  0.00     0.218 HD
ENDBRANCH  18  22
ENDBRANCH   4  14
BRANCH   8  24
HETATM   24  O17         0      30.123  39.970 -17.872  1.00  0.00    -0.359 OA
HETATM   25  H17         0      29.842  40.714 -17.352  1.00  0.00     0.218 HD
ENDBRANCH   8  24
TORSDOF 5
ENDMDL
MODEL 4
REMARK VINA RESULT:      -0.7      7.801      9.326
REMARK  5 active torsions:
REMARK  status: ('A' for Active; 'I' for Inactive)
REMARK    1  A    between atoms: C4_4  and  C5_5 
REMARK    2  A    between atoms: C8_8  and  O9_9 
REMARK    3  A    between atoms: C10_11  and  O11_12 
REMARK    4  A    between atoms: C16_18  and  O17_19 
REMARK    5  A    between atoms: C19_22  and  O20_23 
ROOT
HETATM    1  O1          0      28.041  33.705 -10.948  1.00  0.00    -0.286 OA
HETATM    2  C2          0      27.412  34.776 -10.724  1.00  0.00     0.201 C 
HETATM    3  C3          0      26.030  34.837 -10.668  1.00  0.00     0.067 C 
HETATM    4  C4          0      25.360  36.046 -10.522  1.00  0.00     0.103 C 
HETATM    5  O13         0      26.068  37.156 -10.415  1.00  0.00    -0.307 OA
HETATM    6  C14         0      27.381  37.158 -10.499  1.00  0.00     0.107 C 
HETATM    7  C15         0      28.093  38.314 -10.788  1.00  0.00     0.049 C 
HETATM    8  C16         0      29.440  38.266 -11.126  1.00  0.00     0.093 C 
HETATM    9  C18         0      30.124  37.153 -10.653  1.00  0.00     0.048 C 
HETATM   10  C19         0      29.438  35.996 -10.311  1.00  0.00     0.096 C 
HETATM   11  C21         0      28.075  35.956 -10.423  1.00  0.00     0.084 C 
ENDROOT
BRANCH  10  12
HETATM   12  O20         0      30.124  34.786 -10.265  1.00  0.00    -0.359 OA
HETATM   13  H20         0      30.619  34.525 -11.033  1.00  0.00     0.218 HD
ENDBRANCH  10  12
BRANCH   4  14
HETATM   14  C5          0      24.000  36.127 -11.060  1.00  0.00     0.025 C 
HETATM   15  C6          0      23.076  35.101 -10.926  1.00  0.00     0.004 C 
HETATM   16  C7          0      21.751  35.454 -10.691  1.00  0.00     0.026 C 
HETATM   17  C8          0      21.332  36.779 -10.721  1.00  0.00     0.112 C 
HETATM   18  C10         0      22.145  37.627 -11.462  1.00  0.00     0.112 C 
HETATM   19  C12         0      23.486  37.294 -11.610  1.00  0.00     0.028 C 
BRANCH  17  20
HETATM   20  O9          0      20.312  37.220  -9.896  1.00  0.00    -0.357 OA
HETATM   21  H9          0      19.393  37.031 -10.047  1.00  0.00     0.218 HD
ENDBRANCH  17  20
BRANCH  18  22
HETATM   22  O11         0      21.675  38.914 -11.682  1.00  0.00    -0.357 OA
HETATM   23  H11         0      21.922  39.328 -12.501  1.00  0.00     0.218 HD
ENDBRANCH  18  22
ENDBRANCH   4  14
BRANCH   8  24
HETATM   24  O17         0      29.969  39.083 -12.131  1.00  0.00    -0.359 OA
HETATM   25  H17         0      30.363  39.924 -11.934  1.00  0.00     0.218 HD
ENDBRANCH   8  24
TORSDOF 5
ENDMDL
MODEL 5
REMARK VINA RESULT:      -0.7      3.915      5.367
REMARK  5 active torsions:
REMARK  status: ('A' for Active; 'I' for Inactive)
REMARK    1  A    between atoms: C4_4  and  C5_5 
REMARK    2  A    between atoms: C8_8  and  O9_9 
REMARK    3  A    between atoms: C10_11  and  O11_12 
REMARK    4  A    between atoms: C16_18  and  O17_19 
REMARK    5  A    between atoms: C19_22  and  O20_23 
ROOT
HETATM    1  O1          0      25.789  38.994 -23.749  1.00  0.00    -0.286 OA
HETATM    2  C2          0      25.844  38.447 -22.613  1.00  0.00     0.201 C 
HETATM    3  C3          0      26.773  38.807 -21.652  1.00  0.00     0.067 C 
HETATM    4  C4          0      26.879  38.119 -20.448  1.00  0.00     0.103 C 
HETATM    5  O13         0      26.055  37.112 -20.217  1.00  0.00    -0.307 OA
HETATM    6  C14         0      25.180  36.706 -21.111  1.00  0.00     0.107 C 
HETATM    7  C15         0      24.608  35.444 -21.053  1.00  0.00     0.049 C 
HETATM    8  C16         0      23.889  34.927 -22.125  1.00  0.00     0.093 C 
HETATM    9  C18         0      23.338  35.878 -22.975  1.00  0.00     0.048 C 
HETATM   10  C19         0      23.857  37.165 -23.024  1.00  0.00     0.096 C 
HETATM   11  C21         0      24.907  37.505 -22.217  1.00  0.00     0.084 C 
ENDROOT
BRANCH  10  12
HETATM   12  O20         0      23.612  37.954 -24.144  1.00  0.00    -0.359 OA
HETATM   13  H20         0      24.251  37.942 -24.846  1.00  0.00     0.218 HD
ENDBRANCH  10  12
BRANCH   4  14
HETATM   14  C5          0      28.183  38.128 -19.784  1.00  0.00     0.025 C 
HETATM   15  C6          0      29.231  38.938 -20.196  1.00  0.00     0.004 C 
HETATM   16  C7          0      30.032  39.508 -19.211  1.00  0.00     0.026 C 
HETATM   17  C8          0      29.882  39.179 -17.869  1.00  0.00     0.112 C 
HETATM   18  C10         0      29.285  37.947 -17.637  1.00  0.00     0.112 C 
HETATM   19  C12         0      28.422  37.440 -18.601  1.00  0.00     0.028 C 
BRANCH  17  20
HETATM   20  O9          0      30.122  40.114 -16.878  1.00  0.00    -0.357 OA
HETATM   21  H9          0      30.970  40.245 -16.470  1.00  0.00     0.218 HD
ENDBRANCH  17  20
BRANCH  18  22
HETATM   22  O11         0      29.282  37.486 -16.328  1.00  0.00    -0.357 OA
HETATM   23  H11         0      29.997  37.769 -15.771  1.00  0.00     0.218 HD
ENDBRANCH  18  22
ENDBRANCH   4  14
BRANCH   8  24
HETATM   24  O17         0      24.002  33.583 -22.498  1.00  0.00    -0.359 OA
HETATM   25  H17         0      24.489  33.319 -23.270  1.00  0.00     0.218 HD
ENDBRANCH   8  24
TORSDOF 5
ENDMDL
MODEL 6
REMARK VINA RESULT:      -0.7      2.524      4.623
REMARK  5 active torsions:
REMARK  status: ('A' for Active; 'I' for Inactive)
REMARK    1  A    between atoms: C4_4  and  C5_5 
REMARK    2  A    between atoms: C8_8  and  O9_9 
REMARK    3  A    between atoms: C10_11  and  O11_12 
REMARK    4  A    between atoms: C16_18  and  O17_19 
REMARK    5  A    between atoms: C19_22  and  O20_23 
ROOT
HETATM    1  O1          0      29.705  40.110 -16.730  1.00  0.00    -0.286 OA
HETATM    2  C2          0      28.957  39.216 -16.246  1.00  0.00     0.201 C 
HETATM    3  C3          0      28.300  39.362 -15.036  1.00  0.00     0.067 C 
HETATM    4  C4          0      27.565  38.323 -14.477  1.00  0.00     0.103 C 
HETATM    5  O13         0      27.481  37.180 -15.133  1.00  0.00    -0.307 OA
HETATM    6  C14         0      28.115  36.976 -16.267  1.00  0.00     0.107 C 
HETATM    7  C15         0      28.361  35.698 -16.748  1.00  0.00     0.049 C 
HETATM    8  C16         0      29.243  35.480 -17.800  1.00  0.00     0.093 C 
HETATM    9  C18         0      29.425  36.566 -18.648  1.00  0.00     0.048 C 
HETATM   10  C19         0      29.143  37.854 -18.215  1.00  0.00     0.096 C 
HETATM   11  C21         0      28.667  38.056 -16.948  1.00  0.00     0.084 C 
ENDROOT
BRANCH  10  12
HETATM   12  O20         0      29.720  38.935 -18.874  1.00  0.00    -0.359 OA
HETATM   13  H20         0      29.427  39.808 -18.640  1.00  0.00     0.218 HD
ENDBRANCH  10  12
BRANCH   4  14
HETATM   14  C5          0      27.425  38.311 -13.019  1.00  0.00     0.025 C 
HETATM   15  C6          0      26.200  38.175 -12.383  1.00  0.00     0.004 C 
HETATM   16  C7          0      26.158  37.406 -11.224  1.00  0.00     0.026 C 
HETATM   17  C8          0      27.315  36.900 -10.642  1.00  0.00     0.112 C 
HETATM   18  C10         0      28.475  37.592 -10.961  1.00  0.00     0.112 C 
HETATM   19  C12         0      28.521  38.283 -12.166  1.00  0.00     0.028 C 
BRANCH  17  20
HETATM   20  O9          0      27.302  35.684  -9.981  1.00  0.00    -0.357 OA
HETATM   21  H9          0      28.079  35.157  -9.830  1.00  0.00     0.218 HD
ENDBRANCH  17  20
BRANCH  18  22
HETATM   22  O11         0      29.624  37.249 -10.263  1.00  0.00    -0.357 OA
HETATM   23  H11         0      29.607  37.369  -9.321  1.00  0.00     0.218 HD
ENDBRANCH  18  22
ENDBRANCH   4  14
BRANCH   8  24
HETATM   24  O17         0      30.120  34.390 -17.802  1.00  0.00    -0.359 OA
HETATM   25  H17         0      29.834  33.519 -18.051  1.00  0.00     0.218 HD
ENDBRANCH   8  24
TORSDOF 5
ENDMDL
MODEL 7
REMARK VINA RESULT:      -0.7      3.264      5.692
REMARK  5 active torsions:
REMARK  status: ('A' for Active; 'I' for Inactive)
REMARK    1  A    between atoms: C4_4  and  C5_5 
REMARK    2  A    between atoms: C8_8  and  O9_9 
REMARK    3  A    between atoms: C10_11  and  O11_12 
REMARK    4  A    between atoms: C16_18  and  O17_19 
REMARK    5  A    between atoms: C19_22  and  O20_23 
ROOT
HETATM    1  O1          0      25.476  37.658 -19.185  1.00  0.00    -0.286 OA
HETATM    2  C2          0      26.644  37.182 -19.198  1.00  0.00     0.201 C 
HETATM    3  C3          0      26.903  35.832 -19.367  1.00  0.00     0.067 C 
HETATM    4  C4          0      28.192  35.321 -19.276  1.00  0.00     0.103 C 
HETATM    5  O13         0      29.191  36.154 -19.042  1.00  0.00    -0.307 OA
HETATM    6  C14         0      28.996  37.438 -18.837  1.00  0.00     0.107 C 
HETATM    7  C15         0      29.947  38.231 -18.210  1.00  0.00     0.049 C 
HETATM    8  C16         0      29.641  39.513 -17.769  1.00  0.00     0.093 C 
HETATM    9  C18         0      28.585  40.125 -18.433  1.00  0.00     0.048 C 
HETATM   10  C19         0      27.641  39.364 -19.110  1.00  0.00     0.096 C 
HETATM   11  C21         0      27.761  38.002 -19.139  1.00  0.00     0.084 C 
ENDROOT
BRANCH  10  12
HETATM   12  O20         0      26.393  39.915 -19.385  1.00  0.00    -0.359 OA
HETATM   13  H20         0      26.002  39.732 -20.231  1.00  0.00     0.218 HD
ENDBRANCH  10  12
BRANCH   4  14
HETATM   14  C5          0      28.330  33.922 -18.864  1.00  0.00     0.025 C 
HETATM   15  C6          0      29.517  33.215 -18.991  1.00  0.00     0.004 C 
HETATM   16  C7          0      29.851  32.329 -17.972  1.00  0.00     0.026 C 
HETATM   17  C8          0      28.975  32.054 -16.928  1.00  0.00     0.112 C 
HETATM   18  C10         0      27.638  32.293 -17.215  1.00  0.00     0.112 C 
HETATM   19  C12         0      27.330  33.246 -18.179  1.00  0.00     0.028 C 
BRANCH  17  20
HETATM   20  O9          0      29.450  31.774 -15.659  1.00  0.00    -0.357 OA
HETATM   21  H9          0      29.026  31.172 -15.057  1.00  0.00     0.218 HD
ENDBRANCH  17  20
BRANCH  18  22
HETATM   22  O11         0      26.708  31.860 -16.281  1.00  0.00    -0.357 OA
HETATM   23  H11         0      26.379  32.509 -15.669  1.00  0.00     0.218 HD
ENDBRANCH  18  22
ENDBRANCH   4  14
BRANCH   8  24
HETATM   24  O17         0      30.125  40.000 -16.550  1.00  0.00    -0.359 OA
HETATM   25  H17         0      30.994  40.374 -16.472  1.00  0.00     0.218 HD
ENDBRANCH   8  24
TORSDOF 5
ENDMDL
MODEL 8
REMARK VINA RESULT:      -0.7      3.315      7.090
REMARK  5 active torsions:
REMARK  status: ('A' for Active; 'I' for Inactive)
REMARK    1  A    between atoms: C4_4  and  C5_5 
REMARK    2  A    between atoms: C8_8  and  O9_9 
REMARK    3  A    between atoms: C10_11  and  O11_12 
REMARK    4  A    between atoms: C16_18  and  O17_19 
REMARK    5  A    between atoms: C19_22  and  O20_23 
ROOT
HETATM    1  O1          0      24.801  37.616 -17.404  1.00  0.00    -0.286 OA
HETATM    2  C2          0      25.510  38.187 -18.277  1.00  0.00     0.201 C 
HETATM    3  C3          0      25.392  37.922 -19.631  1.00  0.00     0.067 C 
HETATM    4  C4          0      26.256  38.488 -20.562  1.00  0.00     0.103 C 
HETATM    5  O13         0      27.196  39.314 -20.136  1.00  0.00    -0.307 OA
HETATM    6  C14         0      27.375  39.570 -18.859  1.00  0.00     0.107 C 
HETATM    7  C15         0      28.567  40.092 -18.379  1.00  0.00     0.049 C 
HETATM    8  C16         0      28.846  40.122 -17.018  1.00  0.00     0.093 C 
HETATM    9  C18         0      27.729  40.119 -16.190  1.00  0.00     0.048 C 
HETATM   10  C19         0      26.509  39.647 -16.654  1.00  0.00     0.096 C 
HETATM   11  C21         0      26.400  39.197 -17.941  1.00  0.00     0.084 C 
ENDROOT
BRANCH  10  12
HETATM   12  O20         0      25.543  39.243 -15.737  1.00  0.00    -0.359 OA
HETATM   13  H20         0      24.669  39.064 -16.061  1.00  0.00     0.218 HD
ENDBRANCH  10  12
BRANCH   4  14
HETATM   14  C5          0      26.477  37.749 -21.806  1.00  0.00     0.025 C 
HETATM   15  C6          0      27.579  36.931 -22.008  1.00  0.00     0.004 C 
HETATM   16  C7          0      27.382  35.744 -22.707  1.00  0.00     0.026 C 
HETATM   17  C8          0      26.162  35.443 -23.303  1.00  0.00     0.112 C 
HETATM   18  C10         0      25.368  36.546 -23.588  1.00  0.00     0.112 C 
HETATM   19  C12         0      25.527  37.691 -22.817  1.00  0.00     0.028 C 
BRANCH  17  20
HETATM   20  O9          0      25.720  34.135 -23.391  1.00  0.00    -0.357 OA
HETATM   21  H9          0      26.299  33.387 -23.478  1.00  0.00     0.218 HD
ENDBRANCH  17  20
BRANCH  18  22
HETATM   22  O11         0      24.230  36.321 -24.349  1.00  0.00    -0.357 OA
HETATM   23  H11         0      24.318  36.412 -25.291  1.00  0.00     0.218 HD
ENDBRANCH  18  22
ENDBRANCH   4  14
BRANCH   8  24
HETATM   24  O17         0      30.125  39.835 -16.528  1.00  0.00    -0.359 OA
HETATM   25  H17         0      30.908  40.061 -17.016  1.00  0.00     0.218 HD
ENDBRANCH   8  24
TORSDOF 5
ENDMDL
MODEL 9
REMARK VINA RESULT:      -0.7      3.299      7.729
REMARK  5 active torsions:
REMARK  status: ('A' for Active; 'I' for Inactive)
REMARK    1  A    between atoms: C4_4  and  C5_5 
REMARK    2  A    between atoms: C8_8  and  O9_9 
REMARK    3  A    between atoms: C10_11  and  O11_12 
REMARK    4  A    between atoms: C16_18  and  O17_19 
REMARK    5  A    between atoms: C19_22  and  O20_23 
ROOT
HETATM    1  O1          0      23.553  35.257 -14.953  1.00  0.00    -0.286 OA
HETATM    2  C2          0      24.288  36.277 -14.851  1.00  0.00     0.201 C 
HETATM    3  C3          0      25.123  36.705 -15.868  1.00  0.00     0.067 C 
HETATM    4  C4          0      25.998  37.771 -15.693  1.00  0.00     0.103 C 
HETATM    5  O13         0      26.010  38.398 -14.530  1.00  0.00    -0.307 OA
HETATM    6  C14         0      25.265  38.009 -13.519  1.00  0.00     0.107 C 
HETATM    7  C15         0      25.550  38.383 -12.213  1.00  0.00     0.049 C 
HETATM    8  C16         0      24.923  37.772 -11.134  1.00  0.00     0.093 C 
HETATM    9  C18         0      23.686  37.205 -11.417  1.00  0.00     0.048 C 
HETATM   10  C19         0      23.349  36.862 -12.720  1.00  0.00     0.096 C 
HETATM   11  C21         0      24.236  37.099 -13.735  1.00  0.00     0.084 C 
ENDROOT
BRANCH  10  12
HETATM   12  O20         0      22.342  35.928 -12.938  1.00  0.00    -0.359 OA
HETATM   13  H20         0      21.977  35.862 -13.812  1.00  0.00     0.218 HD
ENDBRANCH  10  12
BRANCH   4  14
HETATM   14  C5          0      27.211  37.784 -16.513  1.00  0.00     0.025 C 
HETATM   15  C6          0      27.267  37.224 -17.781  1.00  0.00     0.004 C 
HETATM   16  C7          0      28.011  37.892 -18.749  1.00  0.00     0.026 C 
HETATM   17  C8          0      28.781  39.006 -18.436  1.00  0.00     0.112 C 
HETATM   18  C10         0      29.157  39.096 -17.102  1.00  0.00     0.112 C 
HETATM   19  C12         0      28.350  38.490 -16.147  1.00  0.00     0.028 C 
BRANCH  17  20
HETATM   20  O9          0      28.957  40.027 -19.353  1.00  0.00    -0.357 OA
HETATM   21  H9          0      29.768  40.179 -19.825  1.00  0.00     0.218 HD
ENDBRANCH  17  20
BRANCH  18  22
HETATM   22  O11         0      30.079  40.079 -16.773  1.00  0.00    -0.357 OA
HETATM   23  H11         0      30.610  40.425 -17.482  1.00  0.00     0.218 HD
ENDBRANCH  18  22
ENDBRANCH   4  14
BRANCH   8  24
HETATM   24  O17         0      25.625  37.460  -9.964  1.00  0.00    -0.359 OA
HETATM   25  H17         0      26.477  37.041  -9.990  1.00  0.00     0.218 HD
ENDBRANCH   8  24
TORSDOF 5
ENDMDL
