MODEL 1
REMARK VINA RESULT:      -5.2      0.000      0.000
REMARK  5 active torsions:
REMARK  status: ('A' for Active; 'I' for Inactive)
REMARK    1  A    between atoms: C4_4  and  C5_5 
REMARK    2  A    between atoms: C8_8  and  O9_9 
REMARK    3  A    between atoms: C10_11  and  O11_12 
REMARK    4  A    between atoms: C16_18  and  O17_19 
REMARK    5  A    between atoms: C19_22  and  O20_23 
ROOT
HETATM    1  O1          0      67.301   4.120  -0.091  1.00  0.00    -0.286 OA
HETATM    2  C2          0      66.820   4.113   1.076  1.00  0.00     0.201 C 
HETATM    3  C3          0      65.521   3.720   1.350  1.00  0.00     0.067 C 
HETATM    4  C4          0      64.985   3.819   2.629  1.00  0.00     0.103 C 
HETATM    5  O13         0      65.748   4.281   3.603  1.00  0.00    -0.307 OA
HETATM    6  C14         0      66.975   4.702   3.390  1.00  0.00     0.107 C 
HETATM    7  C15         0      67.627   5.539   4.285  1.00  0.00     0.049 C 
HETATM    8  C16         0      68.810   6.182   3.941  1.00  0.00     0.093 C 
HETATM    9  C18         0      69.547   5.560   2.941  1.00  0.00     0.048 C 
HETATM   10  C19         0      68.936   4.681   2.058  1.00  0.00     0.096 C 
HETATM   11  C21         0      67.600   4.411   2.182  1.00  0.00     0.084 C 
ENDROOT
BRANCH  10  12
HETATM   12  O20         0      69.544   4.413   0.835  1.00  0.00    -0.359 OA
HETATM   13  H20         0      70.320   4.910   0.605  1.00  0.00     0.218 HD
ENDBRANCH  10  12
BRANCH   4  14
HETATM   14  C5          0      63.533   3.975   2.735  1.00  0.00     0.025 C 
HETATM   15  C6          0      62.884   5.171   2.467  1.00  0.00     0.004 C 
HETATM   16  C7          0      61.655   5.106   1.817  1.00  0.00     0.026 C 
HETATM   17  C8          0      61.028   3.891   1.562  1.00  0.00     0.112 C 
HETATM   18  C10         0      61.417   2.852   2.398  1.00  0.00     0.112 C 
HETATM   19  C12         0      62.684   2.901   2.967  1.00  0.00     0.028 C 
BRANCH  17  20
HETATM   20  O9          0      60.252   3.718   0.431  1.00  0.00    -0.357 OA
HETATM   21  H9          0      60.608   3.623  -0.445  1.00  0.00     0.218 HD
ENDBRANCH  17  20
BRANCH  18  22
HETATM   22  O11         0      60.690   1.673   2.313  1.00  0.00    -0.357 OA
HETATM   23  H11         0      61.174   0.862   2.416  1.00  0.00     0.218 HD
ENDBRANCH  18  22
ENDBRANCH   4  14
BRANCH   8  24
HETATM   24  O17         0      69.058   7.505   4.324  1.00  0.00    -0.359 OA
HETATM   25  H17         0      69.362   7.723   5.197  1.00  0.00     0.218 HD
ENDBRANCH   8  24
TORSDOF 5
ENDMDL
MODEL 2
REMARK VINA RESULT:      -5.0      2.844      6.722
REMARK  5 active torsions:
REMARK  status: ('A' for Active; 'I' for Inactive)
REMARK    1  A    between atoms: C4_4  and  C5_5 
REMARK    2  A    between atoms: C8_8  and  O9_9 
REMARK    3  A    between atoms: C10_11  and  O11_12 
REMARK    4  A    between atoms: C16_18  and  O17_19 
REMARK    5  A    between atoms: C19_22  and  O20_23 
ROOT
HETATM    1  O1          0      64.252   0.100  -0.178  1.00  0.00    -0.286 OA
HETATM    2  C2          0      64.647   1.285  -0.000  1.00  0.00     0.201 C 
HETATM    3  C3          0      65.635   1.871  -0.773  1.00  0.00     0.067 C 
HETATM    4  C4          0      66.123   3.141  -0.491  1.00  0.00     0.103 C 
HETATM    5  O13         0      65.611   3.806   0.530  1.00  0.00    -0.307 OA
HETATM    6  C14         0      64.699   3.281   1.318  1.00  0.00     0.107 C 
HETATM    7  C15         0      64.453   3.784   2.588  1.00  0.00     0.049 C 
HETATM    8  C16         0      63.680   3.082   3.505  1.00  0.00     0.093 C 
HETATM    9  C18         0      62.774   2.188   2.947  1.00  0.00     0.048 C 
HETATM   10  C19         0      62.965   1.701   1.661  1.00  0.00     0.096 C 
HETATM   11  C21         0      64.044   2.117   0.931  1.00  0.00     0.084 C 
ENDROOT
BRANCH  10  12
HETATM   12  O20         0      62.336   0.519   1.282  1.00  0.00    -0.359 OA
HETATM   13  H20         0      61.659   0.568   0.617  1.00  0.00     0.218 HD
ENDBRANCH  10  12
BRANCH   4  14
HETATM   14  C5          0      67.494   3.441  -0.911  1.00  0.00     0.025 C 
HETATM   15  C6          0      68.123   2.776  -1.953  1.00  0.00     0.004 C 
HETATM   16  C7          0      68.947   3.522  -2.789  1.00  0.00     0.026 C 
HETATM   17  C8          0      69.244   4.854  -2.522  1.00  0.00     0.112 C 
HETATM   18  C10         0      69.107   5.222  -1.190  1.00  0.00     0.112 C 
HETATM   19  C12         0      68.212   4.513  -0.398  1.00  0.00     0.028 C 
BRANCH  17  20
HETATM   20  O9          0      69.446   5.755  -3.552  1.00  0.00    -0.357 OA
HETATM   21  H9          0      69.415   6.699  -3.441  1.00  0.00     0.218 HD
ENDBRANCH  17  20
BRANCH  18  22
HETATM   22  O11         0      69.568   6.482  -0.836  1.00  0.00    -0.357 OA
HETATM   23  H11         0      68.919   7.112  -0.545  1.00  0.00     0.218 HD
ENDBRANCH  18  22
ENDBRANCH   4  14
BRANCH   8  24
HETATM   24  O17         0      64.024   3.031   4.861  1.00  0.00    -0.359 OA
HETATM   25  H17         0      64.878   2.730   5.148  1.00  0.00     0.218 HD
ENDBRANCH   8  24
TORSDOF 5
ENDMDL
MODEL 3
REMARK VINA RESULT:      -4.9      2.695      3.596
REMARK  5 active torsions:
REMARK  status: ('A' for Active; 'I' for Inactive)
REMARK    1  A    between atoms: C4_4  and  C5_5 
REMARK    2  A    between atoms: C8_8  and  O9_9 
REMARK    3  A    between atoms: C10_11  and  O11_12 
REMARK    4  A    between atoms: C16_18  and  O17_19 
REMARK    5  A    between atoms: C19_22  and  O20_23 
ROOT
HETATM    1  O1          0      65.860   0.263   2.015  1.00  0.00    -0.286 OA
HETATM    2  C2          0      65.818   1.503   1.788  1.00  0.00     0.201 C 
HETATM    3  C3          0      64.879   2.340   2.365  1.00  0.00     0.067 C 
HETATM    4  C4          0      64.790   3.684   2.019  1.00  0.00     0.103 C 
HETATM    5  O13         0      65.641   4.168   1.131  1.00  0.00    -0.307 OA
HETATM    6  C14         0      66.527   3.409   0.526  1.00  0.00     0.107 C 
HETATM    7  C15         0      67.134   3.797  -0.660  1.00  0.00     0.049 C 
HETATM    8  C16         0      67.868   2.896  -1.423  1.00  0.00     0.093 C 
HETATM    9  C18         0      68.394   1.821  -0.717  1.00  0.00     0.048 C 
HETATM   10  C19         0      67.841   1.435   0.496  1.00  0.00     0.096 C 
HETATM   11  C21         0      66.780   2.130   1.010  1.00  0.00     0.084 C 
ENDROOT
BRANCH  10  12
HETATM   12  O20         0      68.065   0.145   0.967  1.00  0.00    -0.359 OA
HETATM   13  H20         0      67.944  -0.018   1.894  1.00  0.00     0.218 HD
ENDBRANCH  10  12
BRANCH   4  14
HETATM   14  C5          0      63.484   4.329   2.169  1.00  0.00     0.025 C 
HETATM   15  C6          0      63.215   5.603   1.688  1.00  0.00     0.004 C 
HETATM   16  C7          0      61.960   5.831   1.135  1.00  0.00     0.026 C 
HETATM   17  C8          0      60.957   4.867   1.178  1.00  0.00     0.112 C 
HETATM   18  C10         0      61.098   3.930   2.192  1.00  0.00     0.112 C 
HETATM   19  C12         0      62.375   3.659   2.669  1.00  0.00     0.028 C 
BRANCH  17  20
HETATM   20  O9          0      60.035   4.757   0.153  1.00  0.00    -0.357 OA
HETATM   21  H9          0      59.668   3.932  -0.141  1.00  0.00     0.218 HD
ENDBRANCH  17  20
BRANCH  18  22
HETATM   22  O11         0      60.034   3.063   2.399  1.00  0.00    -0.357 OA
HETATM   23  H11         0      59.994   2.625   3.241  1.00  0.00     0.218 HD
ENDBRANCH  18  22
ENDBRANCH   4  14
BRANCH   8  24
HETATM   24  O17         0      67.792   2.893  -2.820  1.00  0.00    -0.359 OA
HETATM   25  H17         0      67.204   3.473  -3.290  1.00  0.00     0.218 HD
ENDBRANCH   8  24
TORSDOF 5
ENDMDL
MODEL 4
REMARK VINA RESULT:      -4.9      2.685      3.847
REMARK  5 active torsions:
REMARK  status: ('A' for Active; 'I' for Inactive)
REMARK    1  A    between atoms: C4_4  and  C5_5 
REMARK    2  A    between atoms: C8_8  and  O9_9 
REMARK    3  A    between atoms: C10_11  and  O11_12 
REMARK    4  A    between atoms: C16_18  and  O17_19 
REMARK    5  A    between atoms: C19_22  and  O20_23 
ROOT
HETATM    1  O1          0      66.424   0.792  -1.795  1.00  0.00    -0.286 OA
HETATM    2  C2          0      66.620   1.744  -0.990  1.00  0.00     0.201 C 
HETATM    3  C3          0      65.789   1.999   0.087  1.00  0.00     0.067 C 
HETATM    4  C4          0      65.968   3.114   0.897  1.00  0.00     0.103 C 
HETATM    5  O13         0      66.971   3.934   0.637  1.00  0.00    -0.307 OA
HETATM    6  C14         0      67.767   3.759  -0.395  1.00  0.00     0.107 C 
HETATM    7  C15         0      68.542   4.791  -0.904  1.00  0.00     0.049 C 
HETATM    8  C16         0      69.179   4.676  -2.134  1.00  0.00     0.093 C 
HETATM    9  C18         0      69.440   3.373  -2.540  1.00  0.00     0.048 C 
HETATM   10  C19         0      68.715   2.312  -2.017  1.00  0.00     0.096 C 
HETATM   11  C21         0      67.746   2.548  -1.080  1.00  0.00     0.084 C 
ENDROOT
BRANCH  10  12
HETATM   12  O20         0      68.666   1.110  -2.716  1.00  0.00    -0.359 OA
HETATM   13  H20         0      68.686   1.146  -3.665  1.00  0.00     0.218 HD
ENDBRANCH  10  12
BRANCH   4  14
HETATM   14  C5          0      64.785   3.642   1.581  1.00  0.00     0.025 C 
HETATM   15  C6          0      64.767   4.883   2.201  1.00  0.00     0.004 C 
HETATM   16  C7          0      63.603   5.638   2.098  1.00  0.00     0.026 C 
HETATM   17  C8          0      62.450   5.126   1.513  1.00  0.00     0.112 C 
HETATM   18  C10         0      62.369   3.739   1.511  1.00  0.00     0.112 C 
HETATM   19  C12         0      63.551   3.008   1.529  1.00  0.00     0.028 C 
BRANCH  17  20
HETATM   20  O9          0      61.585   5.947   0.813  1.00  0.00    -0.357 OA
HETATM   21  H9          0      61.056   6.624   1.219  1.00  0.00     0.218 HD
ENDBRANCH  17  20
BRANCH  18  22
HETATM   22  O11         0      61.162   3.182   1.114  1.00  0.00    -0.357 OA
HETATM   23  H11         0      61.075   2.952   0.196  1.00  0.00     0.218 HD
ENDBRANCH  18  22
ENDBRANCH   4  14
BRANCH   8  24
HETATM   24  O17         0      69.238   5.752  -3.027  1.00  0.00    -0.359 OA
HETATM   25  H17         0      69.403   6.639  -2.730  1.00  0.00     0.218 HD
ENDBRANCH   8  24
TORSDOF 5
ENDMDL
MODEL 5
REMARK VINA RESULT:      -4.8      3.291      4.880
REMARK  5 active torsions:
REMARK  status: ('A' for Active; 'I' for Inactive)
REMARK    1  A    between atoms: C4_4  and  C5_5 
REMARK    2  A    between atoms: C8_8  and  O9_9 
REMARK    3  A    between atoms: C10_11  and  O11_12 
REMARK    4  A    between atoms: C16_18  and  O17_19 
REMARK    5  A    between atoms: C19_22  and  O20_23 
ROOT
HETATM    1  O1          0      67.397   0.558  -2.780  1.00  0.00    -0.286 OA
HETATM    2  C2          0      67.429   1.477  -1.917  1.00  0.00     0.201 C 
HETATM    3  C3          0      66.560   1.527  -0.840  1.00  0.00     0.067 C 
HETATM    4  C4          0      66.549   2.604   0.039  1.00  0.00     0.103 C 
HETATM    5  O13         0      67.407   3.590  -0.156  1.00  0.00    -0.307 OA
HETATM    6  C14         0      68.227   3.611  -1.183  1.00  0.00     0.107 C 
HETATM    7  C15         0      68.827   4.785  -1.617  1.00  0.00     0.049 C 
HETATM    8  C16         0      69.482   4.851  -2.841  1.00  0.00     0.093 C 
HETATM    9  C18         0      69.955   3.636  -3.320  1.00  0.00     0.048 C 
HETATM   10  C19         0      69.410   2.440  -2.873  1.00  0.00     0.096 C 
HETATM   11  C21         0      68.409   2.458  -1.940  1.00  0.00     0.084 C 
ENDROOT
BRANCH  10  12
HETATM   12  O20         0      69.563   1.292  -3.643  1.00  0.00    -0.359 OA
HETATM   13  H20         0      69.528   0.452  -3.202  1.00  0.00     0.218 HD
ENDBRANCH  10  12
BRANCH   4  14
HETATM   14  C5          0      65.292   2.890   0.733  1.00  0.00     0.025 C 
HETATM   15  C6          0      64.448   1.893   1.201  1.00  0.00     0.004 C 
HETATM   16  C7          0      63.815   2.106   2.421  1.00  0.00     0.026 C 
HETATM   17  C8          0      63.909   3.321   3.090  1.00  0.00     0.112 C 
HETATM   18  C10         0      64.216   4.407   2.280  1.00  0.00     0.112 C 
HETATM   19  C12         0      64.924   4.176   1.107  1.00  0.00     0.028 C 
BRANCH  17  20
HETATM   20  O9          0      63.905   3.371   4.473  1.00  0.00    -0.357 OA
HETATM   21  H9          0      63.114   3.355   4.999  1.00  0.00     0.218 HD
ENDBRANCH  17  20
BRANCH  18  22
HETATM   22  O11         0      64.137   5.665   2.860  1.00  0.00    -0.357 OA
HETATM   23  H11         0      64.201   6.412   2.276  1.00  0.00     0.218 HD
ENDBRANCH  18  22
ENDBRANCH   4  14
BRANCH   8  24
HETATM   24  O17         0      69.371   5.975  -3.667  1.00  0.00    -0.359 OA
HETATM   25  H17         0      69.036   6.802  -3.342  1.00  0.00     0.218 HD
ENDBRANCH   8  24
TORSDOF 5
ENDMDL
MODEL 6
REMARK VINA RESULT:      -4.6      3.583      7.697
REMARK  5 active torsions:
REMARK  status: ('A' for Active; 'I' for Inactive)
REMARK    1  A    between atoms: C4_4  and  C5_5 
REMARK    2  A    between atoms: C8_8  and  O9_9 
REMARK    3  A    between atoms: C10_11  and  O11_12 
REMARK    4  A    between atoms: C16_18  and  O17_19 
REMARK    5  A    between atoms: C19_22  and  O20_23 
ROOT
HETATM    1  O1          0      64.186   4.130   0.848  1.00  0.00    -0.286 OA
HETATM    2  C2          0      65.047   3.307   0.431  1.00  0.00     0.201 C 
HETATM    3  C3          0      66.387   3.626   0.297  1.00  0.00     0.067 C 
HETATM    4  C4          0      67.296   2.734  -0.261  1.00  0.00     0.103 C 
HETATM    5  O13         0      66.863   1.548  -0.651  1.00  0.00    -0.307 OA
HETATM    6  C14         0      65.594   1.208  -0.580  1.00  0.00     0.107 C 
HETATM    7  C15         0      65.074   0.164  -1.331  1.00  0.00     0.049 C 
HETATM    8  C16         0      63.702  -0.027  -1.448  1.00  0.00     0.093 C 
HETATM    9  C18         0      62.946   0.497  -0.407  1.00  0.00     0.048 C 
HETATM   10  C19         0      63.454   1.511   0.394  1.00  0.00     0.096 C 
HETATM   11  C21         0      64.717   1.986   0.167  1.00  0.00     0.084 C 
ENDROOT
BRANCH  10  12
HETATM   12  O20         0      62.576   2.311   1.118  1.00  0.00    -0.359 OA
HETATM   13  H20         0      62.219   1.962   1.926  1.00  0.00     0.218 HD
ENDBRANCH  10  12
BRANCH   4  14
HETATM   14  C5          0      68.478   3.301  -0.912  1.00  0.00     0.025 C 
HETATM   15  C6          0      69.011   2.786  -2.085  1.00  0.00     0.004 C 
HETATM   16  C7          0      69.503   3.690  -3.021  1.00  0.00     0.026 C 
HETATM   17  C8          0      69.587   5.051  -2.747  1.00  0.00     0.112 C 
HETATM   18  C10         0      69.639   5.368  -1.396  1.00  0.00     0.112 C 
HETATM   19  C12         0      69.064   4.487  -0.488  1.00  0.00     0.028 C 
BRANCH  17  20
HETATM   20  O9          0      69.413   5.988  -3.750  1.00  0.00    -0.357 OA
HETATM   21  H9          0      70.123   6.495  -4.127  1.00  0.00     0.218 HD
ENDBRANCH  17  20
BRANCH  18  22
HETATM   22  O11         0      69.912   6.689  -1.071  1.00  0.00    -0.357 OA
HETATM   23  H11         0      70.823   6.917  -0.926  1.00  0.00     0.218 HD
ENDBRANCH  18  22
ENDBRANCH   4  14
BRANCH   8  24
HETATM   24  O17         0      63.120  -0.405  -2.663  1.00  0.00    -0.359 OA
HETATM   25  H17         0      62.831  -1.296  -2.822  1.00  0.00     0.218 HD
ENDBRANCH   8  24
TORSDOF 5
ENDMDL
MODEL 7
REMARK VINA RESULT:      -4.5      2.763      4.138
REMARK  5 active torsions:
REMARK  status: ('A' for Active; 'I' for Inactive)
REMARK    1  A    between atoms: C4_4  and  C5_5 
REMARK    2  A    between atoms: C8_8  and  O9_9 
REMARK    3  A    between atoms: C10_11  and  O11_12 
REMARK    4  A    between atoms: C16_18  and  O17_19 
REMARK    5  A    between atoms: C19_22  and  O20_23 
ROOT
HETATM    1  O1          0      68.440   0.785  -0.509  1.00  0.00    -0.286 OA
HETATM    2  C2          0      68.261   1.959  -0.083  1.00  0.00     0.201 C 
HETATM    3  C3          0      67.368   2.261   0.932  1.00  0.00     0.067 C 
HETATM    4  C4          0      67.115   3.574   1.312  1.00  0.00     0.103 C 
HETATM    5  O13         0      67.762   4.549   0.697  1.00  0.00    -0.307 OA
HETATM    6  C14         0      68.591   4.319  -0.297  1.00  0.00     0.107 C 
HETATM    7  C15         0      68.955   5.316  -1.191  1.00  0.00     0.049 C 
HETATM    8  C16         0      69.619   5.017  -2.374  1.00  0.00     0.093 C 
HETATM    9  C18         0      70.341   3.830  -2.359  1.00  0.00     0.048 C 
HETATM   10  C19         0      70.034   2.830  -1.446  1.00  0.00     0.096 C 
HETATM   11  C21         0      69.023   3.021  -0.544  1.00  0.00     0.084 C 
ENDROOT
BRANCH  10  12
HETATM   12  O20         0      70.438   1.524  -1.707  1.00  0.00    -0.359 OA
HETATM   13  H20         0      71.202   1.195  -1.249  1.00  0.00     0.218 HD
ENDBRANCH  10  12
BRANCH   4  14
HETATM   14  C5          0      65.806   3.860   1.902  1.00  0.00     0.025 C 
HETATM   15  C6          0      64.667   4.073   1.139  1.00  0.00     0.004 C 
HETATM   16  C7          0      63.467   3.555   1.614  1.00  0.00     0.026 C 
HETATM   17  C8          0      63.374   2.961   2.868  1.00  0.00     0.112 C 
HETATM   18  C10         0      64.353   3.355   3.770  1.00  0.00     0.112 C 
HETATM   19  C12         0      65.575   3.789   3.270  1.00  0.00     0.028 C 
BRANCH  17  20
HETATM   20  O9          0      62.499   1.914   3.094  1.00  0.00    -0.357 OA
HETATM   21  H9          0      61.854   1.905   3.792  1.00  0.00     0.218 HD
ENDBRANCH  17  20
BRANCH  18  22
HETATM   22  O11         0      64.199   2.942   5.086  1.00  0.00    -0.357 OA
HETATM   23  H11         0      64.961   2.563   5.510  1.00  0.00     0.218 HD
ENDBRANCH  18  22
ENDBRANCH   4  14
BRANCH   8  24
HETATM   24  O17         0      69.308   5.674  -3.571  1.00  0.00    -0.359 OA
HETATM   25  H17         0      69.105   6.602  -3.592  1.00  0.00     0.218 HD
ENDBRANCH   8  24
TORSDOF 5
ENDMDL
MODEL 8
REMARK VINA RESULT:      -4.5      1.657      6.739
REMARK  5 active torsions:
REMARK  status: ('A' for Active; 'I' for Inactive)
REMARK    1  A    between atoms: C4_4  and  C5_5 
REMARK    2  A    between atoms: C8_8  and  O9_9 
REMARK    3  A    between atoms: C10_11  and  O11_12 
REMARK    4  A    between atoms: C16_18  and  O17_19 
REMARK    5  A    between atoms: C19_22  and  O20_23 
ROOT
HETATM    1  O1          0      64.381   2.246   5.348  1.00  0.00    -0.286 OA
HETATM    2  C2          0      64.984   2.807   4.392  1.00  0.00     0.201 C 
HETATM    3  C3          0      66.337   3.098   4.425  1.00  0.00     0.067 C 
HETATM    4  C4          0      66.955   3.808   3.401  1.00  0.00     0.103 C 
HETATM    5  O13         0      66.228   4.193   2.367  1.00  0.00    -0.307 OA
HETATM    6  C14         0      64.933   3.976   2.304  1.00  0.00     0.107 C 
HETATM    7  C15         0      64.111   4.701   1.453  1.00  0.00     0.049 C 
HETATM    8  C16         0      62.727   4.651   1.570  1.00  0.00     0.093 C 
HETATM    9  C18         0      62.230   3.499   2.167  1.00  0.00     0.048 C 
HETATM   10  C19         0      63.039   2.723   2.986  1.00  0.00     0.096 C 
HETATM   11  C21         0      64.341   3.087   3.195  1.00  0.00     0.084 C 
ENDROOT
BRANCH  10  12
HETATM   12  O20         0      62.449   1.857   3.902  1.00  0.00    -0.359 OA
HETATM   13  H20         0      61.635   2.127   4.310  1.00  0.00     0.218 HD
ENDBRANCH  10  12
BRANCH   4  14
HETATM   14  C5          0      68.151   4.577   3.748  1.00  0.00     0.025 C 
HETATM   15  C6          0      69.292   4.590   2.959  1.00  0.00     0.004 C 
HETATM   16  C7          0      69.977   5.795   2.835  1.00  0.00     0.026 C 
HETATM   17  C8          0      69.620   6.916   3.576  1.00  0.00     0.112 C 
HETATM   18  C10         0      68.926   6.641   4.747  1.00  0.00     0.112 C 
HETATM   19  C12         0      68.180   5.470   4.812  1.00  0.00     0.028 C 
BRANCH  17  20
HETATM   20  O9          0      69.771   8.189   3.054  1.00  0.00    -0.357 OA
HETATM   21  H9          0      70.482   8.441   2.476  1.00  0.00     0.218 HD
ENDBRANCH  17  20
BRANCH  18  22
HETATM   22  O11         0      68.711   7.702   5.615  1.00  0.00    -0.357 OA
HETATM   23  H11         0      69.315   7.790   6.343  1.00  0.00     0.218 HD
ENDBRANCH  18  22
ENDBRANCH   4  14
BRANCH   8  24
HETATM   24  O17         0      61.940   5.798   1.415  1.00  0.00    -0.359 OA
HETATM   25  H17         0      61.159   5.941   1.936  1.00  0.00     0.218 HD
ENDBRANCH   8  24
TORSDOF 5
ENDMDL
MODEL 9
REMARK VINA RESULT:      -4.5      2.544      7.118
REMARK  5 active torsions:
REMARK  status: ('A' for Active; 'I' for Inactive)
REMARK    1  A    between atoms: C4_4  and  C5_5 
REMARK    2  A    between atoms: C8_8  and  O9_9 
REMARK    3  A    between atoms: C10_11  and  O11_12 
REMARK    4  A    between atoms: C16_18  and  O17_19 
REMARK    5  A    between atoms: C19_22  and  O20_23 
ROOT
HETATM    1  O1          0      63.359   5.273   1.749  1.00  0.00    -0.286 OA
HETATM    2  C2          0      64.017   4.212   1.563  1.00  0.00     0.201 C 
HETATM    3  C3          0      65.397   4.196   1.447  1.00  0.00     0.067 C 
HETATM    4  C4          0      66.088   3.029   1.140  1.00  0.00     0.103 C 
HETATM    5  O13         0      65.404   1.910   0.976  1.00  0.00    -0.307 OA
HETATM    6  C14         0      64.091   1.878   1.038  1.00  0.00     0.107 C 
HETATM    7  C15         0      63.358   0.837   0.487  1.00  0.00     0.049 C 
HETATM    8  C16         0      61.981   0.929   0.328  1.00  0.00     0.093 C 
HETATM    9  C18         0      61.348   1.814   1.192  1.00  0.00     0.048 C 
HETATM   10  C19         0      62.061   2.840   1.797  1.00  0.00     0.096 C 
HETATM   11  C21         0      63.402   2.970   1.555  1.00  0.00     0.084 C 
ENDROOT
BRANCH  10  12
HETATM   12  O20         0      61.376   3.948   2.287  1.00  0.00    -0.359 OA
HETATM   13  H20         0      60.939   3.866   3.126  1.00  0.00     0.218 HD
ENDBRANCH  10  12
BRANCH   4  14
HETATM   14  C5          0      67.376   3.173   0.460  1.00  0.00     0.025 C 
HETATM   15  C6          0      67.923   2.177  -0.336  1.00  0.00     0.004 C 
HETATM   16  C7          0      68.591   2.568  -1.491  1.00  0.00     0.026 C 
HETATM   17  C8          0      68.827   3.908  -1.779  1.00  0.00     0.112 C 
HETATM   18  C10         0      68.822   4.748  -0.674  1.00  0.00     0.112 C 
HETATM   19  C12         0      68.076   4.373   0.437  1.00  0.00     0.028 C 
BRANCH  17  20
HETATM   20  O9          0      68.846   4.359  -3.087  1.00  0.00    -0.357 OA
HETATM   21  H9          0      68.131   4.231  -3.700  1.00  0.00     0.218 HD
ENDBRANCH  17  20
BRANCH  18  22
HETATM   22  O11         0      69.236   6.057  -0.877  1.00  0.00    -0.357 OA
HETATM   23  H11         0      69.969   6.362  -0.356  1.00  0.00     0.218 HD
ENDBRANCH  18  22
ENDBRANCH   4  14
BRANCH   8  24
HETATM   24  O17         0      61.344   0.436  -0.816  1.00  0.00    -0.359 OA
HETATM   25  H17         0      60.864  -0.384  -0.806  1.00  0.00     0.218 HD
ENDBRANCH   8  24
TORSDOF 5
ENDMDL
