MODEL 1
REMARK VINA RESULT:      -8.6      0.000      0.000
REMARK  5 active torsions:
REMARK  status: ('A' for Active; 'I' for Inactive)
REMARK    1  A    between atoms: C4_4  and  C5_5 
REMARK    2  A    between atoms: C8_8  and  O9_9 
REMARK    3  A    between atoms: C10_11  and  O11_12 
REMARK    4  A    between atoms: C16_18  and  O17_19 
REMARK    5  A    between atoms: C19_22  and  O20_23 
ROOT
HETATM    1  O1          0      55.620  20.885  17.157  1.00  0.00    -0.286 OA
HETATM    2  C2          0      56.306  21.714  16.499  1.00  0.00     0.201 C 
HETATM    3  C3          0      57.480  22.268  16.981  1.00  0.00     0.067 C 
HETATM    4  C4          0      58.162  23.255  16.279  1.00  0.00     0.103 C 
HETATM    5  O13         0      57.681  23.653  15.115  1.00  0.00    -0.307 OA
HETATM    6  C14         0      56.551  23.187  14.629  1.00  0.00     0.107 C 
HETATM    7  C15         0      55.846  23.862  13.642  1.00  0.00     0.049 C 
HETATM    8  C16         0      54.543  23.507  13.316  1.00  0.00     0.093 C 
HETATM    9  C18         0      54.202  22.192  13.608  1.00  0.00     0.048 C 
HETATM   10  C19         0      54.916  21.472  14.556  1.00  0.00     0.096 C 
HETATM   11  C21         0      55.975  22.056  15.197  1.00  0.00     0.084 C 
ENDROOT
BRANCH  10  12
HETATM   12  O20         0      54.329  20.358  15.149  1.00  0.00    -0.359 OA
HETATM   13  H20         0      54.659  19.501  14.909  1.00  0.00     0.218 HD
ENDBRANCH  10  12
BRANCH   4  14
HETATM   14  C5          0      58.982  24.185  17.057  1.00  0.00     0.025 C 
HETATM   15  C6          0      59.042  25.544  16.786  1.00  0.00     0.004 C 
HETATM   16  C7          0      59.104  26.416  17.869  1.00  0.00     0.026 C 
HETATM   17  C8          0      59.238  25.951  19.172  1.00  0.00     0.112 C 
HETATM   18  C10         0      59.795  24.683  19.281  1.00  0.00     0.112 C 
HETATM   19  C12         0      59.644  23.802  18.217  1.00  0.00     0.028 C 
BRANCH  17  20
HETATM   20  O9          0      58.660  26.630  20.230  1.00  0.00    -0.357 OA
HETATM   21  H9          0      58.176  26.204  20.929  1.00  0.00     0.218 HD
ENDBRANCH  17  20
BRANCH  18  22
HETATM   22  O11         0      60.125  24.250  20.558  1.00  0.00    -0.357 OA
HETATM   23  H11         0      59.806  23.393  20.816  1.00  0.00     0.218 HD
ENDBRANCH  18  22
ENDBRANCH   4  14
BRANCH   8  24
HETATM   24  O17         0      53.571  24.475  13.040  1.00  0.00    -0.359 OA
HETATM   25  H17         0      53.356  24.726  12.150  1.00  0.00     0.218 HD
ENDBRANCH   8  24
TORSDOF 5
ENDMDL
MODEL 2
REMARK VINA RESULT:      -7.9      1.514      6.812
REMARK  5 active torsions:
REMARK  status: ('A' for Active; 'I' for Inactive)
REMARK    1  A    between atoms: C4_4  and  C5_5 
REMARK    2  A    between atoms: C8_8  and  O9_9 
REMARK    3  A    between atoms: C10_11  and  O11_12 
REMARK    4  A    between atoms: C16_18  and  O17_19 
REMARK    5  A    between atoms: C19_22  and  O20_23 
ROOT
HETATM    1  O1          0      56.872  26.984  16.711  1.00  0.00    -0.286 OA
HETATM    2  C2          0      57.236  25.806  16.445  1.00  0.00     0.201 C 
HETATM    3  C3          0      56.794  25.117  15.328  1.00  0.00     0.067 C 
HETATM    4  C4          0      57.130  23.786  15.112  1.00  0.00     0.103 C 
HETATM    5  O13         0      57.907  23.177  15.991  1.00  0.00    -0.307 OA
HETATM    6  C14         0      58.324  23.773  17.086  1.00  0.00     0.107 C 
HETATM    7  C15         0      58.785  23.054  18.179  1.00  0.00     0.049 C 
HETATM    8  C16         0      58.981  23.662  19.413  1.00  0.00     0.093 C 
HETATM    9  C18         0      59.211  25.032  19.362  1.00  0.00     0.048 C 
HETATM   10  C19         0      58.804  25.775  18.263  1.00  0.00     0.096 C 
HETATM   11  C21         0      58.187  25.151  17.212  1.00  0.00     0.084 C 
ENDROOT
BRANCH  10  12
HETATM   12  O20         0      58.636  27.150  18.395  1.00  0.00    -0.359 OA
HETATM   13  H20         0      57.906  27.461  18.916  1.00  0.00     0.218 HD
ENDBRANCH  10  12
BRANCH   4  14
HETATM   14  C5          0      56.201  22.981  14.317  1.00  0.00     0.025 C 
HETATM   15  C6          0      55.740  21.739  14.727  1.00  0.00     0.004 C 
HETATM   16  C7          0      54.413  21.422  14.456  1.00  0.00     0.026 C 
HETATM   17  C8          0      53.608  22.253  13.685  1.00  0.00     0.112 C 
HETATM   18  C10         0      54.299  23.096  12.825  1.00  0.00     0.112 C 
HETATM   19  C12         0      55.596  23.465  13.164  1.00  0.00     0.028 C 
BRANCH  17  20
HETATM   20  O9          0      52.251  22.355  13.934  1.00  0.00    -0.357 OA
HETATM   21  H9          0      51.837  23.131  14.295  1.00  0.00     0.218 HD
ENDBRANCH  17  20
BRANCH  18  22
HETATM   22  O11         0      53.547  23.808  11.902  1.00  0.00    -0.357 OA
HETATM   23  H11         0      52.619  23.901  12.084  1.00  0.00     0.218 HD
ENDBRANCH  18  22
ENDBRANCH   4  14
BRANCH   8  24
HETATM   24  O17         0      58.638  23.017  20.607  1.00  0.00    -0.359 OA
HETATM   25  H17         0      58.742  22.079  20.715  1.00  0.00     0.218 HD
ENDBRANCH   8  24
TORSDOF 5
ENDMDL
MODEL 3
REMARK VINA RESULT:      -7.2      2.816      5.451
REMARK  5 active torsions:
REMARK  status: ('A' for Active; 'I' for Inactive)
REMARK    1  A    between atoms: C4_4  and  C5_5 
REMARK    2  A    between atoms: C8_8  and  O9_9 
REMARK    3  A    between atoms: C10_11  and  O11_12 
REMARK    4  A    between atoms: C16_18  and  O17_19 
REMARK    5  A    between atoms: C19_22  and  O20_23 
ROOT
HETATM    1  O1          0      58.610  23.112  20.411  1.00  0.00    -0.286 OA
HETATM    2  C2          0      58.757  23.332  19.178  1.00  0.00     0.201 C 
HETATM    3  C3          0      58.338  24.504  18.570  1.00  0.00     0.067 C 
HETATM    4  C4          0      58.419  24.679  17.193  1.00  0.00     0.103 C 
HETATM    5  O13         0      58.928  23.706  16.458  1.00  0.00    -0.307 OA
HETATM    6  C14         0      59.305  22.559  16.980  1.00  0.00     0.107 C 
HETATM    7  C15         0      59.455  21.418  16.206  1.00  0.00     0.049 C 
HETATM    8  C16         0      59.601  20.165  16.789  1.00  0.00     0.093 C 
HETATM    9  C18         0      60.113  20.175  18.081  1.00  0.00     0.048 C 
HETATM   10  C19         0      60.022  21.316  18.867  1.00  0.00     0.096 C 
HETATM   11  C21         0      59.439  22.445  18.360  1.00  0.00     0.084 C 
ENDROOT
BRANCH  10  12
HETATM   12  O20         0      60.124  21.199  20.250  1.00  0.00    -0.359 OA
HETATM   13  H20         0      60.930  21.485  20.662  1.00  0.00     0.218 HD
ENDBRANCH  10  12
BRANCH   4  14
HETATM   14  C5          0      57.462  25.600  16.578  1.00  0.00     0.025 C 
HETATM   15  C6          0      57.371  26.938  16.934  1.00  0.00     0.004 C 
HETATM   16  C7          0      57.130  27.860  15.920  1.00  0.00     0.026 C 
HETATM   17  C8          0      56.854  27.457  14.618  1.00  0.00     0.112 C 
HETATM   18  C10         0      56.352  26.167  14.504  1.00  0.00     0.112 C 
HETATM   19  C12         0      56.678  25.242  15.489  1.00  0.00     0.028 C 
BRANCH  17  20
HETATM   20  O9          0      57.260  28.221  13.539  1.00  0.00    -0.357 OA
HETATM   21  H9          0      57.199  27.933  12.635  1.00  0.00     0.218 HD
ENDBRANCH  17  20
BRANCH  18  22
HETATM   22  O11         0      55.884  25.783  13.256  1.00  0.00    -0.357 OA
HETATM   23  H11         0      55.057  26.156  12.973  1.00  0.00     0.218 HD
ENDBRANCH  18  22
ENDBRANCH   4  14
BRANCH   8  24
HETATM   24  O17         0      58.974  19.034  16.255  1.00  0.00    -0.359 OA
HETATM   25  H17         0      59.156  18.732  15.373  1.00  0.00     0.218 HD
ENDBRANCH   8  24
TORSDOF 5
ENDMDL
MODEL 4
REMARK VINA RESULT:      -6.4     11.884     13.943
REMARK  5 active torsions:
REMARK  status: ('A' for Active; 'I' for Inactive)
REMARK    1  A    between atoms: C4_4  and  C5_5 
REMARK    2  A    between atoms: C8_8  and  O9_9 
REMARK    3  A    between atoms: C10_11  and  O11_12 
REMARK    4  A    between atoms: C16_18  and  O17_19 
REMARK    5  A    between atoms: C19_22  and  O20_23 
ROOT
HETATM    1  O1          0      56.356  13.069  11.477  1.00  0.00    -0.286 OA
HETATM    2  C2          0      56.280  12.139  12.326  1.00  0.00     0.201 C 
HETATM    3  C3          0      55.110  11.441  12.571  1.00  0.00     0.067 C 
HETATM    4  C4          0      55.026  10.492  13.583  1.00  0.00     0.103 C 
HETATM    5  O13         0      56.101  10.243  14.311  1.00  0.00    -0.307 OA
HETATM    6  C14         0      57.226  10.904  14.145  1.00  0.00     0.107 C 
HETATM    7  C15         0      58.202  10.943  15.129  1.00  0.00     0.049 C 
HETATM    8  C16         0      59.263  11.839  15.059  1.00  0.00     0.093 C 
HETATM    9  C18         0      59.580  12.273  13.777  1.00  0.00     0.048 C 
HETATM   10  C19         0      58.641  12.204  12.757  1.00  0.00     0.096 C 
HETATM   11  C21         0      57.399  11.689  13.010  1.00  0.00     0.084 C 
ENDROOT
BRANCH  10  12
HETATM   12  O20         0      58.796  13.013  11.635  1.00  0.00    -0.359 OA
HETATM   13  H20         0      58.377  12.739  10.828  1.00  0.00     0.218 HD
ENDBRANCH  10  12
BRANCH   4  14
HETATM   14  C5          0      53.707  10.254  14.171  1.00  0.00     0.025 C 
HETATM   15  C6          0      53.490  10.214  15.541  1.00  0.00     0.004 C 
HETATM   16  C7          0      52.313  10.776  16.025  1.00  0.00     0.026 C 
HETATM   17  C8          0      51.322  11.243  15.168  1.00  0.00     0.112 C 
HETATM   18  C10         0      51.341  10.680  13.899  1.00  0.00     0.112 C 
HETATM   19  C12         0      52.549  10.202  13.406  1.00  0.00     0.028 C 
BRANCH  17  20
HETATM   20  O9          0      50.539  12.330  15.515  1.00  0.00    -0.357 OA
HETATM   21  H9          0      49.910  12.735  14.930  1.00  0.00     0.218 HD
ENDBRANCH  17  20
BRANCH  18  22
HETATM   22  O11         0      50.267  10.966  13.068  1.00  0.00    -0.357 OA
HETATM   23  H11         0      50.438  11.530  12.323  1.00  0.00     0.218 HD
ENDBRANCH  18  22
ENDBRANCH   4  14
BRANCH   8  24
HETATM   24  O17         0      59.737  12.499  16.198  1.00  0.00    -0.359 OA
HETATM   25  H17         0      59.486  12.228  17.073  1.00  0.00     0.218 HD
ENDBRANCH   8  24
TORSDOF 5
ENDMDL
MODEL 5
REMARK VINA RESULT:      -6.2      2.169      6.483
REMARK  5 active torsions:
REMARK  status: ('A' for Active; 'I' for Inactive)
REMARK    1  A    between atoms: C4_4  and  C5_5 
REMARK    2  A    between atoms: C8_8  and  O9_9 
REMARK    3  A    between atoms: C10_11  and  O11_12 
REMARK    4  A    between atoms: C16_18  and  O17_19 
REMARK    5  A    between atoms: C19_22  and  O20_23 
ROOT
HETATM    1  O1          0      58.253  24.202  18.232  1.00  0.00    -0.286 OA
HETATM    2  C2          0      58.189  23.614  17.118  1.00  0.00     0.201 C 
HETATM    3  C3          0      57.444  24.098  16.055  1.00  0.00     0.067 C 
HETATM    4  C4          0      57.308  23.378  14.874  1.00  0.00     0.103 C 
HETATM    5  O13         0      57.925  22.215  14.764  1.00  0.00    -0.307 OA
HETATM    6  C14         0      58.613  21.692  15.756  1.00  0.00     0.107 C 
HETATM    7  C15         0      58.916  20.339  15.802  1.00  0.00     0.049 C 
HETATM    8  C16         0      59.413  19.750  16.958  1.00  0.00     0.093 C 
HETATM    9  C18         0      60.069  20.618  17.823  1.00  0.00     0.048 C 
HETATM   10  C19         0      59.825  21.983  17.773  1.00  0.00     0.096 C 
HETATM   11  C21         0      58.943  22.481  16.852  1.00  0.00     0.084 C 
ENDROOT
BRANCH  10  12
HETATM   12  O20         0      60.125  22.770  18.880  1.00  0.00    -0.359 OA
HETATM   13  H20         0      60.648  22.383  19.572  1.00  0.00     0.218 HD
ENDBRANCH  10  12
BRANCH   4  14
HETATM   14  C5          0      56.098  23.612  14.083  1.00  0.00     0.025 C 
HETATM   15  C6          0      56.128  24.143  12.802  1.00  0.00     0.004 C 
HETATM   16  C7          0      55.230  23.632  11.871  1.00  0.00     0.026 C 
HETATM   17  C8          0      54.244  22.719  12.232  1.00  0.00     0.112 C 
HETATM   18  C10         0      53.897  22.744  13.577  1.00  0.00     0.112 C 
HETATM   19  C12         0      54.844  23.180  14.496  1.00  0.00     0.028 C 
BRANCH  17  20
HETATM   20  O9          0      53.824  21.742  11.348  1.00  0.00    -0.357 OA
HETATM   21  H9          0      52.920  21.626  11.080  1.00  0.00     0.218 HD
ENDBRANCH  17  20
BRANCH  18  22
HETATM   22  O11         0      52.793  21.992  13.954  1.00  0.00    -0.357 OA
HETATM   23  H11         0      52.943  21.292  14.579  1.00  0.00     0.218 HD
ENDBRANCH  18  22
ENDBRANCH   4  14
BRANCH   8  24
HETATM   24  O17         0      58.993  18.480  17.369  1.00  0.00    -0.359 OA
HETATM   25  H17         0      59.574  17.729  17.339  1.00  0.00     0.218 HD
ENDBRANCH   8  24
TORSDOF 5
ENDMDL
MODEL 6
REMARK VINA RESULT:      -6.2     11.120     12.828
REMARK  5 active torsions:
REMARK  status: ('A' for Active; 'I' for Inactive)
REMARK    1  A    between atoms: C4_4  and  C5_5 
REMARK    2  A    between atoms: C8_8  and  O9_9 
REMARK    3  A    between atoms: C10_11  and  O11_12 
REMARK    4  A    between atoms: C16_18  and  O17_19 
REMARK    5  A    between atoms: C19_22  and  O20_23 
ROOT
HETATM    1  O1          0      54.435  12.741  15.901  1.00  0.00    -0.286 OA
HETATM    2  C2          0      54.534  12.088  14.826  1.00  0.00     0.201 C 
HETATM    3  C3          0      55.609  12.220  13.964  1.00  0.00     0.067 C 
HETATM    4  C4          0      55.644  11.566  12.737  1.00  0.00     0.103 C 
HETATM    5  O13         0      54.630  10.786  12.405  1.00  0.00    -0.307 OA
HETATM    6  C14         0      53.569  10.655  13.170  1.00  0.00     0.107 C 
HETATM    7  C15         0      52.363  10.182  12.672  1.00  0.00     0.049 C 
HETATM    8  C16         0      51.189  10.284  13.408  1.00  0.00     0.093 C 
HETATM    9  C18         0      51.364  10.367  14.784  1.00  0.00     0.048 C 
HETATM   10  C19         0      52.573  10.792  15.317  1.00  0.00     0.096 C 
HETATM   11  C21         0      53.607  11.116  14.481  1.00  0.00     0.084 C 
ENDROOT
BRANCH  10  12
HETATM   12  O20         0      52.608  11.283  16.618  1.00  0.00    -0.359 OA
HETATM   13  H20         0      52.777  10.668  17.322  1.00  0.00     0.218 HD
ENDBRANCH  10  12
BRANCH   4  14
HETATM   14  C5          0      56.438  12.181  11.673  1.00  0.00     0.025 C 
HETATM   15  C6          0      55.898  12.554  10.450  1.00  0.00     0.004 C 
HETATM   16  C7          0      56.357  13.734   9.875  1.00  0.00     0.026 C 
HETATM   17  C8          0      57.413  14.452  10.427  1.00  0.00     0.112 C 
HETATM   18  C10         0      58.265  13.705  11.230  1.00  0.00     0.112 C 
HETATM   19  C12         0      57.757  12.576  11.861  1.00  0.00     0.028 C 
BRANCH  17  20
HETATM   20  O9          0      57.455  15.832  10.337  1.00  0.00    -0.357 OA
HETATM   21  H9          0      57.175  16.416  11.032  1.00  0.00     0.218 HD
ENDBRANCH  17  20
BRANCH  18  22
HETATM   22  O11         0      59.434  14.323  11.650  1.00  0.00    -0.357 OA
HETATM   23  H11         0      60.227  13.800  11.632  1.00  0.00     0.218 HD
ENDBRANCH  18  22
ENDBRANCH   4  14
BRANCH   8  24
HETATM   24  O17         0      49.974  10.617  12.799  1.00  0.00    -0.359 OA
HETATM   25  H17         0      49.940  11.030  11.944  1.00  0.00     0.218 HD
ENDBRANCH   8  24
TORSDOF 5
ENDMDL
