MODEL 1
REMARK VINA RESULT:      -0.0      0.000      0.000
REMARK  5 active torsions:
REMARK  status: ('A' for Active; 'I' for Inactive)
REMARK    1  A    between atoms: C4_4  and  C5_5 
REMARK    2  A    between atoms: C8_8  and  O9_9 
REMARK    3  A    between atoms: C10_11  and  O11_12 
REMARK    4  A    between atoms: C16_18  and  O17_19 
REMARK    5  A    between atoms: C19_22  and  O20_23 
ROOT
HETATM    1  O1          0      69.980 115.756  -6.566  1.00  0.00    -0.286 OA
HETATM    2  C2          0      70.524 114.990  -5.725  1.00  0.00     0.201 C 
HETATM    3  C3          0      71.804 115.197  -5.239  1.00  0.00     0.067 C 
HETATM    4  C4          0      72.418 114.282  -4.391  1.00  0.00     0.103 C 
HETATM    5  O13         0      71.748 113.202  -4.030  1.00  0.00    -0.307 OA
HETATM    6  C14         0      70.546 112.938  -4.491  1.00  0.00     0.107 C 
HETATM    7  C15         0      70.010 111.659  -4.448  1.00  0.00     0.049 C 
HETATM    8  C16         0      68.860 111.334  -5.158  1.00  0.00     0.093 C 
HETATM    9  C18         0      68.023 112.406  -5.442  1.00  0.00     0.048 C 
HETATM   10  C19         0      68.516 113.704  -5.448  1.00  0.00     0.096 C 
HETATM   11  C21         0      69.833 113.931  -5.155  1.00  0.00     0.084 C 
ENDROOT
BRANCH  10  12
HETATM   12  O20         0      67.821 114.692  -6.138  1.00  0.00    -0.359 OA
HETATM   13  H20         0      67.579 115.479  -5.665  1.00  0.00     0.218 HD
ENDBRANCH  10  12
BRANCH   4  14
HETATM   14  C5          0      73.881 114.231  -4.407  1.00  0.00     0.025 C 
HETATM   15  C6          0      74.598 113.090  -4.076  1.00  0.00     0.004 C 
HETATM   16  C7          0      75.744 112.812  -4.813  1.00  0.00     0.026 C 
HETATM   17  C8          0      76.238 113.705  -5.758  1.00  0.00     0.112 C 
HETATM   18  C10         0      75.851 115.024  -5.567  1.00  0.00     0.112 C 
HETATM   19  C12         0      74.657 115.272  -4.901  1.00  0.00     0.028 C 
BRANCH  17  20
HETATM   20  O9          0      76.879 113.249  -6.897  1.00  0.00    -0.357 OA
HETATM   21  H9          0      76.450 112.741  -7.576  1.00  0.00     0.218 HD
ENDBRANCH  17  20
BRANCH  18  22
HETATM   22  O11         0      76.464 115.981  -6.365  1.00  0.00    -0.357 OA
HETATM   23  H11         0      77.414 115.993  -6.368  1.00  0.00     0.218 HD
ENDBRANCH  18  22
ENDBRANCH   4  14
BRANCH   8  24
HETATM   24  O17         0      68.733 110.106  -5.816  1.00  0.00    -0.359 OA
HETATM   25  H17         0      68.362 110.044  -6.689  1.00  0.00     0.218 HD
ENDBRANCH   8  24
TORSDOF 5
ENDMDL
MODEL 2
REMARK VINA RESULT:      -0.0      6.856      8.909
REMARK  5 active torsions:
REMARK  status: ('A' for Active; 'I' for Inactive)
REMARK    1  A    between atoms: C4_4  and  C5_5 
REMARK    2  A    between atoms: C8_8  and  O9_9 
REMARK    3  A    between atoms: C10_11  and  O11_12 
REMARK    4  A    between atoms: C16_18  and  O17_19 
REMARK    5  A    between atoms: C19_22  and  O20_23 
ROOT
HETATM    1  O1          0      66.237 120.838  -0.180  1.00  0.00    -0.286 OA
HETATM    2  C2          0      66.051 120.164  -1.231  1.00  0.00     0.201 C 
HETATM    3  C3          0      66.459 118.847  -1.359  1.00  0.00     0.067 C 
HETATM    4  C4          0      66.336 118.160  -2.562  1.00  0.00     0.103 C 
HETATM    5  O13         0      65.795 118.782  -3.595  1.00  0.00    -0.307 OA
HETATM    6  C14         0      65.426 120.043  -3.538  1.00  0.00     0.107 C 
HETATM    7  C15         0      65.242 120.803  -4.683  1.00  0.00     0.049 C 
HETATM    8  C16         0      65.104 122.185  -4.617  1.00  0.00     0.093 C 
HETATM    9  C18         0      64.635 122.671  -3.403  1.00  0.00     0.048 C 
HETATM   10  C19         0      64.760 121.915  -2.245  1.00  0.00     0.096 C 
HETATM   11  C21         0      65.336 120.675  -2.302  1.00  0.00     0.084 C 
ENDROOT
BRANCH  10  12
HETATM   12  O20         0      64.702 122.551  -1.009  1.00  0.00    -0.359 OA
HETATM   13  H20         0      64.669 123.500  -0.997  1.00  0.00     0.218 HD
ENDBRANCH  10  12
BRANCH   4  14
HETATM   14  C5          0      67.280 117.069  -2.810  1.00  0.00     0.025 C 
HETATM   15  C6          0      67.647 116.668  -4.087  1.00  0.00     0.004 C 
HETATM   16  C7          0      68.973 116.301  -4.291  1.00  0.00     0.026 C 
HETATM   17  C8          0      69.874 116.206  -3.236  1.00  0.00     0.112 C 
HETATM   18  C10         0      69.291 116.001  -1.992  1.00  0.00     0.112 C 
HETATM   19  C12         0      67.993 116.455  -1.789  1.00  0.00     0.028 C 
BRANCH  17  20
HETATM   20  O9          0      71.212 116.507  -3.417  1.00  0.00    -0.357 OA
HETATM   21  H9          0      71.674 116.387  -4.239  1.00  0.00     0.218 HD
ENDBRANCH  17  20
BRANCH  18  22
HETATM   22  O11         0      70.145 115.711  -0.938  1.00  0.00    -0.357 OA
HETATM   23  H11         0      70.964 116.193  -0.902  1.00  0.00     0.218 HD
ENDBRANCH  18  22
ENDBRANCH   4  14
BRANCH   8  24
HETATM   24  O17         0      65.704 123.023  -5.563  1.00  0.00    -0.359 OA
HETATM   25  H17         0      66.642 123.013  -5.715  1.00  0.00     0.218 HD
ENDBRANCH   8  24
TORSDOF 5
ENDMDL
MODEL 3
REMARK VINA RESULT:       0.0      5.982      8.175
REMARK  5 active torsions:
REMARK  status: ('A' for Active; 'I' for Inactive)
REMARK    1  A    between atoms: C4_4  and  C5_5 
REMARK    2  A    between atoms: C8_8  and  O9_9 
REMARK    3  A    between atoms: C10_11  and  O11_12 
REMARK    4  A    between atoms: C16_18  and  O17_19 
REMARK    5  A    between atoms: C19_22  and  O20_23 
ROOT
HETATM    1  O1          0      67.956 116.470  -0.405  1.00  0.00    -0.286 OA
HETATM    2  C2          0      67.604 117.310  -1.278  1.00  0.00     0.201 C 
HETATM    3  C3          0      67.531 117.005  -2.626  1.00  0.00     0.067 C 
HETATM    4  C4          0      67.240 117.975  -3.578  1.00  0.00     0.103 C 
HETATM    5  O13         0      67.010 119.212  -3.174  1.00  0.00    -0.307 OA
HETATM    6  C14         0      67.104 119.563  -1.910  1.00  0.00     0.107 C 
HETATM    7  C15         0      67.261 120.888  -1.529  1.00  0.00     0.049 C 
HETATM    8  C16         0      67.613 121.228  -0.228  1.00  0.00     0.093 C 
HETATM    9  C18         0      67.278 120.284   0.736  1.00  0.00     0.048 C 
HETATM   10  C19         0      67.067 118.959   0.382  1.00  0.00     0.096 C 
HETATM   11  C21         0      67.173 118.580  -0.928  1.00  0.00     0.084 C 
ENDROOT
BRANCH  10  12
HETATM   12  O20         0      67.168 117.970   1.357  1.00  0.00    -0.359 OA
HETATM   13  H20         0      67.983 117.487   1.418  1.00  0.00     0.218 HD
ENDBRANCH  10  12
BRANCH   4  14
HETATM   14  C5          0      67.754 117.761  -4.932  1.00  0.00     0.025 C 
HETATM   15  C6          0      68.027 118.802  -5.807  1.00  0.00     0.004 C 
HETATM   16  C7          0      69.149 118.684  -6.621  1.00  0.00     0.026 C 
HETATM   17  C8          0      69.900 117.514  -6.662  1.00  0.00     0.112 C 
HETATM   18  C10         0      69.215 116.372  -6.271  1.00  0.00     0.112 C 
HETATM   19  C12         0      68.149 116.510  -5.389  1.00  0.00     0.028 C 
BRANCH  17  20
HETATM   20  O9          0      71.266 117.556  -6.873  1.00  0.00    -0.357 OA
HETATM   21  H9          0      71.904 117.172  -6.283  1.00  0.00     0.218 HD
ENDBRANCH  17  20
BRANCH  18  22
HETATM   22  O11         0      69.853 115.156  -6.471  1.00  0.00    -0.357 OA
HETATM   23  H11         0      69.967 114.874  -7.372  1.00  0.00     0.218 HD
ENDBRANCH  18  22
ENDBRANCH   4  14
BRANCH   8  24
HETATM   24  O17         0      68.520 122.260   0.036  1.00  0.00    -0.359 OA
HETATM   25  H17         0      68.357 122.907   0.711  1.00  0.00     0.218 HD
ENDBRANCH   8  24
TORSDOF 5
ENDMDL
MODEL 4
REMARK VINA RESULT:       0.0     10.892     12.583
REMARK  5 active torsions:
REMARK  status: ('A' for Active; 'I' for Inactive)
REMARK    1  A    between atoms: C4_4  and  C5_5 
REMARK    2  A    between atoms: C8_8  and  O9_9 
REMARK    3  A    between atoms: C10_11  and  O11_12 
REMARK    4  A    between atoms: C16_18  and  O17_19 
REMARK    5  A    between atoms: C19_22  and  O20_23 
ROOT
HETATM    1  O1          0      70.201 121.787  -2.587  1.00  0.00    -0.286 OA
HETATM    2  C2          0      69.275 122.607  -2.337  1.00  0.00     0.201 C 
HETATM    3  C3          0      69.091 123.774  -3.059  1.00  0.00     0.067 C 
HETATM    4  C4          0      68.127 124.709  -2.698  1.00  0.00     0.103 C 
HETATM    5  O13         0      67.361 124.459  -1.651  1.00  0.00    -0.307 OA
HETATM    6  C14         0      67.519 123.385  -0.910  1.00  0.00     0.107 C 
HETATM    7  C15         0      67.016 123.307   0.381  1.00  0.00     0.049 C 
HETATM    8  C16         0      67.398 122.287   1.244  1.00  0.00     0.093 C 
HETATM    9  C18         0      67.839 121.126   0.622  1.00  0.00     0.048 C 
HETATM   10  C19         0      68.305 121.159  -0.685  1.00  0.00     0.096 C 
HETATM   11  C21         0      68.315 122.342  -1.373  1.00  0.00     0.084 C 
ENDROOT
BRANCH  10  12
HETATM   12  O20         0      69.128 120.134  -1.141  1.00  0.00    -0.359 OA
HETATM   13  H20         0      70.057 120.312  -1.224  1.00  0.00     0.218 HD
ENDBRANCH  10  12
BRANCH   4  14
HETATM   14  C5          0      68.372 126.102  -3.076  1.00  0.00     0.025 C 
HETATM   15  C6          0      67.846 127.176  -2.373  1.00  0.00     0.004 C 
HETATM   16  C7          0      68.650 128.300  -2.216  1.00  0.00     0.026 C 
HETATM   17  C8          0      69.883 128.409  -2.851  1.00  0.00     0.112 C 
HETATM   18  C10         0      70.023 127.619  -3.984  1.00  0.00     0.112 C 
HETATM   19  C12         0      69.269 126.456  -4.076  1.00  0.00     0.028 C 
BRANCH  17  20
HETATM   20  O9          0      70.929 129.090  -2.255  1.00  0.00    -0.357 OA
HETATM   21  H9          0      71.838 128.995  -2.515  1.00  0.00     0.218 HD
ENDBRANCH  17  20
BRANCH  18  22
HETATM   22  O11         0      71.155 127.828  -4.760  1.00  0.00    -0.357 OA
HETATM   23  H11         0      71.017 128.140  -5.647  1.00  0.00     0.218 HD
ENDBRANCH  18  22
ENDBRANCH   4  14
BRANCH   8  24
HETATM   24  O17         0      67.639 122.532   2.601  1.00  0.00    -0.359 OA
HETATM   25  H17         0      68.268 122.021   3.096  1.00  0.00     0.218 HD
ENDBRANCH   8  24
TORSDOF 5
ENDMDL
MODEL 5
REMARK VINA RESULT:       0.0      7.541     10.333
REMARK  5 active torsions:
REMARK  status: ('A' for Active; 'I' for Inactive)
REMARK    1  A    between atoms: C4_4  and  C5_5 
REMARK    2  A    between atoms: C8_8  and  O9_9 
REMARK    3  A    between atoms: C10_11  and  O11_12 
REMARK    4  A    between atoms: C16_18  and  O17_19 
REMARK    5  A    between atoms: C19_22  and  O20_23 
ROOT
HETATM    1  O1          0      75.406 118.333   2.590  1.00  0.00    -0.286 OA
HETATM    2  C2          0      74.745 118.958   1.716  1.00  0.00     0.201 C 
HETATM    3  C3          0      73.549 119.596   1.993  1.00  0.00     0.067 C 
HETATM    4  C4          0      72.790 120.190   0.991  1.00  0.00     0.103 C 
HETATM    5  O13         0      73.241 120.157  -0.251  1.00  0.00    -0.307 OA
HETATM    6  C14         0      74.352 119.532  -0.574  1.00  0.00     0.107 C 
HETATM    7  C15         0      74.622 119.150  -1.880  1.00  0.00     0.049 C 
HETATM    8  C16         0      75.661 118.276  -2.176  1.00  0.00     0.093 C 
HETATM    9  C18         0      76.687 118.245  -1.239  1.00  0.00     0.048 C 
HETATM   10  C19         0      76.464 118.664   0.065  1.00  0.00     0.096 C 
HETATM   11  C21         0      75.228 119.128   0.427  1.00  0.00     0.084 C 
ENDROOT
BRANCH  10  12
HETATM   12  O20         0      77.321 118.235   1.074  1.00  0.00    -0.359 OA
HETATM   13  H20         0      78.044 117.669   0.832  1.00  0.00     0.218 HD
ENDBRANCH  10  12
BRANCH   4  14
HETATM   14  C5          0      71.346 120.290   1.214  1.00  0.00     0.025 C 
HETATM   15  C6          0      70.427 120.335   0.176  1.00  0.00     0.004 C 
HETATM   16  C7          0      69.226 119.655   0.349  1.00  0.00     0.026 C 
HETATM   17  C8          0      68.892 119.061   1.562  1.00  0.00     0.112 C 
HETATM   18  C10         0      69.541 119.596   2.667  1.00  0.00     0.112 C 
HETATM   19  C12         0      70.780 120.196   2.478  1.00  0.00     0.028 C 
BRANCH  17  20
HETATM   20  O9          0      68.139 117.902   1.600  1.00  0.00    -0.357 OA
HETATM   21  H9          0      68.485 117.040   1.398  1.00  0.00     0.218 HD
ENDBRANCH  17  20
BRANCH  18  22
HETATM   22  O11         0      69.108 119.173   3.916  1.00  0.00    -0.357 OA
HETATM   23  H11         0      68.701 119.826   4.473  1.00  0.00     0.218 HD
ENDBRANCH  18  22
ENDBRANCH   4  14
BRANCH   8  24
HETATM   24  O17         0      75.520 117.277  -3.146  1.00  0.00    -0.359 OA
HETATM   25  H17         0      75.721 116.368  -2.959  1.00  0.00     0.218 HD
ENDBRANCH   8  24
TORSDOF 5
ENDMDL
MODEL 6
REMARK VINA RESULT:       0.0      9.330     11.387
REMARK  5 active torsions:
REMARK  status: ('A' for Active; 'I' for Inactive)
REMARK    1  A    between atoms: C4_4  and  C5_5 
REMARK    2  A    between atoms: C8_8  and  O9_9 
REMARK    3  A    between atoms: C10_11  and  O11_12 
REMARK    4  A    between atoms: C16_18  and  O17_19 
REMARK    5  A    between atoms: C19_22  and  O20_23 
ROOT
HETATM    1  O1          0      74.906 112.158   5.652  1.00  0.00    -0.286 OA
HETATM    2  C2          0      75.189 113.199   4.998  1.00  0.00     0.201 C 
HETATM    3  C3          0      75.278 114.451   5.582  1.00  0.00     0.067 C 
HETATM    4  C4          0      75.490 115.596   4.822  1.00  0.00     0.103 C 
HETATM    5  O13         0      75.630 115.473   3.514  1.00  0.00    -0.307 OA
HETATM    6  C14         0      75.518 114.312   2.905  1.00  0.00     0.107 C 
HETATM    7  C15         0      75.264 114.223   1.544  1.00  0.00     0.049 C 
HETATM    8  C16         0      74.895 113.018   0.957  1.00  0.00     0.093 C 
HETATM    9  C18         0      75.305 111.881   1.642  1.00  0.00     0.048 C 
HETATM   10  C19         0      75.611 111.945   2.995  1.00  0.00     0.096 C 
HETATM   11  C21         0      75.526 113.141   3.655  1.00  0.00     0.084 C 
ENDROOT
BRANCH  10  12
HETATM   12  O20         0      75.590 110.779   3.753  1.00  0.00    -0.359 OA
HETATM   13  H20         0      75.744 109.955   3.307  1.00  0.00     0.218 HD
ENDBRANCH  10  12
BRANCH   4  14
HETATM   14  C5          0      74.987 116.861   5.361  1.00  0.00     0.025 C 
HETATM   15  C6          0      74.633 117.933   4.556  1.00  0.00     0.004 C 
HETATM   16  C7          0      73.518 118.678   4.927  1.00  0.00     0.026 C 
HETATM   17  C8          0      72.856 118.450   6.129  1.00  0.00     0.112 C 
HETATM   18  C10         0      73.626 117.836   7.108  1.00  0.00     0.112 C 
HETATM   19  C12         0      74.683 117.028   6.706  1.00  0.00     0.028 C 
BRANCH  17  20
HETATM   20  O9          0      71.489 118.636   6.231  1.00  0.00    -0.357 OA
HETATM   21  H9          0      70.899 118.008   6.632  1.00  0.00     0.218 HD
ENDBRANCH  17  20
BRANCH  18  22
HETATM   22  O11         0      73.078 117.757   8.380  1.00  0.00    -0.357 OA
HETATM   23  H11         0      73.433 117.094   8.961  1.00  0.00     0.218 HD
ENDBRANCH  18  22
ENDBRANCH   4  14
BRANCH   8  24
HETATM   24  O17         0      73.915 112.964  -0.040  1.00  0.00    -0.359 OA
HETATM   25  H17         0      72.991 112.907   0.171  1.00  0.00     0.218 HD
ENDBRANCH   8  24
TORSDOF 5
ENDMDL
MODEL 7
REMARK VINA RESULT:       0.0      9.908     12.047
REMARK  5 active torsions:
REMARK  status: ('A' for Active; 'I' for Inactive)
REMARK    1  A    between atoms: C4_4  and  C5_5 
REMARK    2  A    between atoms: C8_8  and  O9_9 
REMARK    3  A    between atoms: C10_11  and  O11_12 
REMARK    4  A    between atoms: C16_18  and  O17_19 
REMARK    5  A    between atoms: C19_22  and  O20_23 
ROOT
HETATM    1  O1          0      75.613 113.015   7.212  1.00  0.00    -0.286 OA
HETATM    2  C2          0      76.087 113.706   6.269  1.00  0.00     0.201 C 
HETATM    3  C3          0      76.108 115.090   6.290  1.00  0.00     0.067 C 
HETATM    4  C4          0      76.541 115.829   5.194  1.00  0.00     0.103 C 
HETATM    5  O13         0      76.960 115.184   4.119  1.00  0.00    -0.307 OA
HETATM    6  C14         0      76.925 113.873   4.033  1.00  0.00     0.107 C 
HETATM    7  C15         0      76.974 113.219   2.811  1.00  0.00     0.049 C 
HETATM    8  C16         0      76.683 111.864   2.704  1.00  0.00     0.093 C 
HETATM    9  C18         0      76.872 111.130   3.869  1.00  0.00     0.048 C 
HETATM   10  C19         0      76.876 111.759   5.107  1.00  0.00     0.096 C 
HETATM   11  C21         0      76.709 113.115   5.179  1.00  0.00     0.084 C 
ENDROOT
BRANCH  10  12
HETATM   12  O20         0      76.628 111.009   6.252  1.00  0.00    -0.359 OA
HETATM   13  H20         0      75.842 111.202   6.749  1.00  0.00     0.218 HD
ENDBRANCH  10  12
BRANCH   4  14
HETATM   14  C5          0      75.996 117.179   5.039  1.00  0.00     0.025 C 
HETATM   15  C6          0      75.884 117.807   3.807  1.00  0.00     0.004 C 
HETATM   16  C7          0      74.754 118.587   3.582  1.00  0.00     0.026 C 
HETATM   17  C8          0      73.833 118.845   4.592  1.00  0.00     0.112 C 
HETATM   18  C10         0      74.336 118.724   5.880  1.00  0.00     0.112 C 
HETATM   19  C12         0      75.413 117.872   6.092  1.00  0.00     0.028 C 
BRANCH  17  20
HETATM   20  O9          0      72.488 118.994   4.303  1.00  0.00    -0.357 OA
HETATM   21  H9          0      71.793 118.560   4.784  1.00  0.00     0.218 HD
ENDBRANCH  17  20
BRANCH  18  22
HETATM   22  O11         0      73.518 119.151   6.917  1.00  0.00    -0.357 OA
HETATM   23  H11         0      73.701 118.802   7.781  1.00  0.00     0.218 HD
ENDBRANCH  18  22
ENDBRANCH   4  14
BRANCH   8  24
HETATM   24  O17         0      75.946 111.359   1.628  1.00  0.00    -0.359 OA
HETATM   25  H17         0      74.996 111.352   1.633  1.00  0.00     0.218 HD
ENDBRANCH   8  24
TORSDOF 5
ENDMDL
MODEL 8
REMARK VINA RESULT:       0.0     12.577     14.461
REMARK  5 active torsions:
REMARK  status: ('A' for Active; 'I' for Inactive)
REMARK    1  A    between atoms: C4_4  and  C5_5 
REMARK    2  A    between atoms: C8_8  and  O9_9 
REMARK    3  A    between atoms: C10_11  and  O11_12 
REMARK    4  A    between atoms: C16_18  and  O17_19 
REMARK    5  A    between atoms: C19_22  and  O20_23 
ROOT
HETATM    1  O1          0      68.213 122.061   6.315  1.00  0.00    -0.286 OA
HETATM    2  C2          0      68.459 120.905   5.871  1.00  0.00     0.201 C 
HETATM    3  C3          0      67.511 119.896   5.841  1.00  0.00     0.067 C 
HETATM    4  C4          0      67.835 118.604   5.443  1.00  0.00     0.103 C 
HETATM    5  O13         0      69.076 118.348   5.068  1.00  0.00    -0.307 OA
HETATM    6  C14         0      70.022 119.260   5.114  1.00  0.00     0.107 C 
HETATM    7  C15         0      71.367 118.918   5.113  1.00  0.00     0.049 C 
HETATM    8  C16         0      72.349 119.853   5.416  1.00  0.00     0.093 C 
HETATM    9  C18         0      71.990 121.177   5.190  1.00  0.00     0.048 C 
HETATM   10  C19         0      70.653 121.545   5.137  1.00  0.00     0.096 C 
HETATM   11  C21         0      69.680 120.596   5.293  1.00  0.00     0.084 C 
ENDROOT
BRANCH  10  12
HETATM   12  O20         0      70.305 122.876   5.348  1.00  0.00    -0.359 OA
HETATM   13  H20         0      69.535 123.211   4.905  1.00  0.00     0.218 HD
ENDBRANCH  10  12
BRANCH   4  14
HETATM   14  C5          0      67.023 117.513   5.985  1.00  0.00     0.025 C 
HETATM   15  C6          0      67.505 116.221   6.138  1.00  0.00     0.004 C 
HETATM   16  C7          0      67.111 115.516   7.270  1.00  0.00     0.026 C 
HETATM   17  C8          0      66.164 116.024   8.153  1.00  0.00     0.112 C 
HETATM   18  C10         0      65.309 116.971   7.604  1.00  0.00     0.112 C 
HETATM   19  C12         0      65.761 117.722   6.526  1.00  0.00     0.028 C 
BRANCH  17  20
HETATM   20  O9          0      66.235 115.746   9.506  1.00  0.00    -0.357 OA
HETATM   21  H9          0      67.038 115.506   9.955  1.00  0.00     0.218 HD
ENDBRANCH  17  20
BRANCH  18  22
HETATM   22  O11         0      64.231 117.370   8.382  1.00  0.00    -0.357 OA
HETATM   23  H11         0      64.191 118.289   8.622  1.00  0.00     0.218 HD
ENDBRANCH  18  22
ENDBRANCH   4  14
BRANCH   8  24
HETATM   24  O17         0      73.462 119.516   6.196  1.00  0.00    -0.359 OA
HETATM   25  H17         0      73.384 119.336   7.125  1.00  0.00     0.218 HD
ENDBRANCH   8  24
TORSDOF 5
ENDMDL
MODEL 9
REMARK VINA RESULT:       0.0      9.480     12.333
REMARK  5 active torsions:
REMARK  status: ('A' for Active; 'I' for Inactive)
REMARK    1  A    between atoms: C4_4  and  C5_5 
REMARK    2  A    between atoms: C8_8  and  O9_9 
REMARK    3  A    between atoms: C10_11  and  O11_12 
REMARK    4  A    between atoms: C16_18  and  O17_19 
REMARK    5  A    between atoms: C19_22  and  O20_23 
ROOT
HETATM    1  O1          0      69.014 121.993  -3.575  1.00  0.00    -0.286 OA
HETATM    2  C2          0      68.013 121.607  -2.912  1.00  0.00     0.201 C 
HETATM    3  C3          0      66.718 121.685  -3.394  1.00  0.00     0.067 C 
HETATM    4  C4          0      65.624 121.349  -2.604  1.00  0.00     0.103 C 
HETATM    5  O13         0      65.838 120.928  -1.370  1.00  0.00    -0.307 OA
HETATM    6  C14         0      67.045 120.871  -0.850  1.00  0.00     0.107 C 
HETATM    7  C15         0      67.248 120.822   0.521  1.00  0.00     0.049 C 
HETATM    8  C16         0      68.509 121.019   1.071  1.00  0.00     0.093 C 
HETATM    9  C18         0      69.571 120.732   0.222  1.00  0.00     0.048 C 
HETATM   10  C19         0      69.392 120.725  -1.155  1.00  0.00     0.096 C 
HETATM   11  C21         0      68.155 120.987  -1.680  1.00  0.00     0.084 C 
ENDROOT
BRANCH  10  12
HETATM   12  O20         0      70.498 120.874  -1.986  1.00  0.00    -0.359 OA
HETATM   13  H20         0      70.655 120.204  -2.641  1.00  0.00     0.218 HD
ENDBRANCH  10  12
BRANCH   4  14
HETATM   14  C5          0      64.348 121.996  -2.916  1.00  0.00     0.025 C 
HETATM   15  C6          0      63.357 122.202  -1.968  1.00  0.00     0.004 C 
HETATM   16  C7          0      62.641 123.393  -2.031  1.00  0.00     0.026 C 
HETATM   17  C8          0      62.810 124.290  -3.080  1.00  0.00     0.112 C 
HETATM   18  C10         0      63.311 123.730  -4.247  1.00  0.00     0.112 C 
HETATM   19  C12         0      64.095 122.587  -4.148  1.00  0.00     0.028 C 
BRANCH  17  20
HETATM   20  O9          0      62.682 125.653  -2.874  1.00  0.00    -0.357 OA
HETATM   21  H9          0      62.883 126.307  -3.533  1.00  0.00     0.218 HD
ENDBRANCH  17  20
BRANCH  18  22
HETATM   22  O11         0      63.321 124.536  -5.377  1.00  0.00    -0.357 OA
HETATM   23  H11         0      63.523 125.456  -5.247  1.00  0.00     0.218 HD
ENDBRANCH  18  22
ENDBRANCH   4  14
BRANCH   8  24
HETATM   24  O17         0      68.686 121.759   2.245  1.00  0.00    -0.359 OA
HETATM   25  H17         0      69.527 122.135   2.476  1.00  0.00     0.218 HD
ENDBRANCH   8  24
TORSDOF 5
ENDMDL
