MODEL 1
REMARK VINA RESULT:      -5.7      0.000      0.000
REMARK  5 active torsions:
REMARK  status: ('A' for Active; 'I' for Inactive)
REMARK    1  A    between atoms: C4_4  and  C5_5 
REMARK    2  A    between atoms: C8_8  and  O9_9 
REMARK    3  A    between atoms: C10_11  and  O11_12 
REMARK    4  A    between atoms: C16_18  and  O17_19 
REMARK    5  A    between atoms: C19_22  and  O20_23 
ROOT
HETATM    1  O1          0      25.668  52.123  14.861  1.00  0.00    -0.286 OA
HETATM    2  C2          0      26.711  52.592  15.394  1.00  0.00     0.201 C 
HETATM    3  C3          0      26.771  53.865  15.934  1.00  0.00     0.067 C 
HETATM    4  C4          0      27.960  54.394  16.423  1.00  0.00     0.103 C 
HETATM    5  O13         0      29.050  53.648  16.384  1.00  0.00    -0.307 OA
HETATM    6  C14         0      29.057  52.448  15.848  1.00  0.00     0.107 C 
HETATM    7  C15         0      30.234  51.834  15.444  1.00  0.00     0.049 C 
HETATM    8  C16         0      30.218  50.691  14.653  1.00  0.00     0.093 C 
HETATM    9  C18         0      29.059  49.930  14.746  1.00  0.00     0.048 C 
HETATM   10  C19         0      27.874  50.501  15.191  1.00  0.00     0.096 C 
HETATM   11  C21         0      27.851  51.819  15.558  1.00  0.00     0.084 C 
ENDROOT
BRANCH  10  12
HETATM   12  O20         0      26.664  49.890  14.875  1.00  0.00    -0.359 OA
HETATM   13  H20         0      26.129  50.286  14.198  1.00  0.00     0.218 HD
ENDBRANCH  10  12
BRANCH   4  14
HETATM   14  C5          0      28.102  55.851  16.405  1.00  0.00     0.025 C 
HETATM   15  C6          0      27.162  56.691  15.825  1.00  0.00     0.004 C 
HETATM   16  C7          0      26.890  57.895  16.467  1.00  0.00     0.026 C 
HETATM   17  C8          0      27.621  58.313  17.573  1.00  0.00     0.112 C 
HETATM   18  C10         0      28.888  57.754  17.676  1.00  0.00     0.112 C 
HETATM   19  C12         0      29.110  56.510  17.098  1.00  0.00     0.028 C 
BRANCH  17  20
HETATM   20  O9          0      27.026  59.056  18.577  1.00  0.00    -0.357 OA
HETATM   21  H9          0      26.701  58.682  19.388  1.00  0.00     0.218 HD
ENDBRANCH  17  20
BRANCH  18  22
HETATM   22  O11         0      29.728  58.275  18.650  1.00  0.00    -0.357 OA
HETATM   23  H11         0      29.781  57.800  19.471  1.00  0.00     0.218 HD
ENDBRANCH  18  22
ENDBRANCH   4  14
BRANCH   8  24
HETATM   24  O17         0      31.135  50.512  13.612  1.00  0.00    -0.359 OA
HETATM   25  H17         0      32.031  50.243  13.777  1.00  0.00     0.218 HD
ENDBRANCH   8  24
TORSDOF 5
ENDMDL
MODEL 2
REMARK VINA RESULT:      -5.6      4.167      6.965
REMARK  5 active torsions:
REMARK  status: ('A' for Active; 'I' for Inactive)
REMARK    1  A    between atoms: C4_4  and  C5_5 
REMARK    2  A    between atoms: C8_8  and  O9_9 
REMARK    3  A    between atoms: C10_11  and  O11_12 
REMARK    4  A    between atoms: C16_18  and  O17_19 
REMARK    5  A    between atoms: C19_22  and  O20_23 
ROOT
HETATM    1  O1          0      25.808  59.646  14.722  1.00  0.00    -0.286 OA
HETATM    2  C2          0      26.064  59.597  15.956  1.00  0.00     0.201 C 
HETATM    3  C3          0      25.797  60.645  16.820  1.00  0.00     0.067 C 
HETATM    4  C4          0      26.182  60.605  18.155  1.00  0.00     0.103 C 
HETATM    5  O13         0      26.799  59.526  18.606  1.00  0.00    -0.307 OA
HETATM    6  C14         0      27.110  58.519  17.819  1.00  0.00     0.107 C 
HETATM    7  C15         0      28.081  57.592  18.169  1.00  0.00     0.049 C 
HETATM    8  C16         0      28.583  56.688  17.240  1.00  0.00     0.093 C 
HETATM    9  C18         0      27.734  56.407  16.176  1.00  0.00     0.048 C 
HETATM   10  C19         0      26.722  57.291  15.829  1.00  0.00     0.096 C 
HETATM   11  C21         0      26.547  58.441  16.550  1.00  0.00     0.084 C 
ENDROOT
BRANCH  10  12
HETATM   12  O20         0      26.179  57.236  14.548  1.00  0.00    -0.359 OA
HETATM   13  H20         0      26.726  57.508  13.821  1.00  0.00     0.218 HD
ENDBRANCH  10  12
BRANCH   4  14
HETATM   14  C5          0      26.426  61.886  18.821  1.00  0.00     0.025 C 
HETATM   15  C6          0      27.236  62.873  18.280  1.00  0.00     0.004 C 
HETATM   16  C7          0      26.835  64.196  18.440  1.00  0.00     0.026 C 
HETATM   17  C8          0      25.740  64.536  19.226  1.00  0.00     0.112 C 
HETATM   18  C10         0      25.408  63.598  20.195  1.00  0.00     0.112 C 
HETATM   19  C12         0      25.745  62.268  19.970  1.00  0.00     0.028 C 
BRANCH  17  20
HETATM   20  O9          0      24.944  65.620  18.902  1.00  0.00    -0.357 OA
HETATM   21  H9          0      24.242  65.587  18.263  1.00  0.00     0.218 HD
ENDBRANCH  17  20
BRANCH  18  22
HETATM   22  O11         0      24.448  63.968  21.126  1.00  0.00    -0.357 OA
HETATM   23  H11         0      24.099  63.280  21.681  1.00  0.00     0.218 HD
ENDBRANCH  18  22
ENDBRANCH   4  14
BRANCH   8  24
HETATM   24  O17         0      29.943  56.362  17.202  1.00  0.00    -0.359 OA
HETATM   25  H17         0      30.314  55.848  16.493  1.00  0.00     0.218 HD
ENDBRANCH   8  24
TORSDOF 5
ENDMDL
MODEL 3
REMARK VINA RESULT:      -5.5      2.110      7.160
REMARK  5 active torsions:
REMARK  status: ('A' for Active; 'I' for Inactive)
REMARK    1  A    between atoms: C4_4  and  C5_5 
REMARK    2  A    between atoms: C8_8  and  O9_9 
REMARK    3  A    between atoms: C10_11  and  O11_12 
REMARK    4  A    between atoms: C16_18  and  O17_19 
REMARK    5  A    between atoms: C19_22  and  O20_23 
ROOT
HETATM    1  O1          0      29.989  58.739  17.943  1.00  0.00    -0.286 OA
HETATM    2  C2          0      28.955  58.032  17.797  1.00  0.00     0.201 C 
HETATM    3  C3          0      28.930  56.673  18.063  1.00  0.00     0.067 C 
HETATM    4  C4          0      27.807  55.899  17.797  1.00  0.00     0.103 C 
HETATM    5  O13         0      26.735  56.487  17.295  1.00  0.00    -0.307 OA
HETATM    6  C14         0      26.718  57.765  16.989  1.00  0.00     0.107 C 
HETATM    7  C15         0      25.778  58.295  16.116  1.00  0.00     0.049 C 
HETATM    8  C16         0      25.916  59.578  15.600  1.00  0.00     0.093 C 
HETATM    9  C18         0      26.681  60.443  16.372  1.00  0.00     0.048 C 
HETATM   10  C19         0      27.598  59.946  17.289  1.00  0.00     0.096 C 
HETATM   11  C21         0      27.737  58.594  17.445  1.00  0.00     0.084 C 
ENDROOT
BRANCH  10  12
HETATM   12  O20         0      28.637  60.763  17.723  1.00  0.00    -0.359 OA
HETATM   13  H20         0      28.663  61.657  17.404  1.00  0.00     0.218 HD
ENDBRANCH  10  12
BRANCH   4  14
HETATM   14  C5          0      28.023  54.477  17.524  1.00  0.00     0.025 C 
HETATM   15  C6          0      27.397  53.807  16.483  1.00  0.00     0.004 C 
HETATM   16  C7          0      28.138  52.854  15.791  1.00  0.00     0.026 C 
HETATM   17  C8          0      29.413  52.482  16.202  1.00  0.00     0.112 C 
HETATM   18  C10         0      29.680  52.713  17.545  1.00  0.00     0.112 C 
HETATM   19  C12         0      28.985  53.729  18.191  1.00  0.00     0.028 C 
BRANCH  17  20
HETATM   20  O9          0      30.377  52.117  15.280  1.00  0.00    -0.357 OA
HETATM   21  H9          0      30.339  52.345  14.358  1.00  0.00     0.218 HD
ENDBRANCH  17  20
BRANCH  18  22
HETATM   22  O11         0      30.862  52.191  18.050  1.00  0.00    -0.357 OA
HETATM   23  H11         0      31.213  52.600  18.833  1.00  0.00     0.218 HD
ENDBRANCH  18  22
ENDBRANCH   4  14
BRANCH   8  24
HETATM   24  O17         0      25.601  59.865  14.267  1.00  0.00    -0.359 OA
HETATM   25  H17         0      25.236  60.703  14.009  1.00  0.00     0.218 HD
ENDBRANCH   8  24
TORSDOF 5
ENDMDL
MODEL 4
REMARK VINA RESULT:      -5.5      2.476      7.582
REMARK  5 active torsions:
REMARK  status: ('A' for Active; 'I' for Inactive)
REMARK    1  A    between atoms: C4_4  and  C5_5 
REMARK    2  A    between atoms: C8_8  and  O9_9 
REMARK    3  A    between atoms: C10_11  and  O11_12 
REMARK    4  A    between atoms: C16_18  and  O17_19 
REMARK    5  A    between atoms: C19_22  and  O20_23 
ROOT
HETATM    1  O1          0      24.864  59.122  14.806  1.00  0.00    -0.286 OA
HETATM    2  C2          0      25.891  58.826  15.475  1.00  0.00     0.201 C 
HETATM    3  C3          0      26.422  57.547  15.507  1.00  0.00     0.067 C 
HETATM    4  C4          0      27.493  57.224  16.333  1.00  0.00     0.103 C 
HETATM    5  O13         0      28.023  58.173  17.086  1.00  0.00    -0.307 OA
HETATM    6  C14         0      27.534  59.393  17.120  1.00  0.00     0.107 C 
HETATM    7  C15         0      27.808  60.260  18.167  1.00  0.00     0.049 C 
HETATM    8  C16         0      27.095  61.442  18.331  1.00  0.00     0.093 C 
HETATM    9  C18         0      26.521  61.946  17.170  1.00  0.00     0.048 C 
HETATM   10  C19         0      26.276  61.115  16.086  1.00  0.00     0.096 C 
HETATM   11  C21         0      26.618  59.792  16.153  1.00  0.00     0.084 C 
ENDROOT
BRANCH  10  12
HETATM   12  O20         0      25.336  61.498  15.134  1.00  0.00    -0.359 OA
HETATM   13  H20         0      25.188  62.427  15.004  1.00  0.00     0.218 HD
ENDBRANCH  10  12
BRANCH   4  14
HETATM   14  C5          0      27.605  55.832  16.771  1.00  0.00     0.025 C 
HETATM   15  C6          0      27.043  54.775  16.069  1.00  0.00     0.004 C 
HETATM   16  C7          0      27.766  53.589  16.002  1.00  0.00     0.026 C 
HETATM   17  C8          0      28.945  53.411  16.718  1.00  0.00     0.112 C 
HETATM   18  C10         0      29.075  54.229  17.832  1.00  0.00     0.112 C 
HETATM   19  C12         0      28.409  55.449  17.837  1.00  0.00     0.028 C 
BRANCH  17  20
HETATM   20  O9          0      29.970  52.632  16.213  1.00  0.00    -0.357 OA
HETATM   21  H9          0      29.886  51.703  16.029  1.00  0.00     0.218 HD
ENDBRANCH  17  20
BRANCH  18  22
HETATM   22  O11         0      30.137  53.965  18.686  1.00  0.00    -0.357 OA
HETATM   23  H11         0      30.389  54.657  19.286  1.00  0.00     0.218 HD
ENDBRANCH  18  22
ENDBRANCH   4  14
BRANCH   8  24
HETATM   24  O17         0      26.708  61.891  19.598  1.00  0.00    -0.359 OA
HETATM   25  H17         0      27.207  61.676  20.378  1.00  0.00     0.218 HD
ENDBRANCH   8  24
TORSDOF 5
ENDMDL
MODEL 5
REMARK VINA RESULT:      -5.3      2.275      3.892
REMARK  5 active torsions:
REMARK  status: ('A' for Active; 'I' for Inactive)
REMARK    1  A    between atoms: C4_4  and  C5_5 
REMARK    2  A    between atoms: C8_8  and  O9_9 
REMARK    3  A    between atoms: C10_11  and  O11_12 
REMARK    4  A    between atoms: C16_18  and  O17_19 
REMARK    5  A    between atoms: C19_22  and  O20_23 
ROOT
HETATM    1  O1          0      29.378  54.954  19.410  1.00  0.00    -0.286 OA
HETATM    2  C2          0      28.901  55.062  18.248  1.00  0.00     0.201 C 
HETATM    3  C3          0      28.374  56.245  17.759  1.00  0.00     0.067 C 
HETATM    4  C4          0      27.761  56.310  16.513  1.00  0.00     0.103 C 
HETATM    5  O13         0      27.704  55.215  15.776  1.00  0.00    -0.307 OA
HETATM    6  C14         0      28.155  54.058  16.207  1.00  0.00     0.107 C 
HETATM    7  C15         0      27.752  52.858  15.638  1.00  0.00     0.049 C 
HETATM    8  C16         0      28.026  51.641  16.251  1.00  0.00     0.093 C 
HETATM    9  C18         0      29.121  51.647  17.105  1.00  0.00     0.048 C 
HETATM   10  C19         0      29.580  52.837  17.656  1.00  0.00     0.096 C 
HETATM   11  C21         0      28.959  54.014  17.341  1.00  0.00     0.084 C 
ENDROOT
BRANCH  10  12
HETATM   12  O20         0      30.359  52.797  18.808  1.00  0.00    -0.359 OA
HETATM   13  H20         0      30.665  53.621  19.167  1.00  0.00     0.218 HD
ENDBRANCH  10  12
BRANCH   4  14
HETATM   14  C5          0      26.741  57.343  16.321  1.00  0.00     0.025 C 
HETATM   15  C6          0      26.516  58.358  17.241  1.00  0.00     0.004 C 
HETATM   16  C7          0      26.221  59.623  16.745  1.00  0.00     0.026 C 
HETATM   17  C8          0      26.023  59.847  15.386  1.00  0.00     0.112 C 
HETATM   18  C10         0      25.645  58.723  14.663  1.00  0.00     0.112 C 
HETATM   19  C12         0      26.027  57.474  15.137  1.00  0.00     0.028 C 
BRANCH  17  20
HETATM   20  O9          0      26.389  61.048  14.805  1.00  0.00    -0.357 OA
HETATM   21  H9          0      26.695  61.801  15.297  1.00  0.00     0.218 HD
ENDBRANCH  17  20
BRANCH  18  22
HETATM   22  O11         0      25.253  58.925  13.348  1.00  0.00    -0.357 OA
HETATM   23  H11         0      24.324  59.045  13.189  1.00  0.00     0.218 HD
ENDBRANCH  18  22
ENDBRANCH   4  14
BRANCH   8  24
HETATM   24  O17         0      27.084  50.606  16.269  1.00  0.00    -0.359 OA
HETATM   25  H17         0      26.708  50.259  15.469  1.00  0.00     0.218 HD
ENDBRANCH   8  24
TORSDOF 5
ENDMDL
MODEL 6
REMARK VINA RESULT:      -5.0      4.958     10.528
REMARK  5 active torsions:
REMARK  status: ('A' for Active; 'I' for Inactive)
REMARK    1  A    between atoms: C4_4  and  C5_5 
REMARK    2  A    between atoms: C8_8  and  O9_9 
REMARK    3  A    between atoms: C10_11  and  O11_12 
REMARK    4  A    between atoms: C16_18  and  O17_19 
REMARK    5  A    between atoms: C19_22  and  O20_23 
ROOT
HETATM    1  O1          0      25.161  61.938  21.253  1.00  0.00    -0.286 OA
HETATM    2  C2          0      25.572  62.120  20.075  1.00  0.00     0.201 C 
HETATM    3  C3          0      25.676  61.096  19.150  1.00  0.00     0.067 C 
HETATM    4  C4          0      26.229  61.304  17.891  1.00  0.00     0.103 C 
HETATM    5  O13         0      26.643  62.517  17.572  1.00  0.00    -0.307 OA
HETATM    6  C14         0      26.602  63.517  18.426  1.00  0.00     0.107 C 
HETATM    7  C15         0      27.377  64.655  18.258  1.00  0.00     0.049 C 
HETATM    8  C16         0      27.524  65.586  19.279  1.00  0.00     0.093 C 
HETATM    9  C18         0      26.490  65.606  20.207  1.00  0.00     0.048 C 
HETATM   10  C19         0      25.666  64.501  20.369  1.00  0.00     0.096 C 
HETATM   11  C21         0      25.861  63.389  19.596  1.00  0.00     0.084 C 
ENDROOT
BRANCH  10  12
HETATM   12  O20         0      24.948  64.355  21.552  1.00  0.00    -0.359 OA
HETATM   13  H20         0      24.259  63.702  21.577  1.00  0.00     0.218 HD
ENDBRANCH  10  12
BRANCH   4  14
HETATM   14  C5          0      26.849  60.152  17.233  1.00  0.00     0.025 C 
HETATM   15  C6          0      28.135  59.721  17.524  1.00  0.00     0.004 C 
HETATM   16  C7          0      28.364  58.350  17.553  1.00  0.00     0.026 C 
HETATM   17  C8          0      27.385  57.438  17.172  1.00  0.00     0.112 C 
HETATM   18  C10         0      26.413  57.952  16.325  1.00  0.00     0.112 C 
HETATM   19  C12         0      26.143  59.315  16.378  1.00  0.00     0.028 C 
BRANCH  17  20
HETATM   20  O9          0      27.300  56.196  17.777  1.00  0.00    -0.357 OA
HETATM   21  H9          0      27.799  55.438  17.497  1.00  0.00     0.218 HD
ENDBRANCH  17  20
BRANCH  18  22
HETATM   22  O11         0      25.523  57.045  15.766  1.00  0.00    -0.357 OA
HETATM   23  H11         0      25.898  56.295  15.319  1.00  0.00     0.218 HD
ENDBRANCH  18  22
ENDBRANCH   4  14
BRANCH   8  24
HETATM   24  O17         0      28.755  66.200  19.534  1.00  0.00    -0.359 OA
HETATM   25  H17         0      29.345  65.876  20.204  1.00  0.00     0.218 HD
ENDBRANCH   8  24
TORSDOF 5
ENDMDL
MODEL 7
REMARK VINA RESULT:      -5.0      2.848      5.374
REMARK  5 active torsions:
REMARK  status: ('A' for Active; 'I' for Inactive)
REMARK    1  A    between atoms: C4_4  and  C5_5 
REMARK    2  A    between atoms: C8_8  and  O9_9 
REMARK    3  A    between atoms: C10_11  and  O11_12 
REMARK    4  A    between atoms: C16_18  and  O17_19 
REMARK    5  A    between atoms: C19_22  and  O20_23 
ROOT
HETATM    1  O1          0      28.950  56.111  20.338  1.00  0.00    -0.286 OA
HETATM    2  C2          0      28.648  56.799  19.324  1.00  0.00     0.201 C 
HETATM    3  C3          0      28.269  58.128  19.405  1.00  0.00     0.067 C 
HETATM    4  C4          0      27.843  58.834  18.286  1.00  0.00     0.103 C 
HETATM    5  O13         0      27.823  58.218  17.117  1.00  0.00    -0.307 OA
HETATM    6  C14         0      28.137  56.947  16.991  1.00  0.00     0.107 C 
HETATM    7  C15         0      27.745  56.204  15.887  1.00  0.00     0.049 C 
HETATM    8  C16         0      27.854  54.818  15.875  1.00  0.00     0.093 C 
HETATM    9  C18         0      28.817  54.298  16.731  1.00  0.00     0.048 C 
HETATM   10  C19         0      29.266  55.034  17.819  1.00  0.00     0.096 C 
HETATM   11  C21         0      28.769  56.289  18.041  1.00  0.00     0.084 C 
ENDROOT
BRANCH  10  12
HETATM   12  O20         0      29.870  54.374  18.884  1.00  0.00    -0.359 OA
HETATM   13  H20         0      30.602  54.800  19.314  1.00  0.00     0.218 HD
ENDBRANCH  10  12
BRANCH   4  14
HETATM   14  C5          0      26.927  59.954  18.509  1.00  0.00     0.025 C 
HETATM   15  C6          0      25.762  59.835  19.253  1.00  0.00     0.004 C 
HETATM   16  C7          0      25.407  60.904  20.070  1.00  0.00     0.026 C 
HETATM   17  C8          0      26.111  62.103  20.048  1.00  0.00     0.112 C 
HETATM   18  C10         0      26.812  62.343  18.874  1.00  0.00     0.112 C 
HETATM   19  C12         0      27.229  61.252  18.120  1.00  0.00     0.028 C 
BRANCH  17  20
HETATM   20  O9          0      26.250  62.864  21.195  1.00  0.00    -0.357 OA
HETATM   21  H9          0      25.538  63.348  21.598  1.00  0.00     0.218 HD
ENDBRANCH  17  20
BRANCH  18  22
HETATM   22  O11         0      27.375  63.602  18.724  1.00  0.00    -0.357 OA
HETATM   23  H11         0      28.179  63.774  19.201  1.00  0.00     0.218 HD
ENDBRANCH  18  22
ENDBRANCH   4  14
BRANCH   8  24
HETATM   24  O17         0      26.857  54.013  15.312  1.00  0.00    -0.359 OA
HETATM   25  H17         0      26.943  53.650  14.439  1.00  0.00     0.218 HD
ENDBRANCH   8  24
TORSDOF 5
ENDMDL
MODEL 8
REMARK VINA RESULT:      -4.9      5.579      8.181
REMARK  5 active torsions:
REMARK  status: ('A' for Active; 'I' for Inactive)
REMARK    1  A    between atoms: C4_4  and  C5_5 
REMARK    2  A    between atoms: C8_8  and  O9_9 
REMARK    3  A    between atoms: C10_11  and  O11_12 
REMARK    4  A    between atoms: C16_18  and  O17_19 
REMARK    5  A    between atoms: C19_22  and  O20_23 
ROOT
HETATM    1  O1          0      27.545  58.087  17.147  1.00  0.00    -0.286 OA
HETATM    2  C2          0      26.971  59.175  16.866  1.00  0.00     0.201 C 
HETATM    3  C3          0      27.256  60.364  17.517  1.00  0.00     0.067 C 
HETATM    4  C4          0      26.538  61.525  17.260  1.00  0.00     0.103 C 
HETATM    5  O13         0      25.574  61.489  16.357  1.00  0.00    -0.307 OA
HETATM    6  C14         0      25.238  60.379  15.737  1.00  0.00     0.107 C 
HETATM    7  C15         0      24.009  60.235  15.110  1.00  0.00     0.049 C 
HETATM    8  C16         0      23.557  58.992  14.684  1.00  0.00     0.093 C 
HETATM    9  C18         0      24.556  58.060  14.430  1.00  0.00     0.048 C 
HETATM   10  C19         0      25.813  58.199  15.004  1.00  0.00     0.096 C 
HETATM   11  C21         0      26.075  59.271  15.813  1.00  0.00     0.084 C 
ENDROOT
BRANCH  10  12
HETATM   12  O20         0      26.639  57.084  15.110  1.00  0.00    -0.359 OA
HETATM   13  H20         0      26.328  56.263  14.748  1.00  0.00     0.218 HD
ENDBRANCH  10  12
BRANCH   4  14
HETATM   14  C5          0      26.458  62.515  18.336  1.00  0.00     0.025 C 
HETATM   15  C6          0      27.162  63.711  18.311  1.00  0.00     0.004 C 
HETATM   16  C7          0      26.524  64.845  18.804  1.00  0.00     0.026 C 
HETATM   17  C8          0      25.282  64.771  19.424  1.00  0.00     0.112 C 
HETATM   18  C10         0      24.972  63.526  19.955  1.00  0.00     0.112 C 
HETATM   19  C12         0      25.558  62.401  19.388  1.00  0.00     0.028 C 
BRANCH  17  20
HETATM   20  O9          0      24.372  65.807  19.314  1.00  0.00    -0.357 OA
HETATM   21  H9          0      24.361  66.426  18.593  1.00  0.00     0.218 HD
ENDBRANCH  17  20
BRANCH  18  22
HETATM   22  O11         0      23.834  63.446  20.746  1.00  0.00    -0.357 OA
HETATM   23  H11         0      23.447  62.585  20.856  1.00  0.00     0.218 HD
ENDBRANCH  18  22
ENDBRANCH   4  14
BRANCH   8  24
HETATM   24  O17         0      22.218  58.613  14.828  1.00  0.00    -0.359 OA
HETATM   25  H17         0      21.525  59.256  14.922  1.00  0.00     0.218 HD
ENDBRANCH   8  24
TORSDOF 5
ENDMDL
MODEL 9
REMARK VINA RESULT:      -4.6      2.690      5.009
REMARK  5 active torsions:
REMARK  status: ('A' for Active; 'I' for Inactive)
REMARK    1  A    between atoms: C4_4  and  C5_5 
REMARK    2  A    between atoms: C8_8  and  O9_9 
REMARK    3  A    between atoms: C10_11  and  O11_12 
REMARK    4  A    between atoms: C16_18  and  O17_19 
REMARK    5  A    between atoms: C19_22  and  O20_23 
ROOT
HETATM    1  O1          0      28.116  55.742  20.919  1.00  0.00    -0.286 OA
HETATM    2  C2          0      28.263  56.348  19.822  1.00  0.00     0.201 C 
HETATM    3  C3          0      27.916  57.677  19.647  1.00  0.00     0.067 C 
HETATM    4  C4          0      27.992  58.292  18.403  1.00  0.00     0.103 C 
HETATM    5  O13         0      28.428  57.588  17.372  1.00  0.00    -0.307 OA
HETATM    6  C14         0      28.735  56.314  17.476  1.00  0.00     0.107 C 
HETATM    7  C15         0      28.802  55.485  16.366  1.00  0.00     0.049 C 
HETATM    8  C16         0      28.873  54.104  16.499  1.00  0.00     0.093 C 
HETATM    9  C18         0      29.398  53.657  17.705  1.00  0.00     0.048 C 
HETATM   10  C19         0      29.391  54.478  18.825  1.00  0.00     0.096 C 
HETATM   11  C21         0      28.877  55.743  18.736  1.00  0.00     0.084 C 
ENDROOT
BRANCH  10  12
HETATM   12  O20         0      29.501  53.906  20.089  1.00  0.00    -0.359 OA
HETATM   13  H20         0      29.579  54.487  20.836  1.00  0.00     0.218 HD
ENDBRANCH  10  12
BRANCH   4  14
HETATM   14  C5          0      27.090  59.419  18.156  1.00  0.00     0.025 C 
HETATM   15  C6          0      27.537  60.726  18.032  1.00  0.00     0.004 C 
HETATM   16  C7          0      26.915  61.533  17.085  1.00  0.00     0.026 C 
HETATM   17  C8          0      25.799  61.100  16.377  1.00  0.00     0.112 C 
HETATM   18  C10         0      25.075  60.091  16.998  1.00  0.00     0.112 C 
HETATM   19  C12         0      25.741  59.245  17.877  1.00  0.00     0.028 C 
BRANCH  17  20
HETATM   20  O9          0      25.583  61.510  15.074  1.00  0.00    -0.357 OA
HETATM   21  H9          0      24.771  61.363  14.602  1.00  0.00     0.218 HD
ENDBRANCH  17  20
BRANCH  18  22
HETATM   22  O11         0      23.854  59.754  16.431  1.00  0.00    -0.357 OA
HETATM   23  H11         0      23.101  59.739  17.010  1.00  0.00     0.218 HD
ENDBRANCH  18  22
ENDBRANCH   4  14
BRANCH   8  24
HETATM   24  O17         0      28.167  53.251  15.643  1.00  0.00    -0.359 OA
HETATM   25  H17         0      28.443  52.355  15.493  1.00  0.00     0.218 HD
ENDBRANCH   8  24
TORSDOF 5
ENDMDL
