MODEL 1
REMARK VINA RESULT:       0.0      0.000      0.000
REMARK  5 active torsions:
REMARK  status: ('A' for Active; 'I' for Inactive)
REMARK    1  A    between atoms: C4_4  and  C5_5 
REMARK    2  A    between atoms: C8_8  and  O9_9 
REMARK    3  A    between atoms: C10_11  and  O11_12 
REMARK    4  A    between atoms: C16_18  and  O17_19 
REMARK    5  A    between atoms: C19_22  and  O20_23 
ROOT
HETATM    1  O1          0      61.603  96.465  22.675  1.00  0.00    -0.286 OA
HETATM    2  C2          0      62.542  96.328  23.507  1.00  0.00     0.201 C 
HETATM    3  C3          0      63.872  96.521  23.176  1.00  0.00     0.067 C 
HETATM    4  C4          0      64.893  96.264  24.084  1.00  0.00     0.103 C 
HETATM    5  O13         0      64.575  95.845  25.295  1.00  0.00    -0.307 OA
HETATM    6  C14         0      63.331  95.609  25.649  1.00  0.00     0.107 C 
HETATM    7  C15         0      63.019  94.810  26.740  1.00  0.00     0.049 C 
HETATM    8  C16         0      61.723  94.358  26.957  1.00  0.00     0.093 C 
HETATM    9  C18         0      60.726  95.141  26.389  1.00  0.00     0.048 C 
HETATM   10  C19         0      61.012  95.987  25.326  1.00  0.00     0.096 C 
HETATM   11  C21         0      62.291  96.063  24.845  1.00  0.00     0.084 C 
ENDROOT
BRANCH  10  12
HETATM   12  O20         0      59.978  96.418  24.501  1.00  0.00    -0.359 OA
HETATM   13  H20         0      59.801  97.350  24.459  1.00  0.00     0.218 HD
ENDBRANCH  10  12
BRANCH   4  14
HETATM   14  C5          0      66.202  95.905  23.535  1.00  0.00     0.025 C 
HETATM   15  C6          0      67.120  95.128  24.226  1.00  0.00     0.004 C 
HETATM   16  C7          0      67.862  94.205  23.496  1.00  0.00     0.026 C 
HETATM   17  C8          0      67.794  94.148  22.108  1.00  0.00     0.112 C 
HETATM   18  C10         0      67.375  95.324  21.500  1.00  0.00     0.112 C 
HETATM   19  C12         0      66.563  96.189  22.224  1.00  0.00     0.028 C 
BRANCH  17  20
HETATM   20  O9          0      67.932  92.945  21.440  1.00  0.00    -0.357 OA
HETATM   21  H9          0      67.530  92.758  20.599  1.00  0.00     0.218 HD
ENDBRANCH  17  20
BRANCH  18  22
HETATM   22  O11         0      67.469  95.384  20.117  1.00  0.00    -0.357 OA
HETATM   23  H11         0      68.342  95.350  19.743  1.00  0.00     0.218 HD
ENDBRANCH  18  22
ENDBRANCH   4  14
BRANCH   8  24
HETATM   24  O17         0      61.470  93.058  27.410  1.00  0.00    -0.359 OA
HETATM   25  H17         0      62.175  92.451  27.601  1.00  0.00     0.218 HD
ENDBRANCH   8  24
TORSDOF 5
ENDMDL
MODEL 2
REMARK VINA RESULT:       0.0     10.023     12.306
REMARK  5 active torsions:
REMARK  status: ('A' for Active; 'I' for Inactive)
REMARK    1  A    between atoms: C4_4  and  C5_5 
REMARK    2  A    between atoms: C8_8  and  O9_9 
REMARK    3  A    between atoms: C10_11  and  O11_12 
REMARK    4  A    between atoms: C16_18  and  O17_19 
REMARK    5  A    between atoms: C19_22  and  O20_23 
ROOT
HETATM    1  O1          0      70.918  99.359  29.430  1.00  0.00    -0.286 OA
HETATM    2  C2          0      71.761 100.154  28.931  1.00  0.00     0.201 C 
HETATM    3  C3          0      71.790 101.505  29.234  1.00  0.00     0.067 C 
HETATM    4  C4          0      72.662 102.377  28.592  1.00  0.00     0.103 C 
HETATM    5  O13         0      73.493 101.892  27.688  1.00  0.00    -0.307 OA
HETATM    6  C14         0      73.482 100.625  27.336  1.00  0.00     0.107 C 
HETATM    7  C15         0      74.043 100.192  26.143  1.00  0.00     0.049 C 
HETATM    8  C16         0      73.808  98.912  25.657  1.00  0.00     0.093 C 
HETATM    9  C18         0      73.468  97.971  26.622  1.00  0.00     0.048 C 
HETATM   10  C19         0      72.947  98.372  27.844  1.00  0.00     0.096 C 
HETATM   11  C21         0      72.783  99.704  28.109  1.00  0.00     0.084 C 
ENDROOT
BRANCH  10  12
HETATM   12  O20         0      72.220  97.461  28.605  1.00  0.00    -0.359 OA
HETATM   13  H20         0      71.281  97.587  28.673  1.00  0.00     0.218 HD
ENDBRANCH  10  12
BRANCH   4  14
HETATM   14  C5          0      72.255 103.780  28.495  1.00  0.00     0.025 C 
HETATM   15  C6          0      72.692 104.621  27.482  1.00  0.00     0.004 C 
HETATM   16  C7          0      71.780 105.535  26.965  1.00  0.00     0.026 C 
HETATM   17  C8          0      70.517 105.702  27.524  1.00  0.00     0.112 C 
HETATM   18  C10         0      70.415 105.310  28.852  1.00  0.00     0.112 C 
HETATM   19  C12         0      71.284 104.333  29.321  1.00  0.00     0.028 C 
BRANCH  17  20
HETATM   20  O9          0      69.430 106.030  26.733  1.00  0.00    -0.357 OA
HETATM   21  H9          0      69.277 106.898  26.380  1.00  0.00     0.218 HD
ENDBRANCH  17  20
BRANCH  18  22
HETATM   22  O11         0      69.236 105.628  29.512  1.00  0.00    -0.357 OA
HETATM   23  H11         0      68.499 105.042  29.382  1.00  0.00     0.218 HD
ENDBRANCH  18  22
ENDBRANCH   4  14
BRANCH   8  24
HETATM   24  O17         0      73.599  98.676  24.293  1.00  0.00    -0.359 OA
HETATM   25  H17         0      72.975  98.028  23.989  1.00  0.00     0.218 HD
ENDBRANCH   8  24
TORSDOF 5
ENDMDL
MODEL 3
REMARK VINA RESULT:       0.0     12.788     14.238
REMARK  5 active torsions:
REMARK  status: ('A' for Active; 'I' for Inactive)
REMARK    1  A    between atoms: C4_4  and  C5_5 
REMARK    2  A    between atoms: C8_8  and  O9_9 
REMARK    3  A    between atoms: C10_11  and  O11_12 
REMARK    4  A    between atoms: C16_18  and  O17_19 
REMARK    5  A    between atoms: C19_22  and  O20_23 
ROOT
HETATM    1  O1          0      69.682 100.133  32.146  1.00  0.00    -0.286 OA
HETATM    2  C2          0      70.763 100.664  32.522  1.00  0.00     0.201 C 
HETATM    3  C3          0      71.965  99.977  32.554  1.00  0.00     0.067 C 
HETATM    4  C4          0      73.120 100.554  33.070  1.00  0.00     0.103 C 
HETATM    5  O13         0      73.063 101.795  33.519  1.00  0.00    -0.307 OA
HETATM    6  C14         0      71.940 102.478  33.546  1.00  0.00     0.107 C 
HETATM    7  C15         0      71.781 103.592  34.359  1.00  0.00     0.049 C 
HETATM    8  C16         0      70.528 104.153  34.577  1.00  0.00     0.093 C 
HETATM    9  C18         0      69.594 103.908  33.578  1.00  0.00     0.048 C 
HETATM   10  C19         0      69.747 102.830  32.718  1.00  0.00     0.096 C 
HETATM   11  C21         0      70.835 102.011  32.843  1.00  0.00     0.084 C 
ENDROOT
BRANCH  10  12
HETATM   12  O20         0      68.636 102.340  32.037  1.00  0.00    -0.359 OA
HETATM   13  H20         0      67.970 101.887  32.539  1.00  0.00     0.218 HD
ENDBRANCH  10  12
BRANCH   4  14
HETATM   14  C5          0      74.131  99.650  33.621  1.00  0.00     0.025 C 
HETATM   15  C6          0      75.025 100.036  34.610  1.00  0.00     0.004 C 
HETATM   16  C7          0      75.341  99.103  35.593  1.00  0.00     0.026 C 
HETATM   17  C8          0      74.890  97.789  35.523  1.00  0.00     0.112 C 
HETATM   18  C10         0      74.568  97.354  34.245  1.00  0.00     0.112 C 
HETATM   19  C12         0      74.173  98.299  33.305  1.00  0.00     0.028 C 
BRANCH  17  20
HETATM   20  O9          0      74.596  97.079  36.674  1.00  0.00    -0.357 OA
HETATM   21  H9          0      74.410  97.485  37.512  1.00  0.00     0.218 HD
ENDBRANCH  17  20
BRANCH  18  22
HETATM   22  O11         0      74.295  96.002  34.092  1.00  0.00    -0.357 OA
HETATM   23  H11         0      75.021  95.442  33.845  1.00  0.00     0.218 HD
ENDBRANCH  18  22
ENDBRANCH   4  14
BRANCH   8  24
HETATM   24  O17         0      70.151 104.625  35.839  1.00  0.00    -0.359 OA
HETATM   25  H17         0      69.244 104.619  36.123  1.00  0.00     0.218 HD
ENDBRANCH   8  24
TORSDOF 5
ENDMDL
MODEL 4
REMARK VINA RESULT:       0.0      6.419      8.583
REMARK  5 active torsions:
REMARK  status: ('A' for Active; 'I' for Inactive)
REMARK    1  A    between atoms: C4_4  and  C5_5 
REMARK    2  A    between atoms: C8_8  and  O9_9 
REMARK    3  A    between atoms: C10_11  and  O11_12 
REMARK    4  A    between atoms: C16_18  and  O17_19 
REMARK    5  A    between atoms: C19_22  and  O20_23 
ROOT
HETATM    1  O1          0      67.491 100.179  27.208  1.00  0.00    -0.286 OA
HETATM    2  C2          0      68.305  99.369  26.688  1.00  0.00     0.201 C 
HETATM    3  C3          0      69.280  98.711  27.418  1.00  0.00     0.067 C 
HETATM    4  C4          0      70.230  97.902  26.804  1.00  0.00     0.103 C 
HETATM    5  O13         0      70.179  97.748  25.493  1.00  0.00    -0.307 OA
HETATM    6  C14         0      69.298  98.378  24.748  1.00  0.00     0.107 C 
HETATM    7  C15         0      69.480  98.543  23.382  1.00  0.00     0.049 C 
HETATM    8  C16         0      68.687  99.419  22.650  1.00  0.00     0.093 C 
HETATM    9  C18         0      67.439  99.681  23.200  1.00  0.00     0.048 C 
HETATM   10  C19         0      67.209  99.483  24.555  1.00  0.00     0.096 C 
HETATM   11  C21         0      68.215  99.009  25.352  1.00  0.00     0.084 C 
ENDROOT
BRANCH  10  12
HETATM   12  O20         0      66.145 100.137  25.168  1.00  0.00    -0.359 OA
HETATM   13  H20         0      66.204 101.079  25.276  1.00  0.00     0.218 HD
ENDBRANCH  10  12
BRANCH   4  14
HETATM   14  C5          0      71.517  97.747  27.483  1.00  0.00     0.025 C 
HETATM   15  C6          0      72.694  97.460  26.807  1.00  0.00     0.004 C 
HETATM   16  C7          0      73.859  98.080  27.249  1.00  0.00     0.026 C 
HETATM   17  C8          0      73.880  98.853  28.405  1.00  0.00     0.112 C 
HETATM   18  C10         0      72.871  98.564  29.315  1.00  0.00     0.112 C 
HETATM   19  C12         0      71.684  98.023  28.834  1.00  0.00     0.028 C 
BRANCH  17  20
HETATM   20  O9          0      74.718  99.949  28.510  1.00  0.00    -0.357 OA
HETATM   21  H9          0      75.238 100.144  29.281  1.00  0.00     0.218 HD
ENDBRANCH  17  20
BRANCH  18  22
HETATM   22  O11         0      72.956  99.169  30.560  1.00  0.00    -0.357 OA
HETATM   23  H11         0      73.772  99.609  30.770  1.00  0.00     0.218 HD
ENDBRANCH  18  22
ENDBRANCH   4  14
BRANCH   8  24
HETATM   24  O17         0      69.229 100.221  21.639  1.00  0.00    -0.359 OA
HETATM   25  H17         0      68.825 100.286  20.782  1.00  0.00     0.218 HD
ENDBRANCH   8  24
TORSDOF 5
ENDMDL
MODEL 5
REMARK VINA RESULT:       0.0     11.331     14.319
REMARK  5 active torsions:
REMARK  status: ('A' for Active; 'I' for Inactive)
REMARK    1  A    between atoms: C4_4  and  C5_5 
REMARK    2  A    between atoms: C8_8  and  O9_9 
REMARK    3  A    between atoms: C10_11  and  O11_12 
REMARK    4  A    between atoms: C16_18  and  O17_19 
REMARK    5  A    between atoms: C19_22  and  O20_23 
ROOT
HETATM    1  O1          0      76.580  95.066  33.531  1.00  0.00    -0.286 OA
HETATM    2  C2          0      75.719  95.741  32.902  1.00  0.00     0.201 C 
HETATM    3  C3          0      74.708  96.444  33.535  1.00  0.00     0.067 C 
HETATM    4  C4          0      73.713  97.095  32.815  1.00  0.00     0.103 C 
HETATM    5  O13         0      73.753  97.052  31.495  1.00  0.00    -0.307 OA
HETATM    6  C14         0      74.670  96.368  30.845  1.00  0.00     0.107 C 
HETATM    7  C15         0      74.497  95.988  29.522  1.00  0.00     0.049 C 
HETATM    8  C16         0      75.339  95.059  28.922  1.00  0.00     0.093 C 
HETATM    9  C18         0      76.601  94.955  29.494  1.00  0.00     0.048 C 
HETATM   10  C19         0      76.819  95.369  30.801  1.00  0.00     0.096 C 
HETATM   11  C21         0      75.788  95.899  31.527  1.00  0.00     0.084 C 
ENDROOT
BRANCH  10  12
HETATM   12  O20         0      77.920  94.877  31.495  1.00  0.00    -0.359 OA
HETATM   13  H20         0      77.786  94.575  32.386  1.00  0.00     0.218 HD
ENDBRANCH  10  12
BRANCH   4  14
HETATM   14  C5          0      72.419  97.276  33.475  1.00  0.00     0.025 C 
HETATM   15  C6          0      71.227  97.389  32.774  1.00  0.00     0.004 C 
HETATM   16  C7          0      70.100  96.778  33.315  1.00  0.00     0.026 C 
HETATM   17  C8          0      70.125  96.188  34.575  1.00  0.00     0.112 C 
HETATM   18  C10         0      71.115  96.669  35.421  1.00  0.00     0.112 C 
HETATM   19  C12         0      72.269  97.198  34.853  1.00  0.00     0.028 C 
BRANCH  17  20
HETATM   20  O9          0      69.352  95.074  34.851  1.00  0.00    -0.357 OA
HETATM   21  H9          0      69.473  94.525  35.617  1.00  0.00     0.218 HD
ENDBRANCH  17  20
BRANCH  18  22
HETATM   22  O11         0      71.067  96.255  36.744  1.00  0.00    -0.357 OA
HETATM   23  H11         0      70.213  96.245  37.161  1.00  0.00     0.218 HD
ENDBRANCH  18  22
ENDBRANCH   4  14
BRANCH   8  24
HETATM   24  O17         0      74.844  94.084  28.049  1.00  0.00    -0.359 OA
HETATM   25  H17         0      73.984  94.159  27.653  1.00  0.00     0.218 HD
ENDBRANCH   8  24
TORSDOF 5
ENDMDL
MODEL 6
REMARK VINA RESULT:       0.0      7.311      8.653
REMARK  5 active torsions:
REMARK  status: ('A' for Active; 'I' for Inactive)
REMARK    1  A    between atoms: C4_4  and  C5_5 
REMARK    2  A    between atoms: C8_8  and  O9_9 
REMARK    3  A    between atoms: C10_11  and  O11_12 
REMARK    4  A    between atoms: C16_18  and  O17_19 
REMARK    5  A    between atoms: C19_22  and  O20_23 
ROOT
HETATM    1  O1          0      61.157 102.705  31.750  1.00  0.00    -0.286 OA
HETATM    2  C2          0      62.018 101.799  31.576  1.00  0.00     0.201 C 
HETATM    3  C3          0      62.764 101.686  30.414  1.00  0.00     0.067 C 
HETATM    4  C4          0      63.631 100.619  30.207  1.00  0.00     0.103 C 
HETATM    5  O13         0      63.756  99.708  31.156  1.00  0.00    -0.307 OA
HETATM    6  C14         0      63.044  99.748  32.261  1.00  0.00     0.107 C 
HETATM    7  C15         0      62.867  98.626  33.058  1.00  0.00     0.049 C 
HETATM    8  C16         0      61.919  98.604  34.073  1.00  0.00     0.093 C 
HETATM    9  C18         0      61.571  99.851  34.578  1.00  0.00     0.048 C 
HETATM   10  C19         0      61.778 101.000  33.827  1.00  0.00     0.096 C 
HETATM   11  C21         0      62.344 100.906  32.585  1.00  0.00     0.084 C 
ENDROOT
BRANCH  10  12
HETATM   12  O20         0      61.055 102.150  34.129  1.00  0.00    -0.359 OA
HETATM   13  H20         0      61.163 102.530  34.992  1.00  0.00     0.218 HD
ENDBRANCH  10  12
BRANCH   4  14
HETATM   14  C5          0      63.899 100.234  28.820  1.00  0.00     0.025 C 
HETATM   15  C6          0      64.263  98.946  28.455  1.00  0.00     0.004 C 
HETATM   16  C7          0      63.744  98.443  27.266  1.00  0.00     0.026 C 
HETATM   17  C8          0      62.998  99.237  26.402  1.00  0.00     0.112 C 
HETATM   18  C10         0      63.226 100.601  26.525  1.00  0.00     0.112 C 
HETATM   19  C12         0      63.663 101.088  27.751  1.00  0.00     0.028 C 
BRANCH  17  20
HETATM   20  O9          0      61.972  98.694  25.648  1.00  0.00    -0.357 OA
HETATM   21  H9          0      61.661  99.070  24.833  1.00  0.00     0.218 HD
ENDBRANCH  17  20
BRANCH  18  22
HETATM   22  O11         0      62.654 101.423  25.565  1.00  0.00    -0.357 OA
HETATM   23  H11         0      62.659 101.106  24.669  1.00  0.00     0.218 HD
ENDBRANCH  18  22
ENDBRANCH   4  14
BRANCH   8  24
HETATM   24  O17         0      61.141  97.467  34.320  1.00  0.00    -0.359 OA
HETATM   25  H17         0      60.460  97.463  34.982  1.00  0.00     0.218 HD
ENDBRANCH   8  24
TORSDOF 5
ENDMDL
MODEL 7
REMARK VINA RESULT:       0.0      6.181      7.088
REMARK  5 active torsions:
REMARK  status: ('A' for Active; 'I' for Inactive)
REMARK    1  A    between atoms: C4_4  and  C5_5 
REMARK    2  A    between atoms: C8_8  and  O9_9 
REMARK    3  A    between atoms: C10_11  and  O11_12 
REMARK    4  A    between atoms: C16_18  and  O17_19 
REMARK    5  A    between atoms: C19_22  and  O20_23 
ROOT
HETATM    1  O1          0      62.452 102.954  29.414  1.00  0.00    -0.286 OA
HETATM    2  C2          0      63.313 102.048  29.240  1.00  0.00     0.201 C 
HETATM    3  C3          0      64.058 101.935  28.078  1.00  0.00     0.067 C 
HETATM    4  C4          0      64.926 100.869  27.871  1.00  0.00     0.103 C 
HETATM    5  O13         0      65.050  99.958  28.820  1.00  0.00    -0.307 OA
HETATM    6  C14         0      64.339  99.998  29.925  1.00  0.00     0.107 C 
HETATM    7  C15         0      64.162  98.876  30.722  1.00  0.00     0.049 C 
HETATM    8  C16         0      63.213  98.854  31.737  1.00  0.00     0.093 C 
HETATM    9  C18         0      62.866 100.100  32.242  1.00  0.00     0.048 C 
HETATM   10  C19         0      63.072 101.249  31.491  1.00  0.00     0.096 C 
HETATM   11  C21         0      63.639 101.155  30.249  1.00  0.00     0.084 C 
ENDROOT
BRANCH  10  12
HETATM   12  O20         0      62.350 102.399  31.793  1.00  0.00    -0.359 OA
HETATM   13  H20         0      62.458 102.779  32.656  1.00  0.00     0.218 HD
ENDBRANCH  10  12
BRANCH   4  14
HETATM   14  C5          0      65.194 100.483  26.484  1.00  0.00     0.025 C 
HETATM   15  C6          0      65.557  99.195  26.119  1.00  0.00     0.004 C 
HETATM   16  C7          0      65.039  98.692  24.930  1.00  0.00     0.026 C 
HETATM   17  C8          0      64.293  99.486  24.066  1.00  0.00     0.112 C 
HETATM   18  C10         0      64.520 100.850  24.189  1.00  0.00     0.112 C 
HETATM   19  C12         0      64.958 101.338  25.415  1.00  0.00     0.028 C 
BRANCH  17  20
HETATM   20  O9          0      63.267  98.943  23.312  1.00  0.00    -0.357 OA
HETATM   21  H9          0      62.955  99.319  22.497  1.00  0.00     0.218 HD
ENDBRANCH  17  20
BRANCH  18  22
HETATM   22  O11         0      63.948 101.672  23.229  1.00  0.00    -0.357 OA
HETATM   23  H11         0      63.954 101.356  22.333  1.00  0.00     0.218 HD
ENDBRANCH  18  22
ENDBRANCH   4  14
BRANCH   8  24
HETATM   24  O17         0      62.436  97.717  31.984  1.00  0.00    -0.359 OA
HETATM   25  H17         0      61.754  97.712  32.646  1.00  0.00     0.218 HD
ENDBRANCH   8  24
TORSDOF 5
ENDMDL
MODEL 8
REMARK VINA RESULT:       0.0     12.219     14.341
REMARK  5 active torsions:
REMARK  status: ('A' for Active; 'I' for Inactive)
REMARK    1  A    between atoms: C4_4  and  C5_5 
REMARK    2  A    between atoms: C8_8  and  O9_9 
REMARK    3  A    between atoms: C10_11  and  O11_12 
REMARK    4  A    between atoms: C16_18  and  O17_19 
REMARK    5  A    between atoms: C19_22  and  O20_23 
ROOT
HETATM    1  O1          0      69.037  95.700  33.816  1.00  0.00    -0.286 OA
HETATM    2  C2          0      70.283  95.499  33.813  1.00  0.00     0.201 C 
HETATM    3  C3          0      70.923  94.743  34.780  1.00  0.00     0.067 C 
HETATM    4  C4          0      72.308  94.623  34.812  1.00  0.00     0.103 C 
HETATM    5  O13         0      73.020  95.232  33.880  1.00  0.00    -0.307 OA
HETATM    6  C14         0      72.465  95.992  32.962  1.00  0.00     0.107 C 
HETATM    7  C15         0      73.196  96.932  32.251  1.00  0.00     0.049 C 
HETATM    8  C16         0      72.569  97.899  31.475  1.00  0.00     0.093 C 
HETATM    9  C18         0      71.296  97.560  31.032  1.00  0.00     0.048 C 
HETATM   10  C19         0      70.554  96.590  31.692  1.00  0.00     0.096 C 
HETATM   11  C21         0      71.087  95.950  32.778  1.00  0.00     0.084 C 
ENDROOT
BRANCH  10  12
HETATM   12  O20         0      69.172  96.566  31.534  1.00  0.00    -0.359 OA
HETATM   13  H20         0      68.716  95.755  31.726  1.00  0.00     0.218 HD
ENDBRANCH  10  12
BRANCH   4  14
HETATM   14  C5          0      72.928  94.358  36.112  1.00  0.00     0.025 C 
HETATM   15  C6          0      74.228  94.735  36.416  1.00  0.00     0.004 C 
HETATM   16  C7          0      74.479  95.203  37.702  1.00  0.00     0.026 C 
HETATM   17  C8          0      73.505  95.172  38.693  1.00  0.00     0.112 C 
HETATM   18  C10         0      72.501  94.234  38.491  1.00  0.00     0.112 C 
HETATM   19  C12         0      72.212  93.847  37.187  1.00  0.00     0.028 C 
BRANCH  17  20
HETATM   20  O9          0      73.455  96.151  39.669  1.00  0.00    -0.357 OA
HETATM   21  H9          0      74.221  96.482  40.124  1.00  0.00     0.218 HD
ENDBRANCH  17  20
BRANCH  18  22
HETATM   22  O11         0      71.612  94.030  39.536  1.00  0.00    -0.357 OA
HETATM   23  H11         0      71.707  93.224  40.030  1.00  0.00     0.218 HD
ENDBRANCH  18  22
ENDBRANCH   4  14
BRANCH   8  24
HETATM   24  O17         0      73.036  99.217  31.433  1.00  0.00    -0.359 OA
HETATM   25  H17         0      73.491  99.608  32.169  1.00  0.00     0.218 HD
ENDBRANCH   8  24
TORSDOF 5
ENDMDL
MODEL 9
REMARK VINA RESULT:       0.0      4.017      5.283
REMARK  5 active torsions:
REMARK  status: ('A' for Active; 'I' for Inactive)
REMARK    1  A    between atoms: C4_4  and  C5_5 
REMARK    2  A    between atoms: C8_8  and  O9_9 
REMARK    3  A    between atoms: C10_11  and  O11_12 
REMARK    4  A    between atoms: C16_18  and  O17_19 
REMARK    5  A    between atoms: C19_22  and  O20_23 
ROOT
HETATM    1  O1          0      64.673  97.779  29.382  1.00  0.00    -0.286 OA
HETATM    2  C2          0      65.217  96.839  28.741  1.00  0.00     0.201 C 
HETATM    3  C3          0      66.563  96.535  28.852  1.00  0.00     0.067 C 
HETATM    4  C4          0      67.158  95.560  28.059  1.00  0.00     0.103 C 
HETATM    5  O13         0      66.407  94.900  27.195  1.00  0.00    -0.307 OA
HETATM    6  C14         0      65.132  95.175  27.023  1.00  0.00     0.107 C 
HETATM    7  C15         0      64.449  94.789  25.879  1.00  0.00     0.049 C 
HETATM    8  C16         0      63.188  95.295  25.586  1.00  0.00     0.093 C 
HETATM    9  C18         0      62.464  95.739  26.686  1.00  0.00     0.048 C 
HETATM   10  C19         0      63.112  96.088  27.863  1.00  0.00     0.096 C 
HETATM   11  C21         0      64.473  95.979  27.947  1.00  0.00     0.084 C 
ENDROOT
BRANCH  10  12
HETATM   12  O20         0      62.467  96.919  28.774  1.00  0.00    -0.359 OA
HETATM   13  H20         0      62.110  96.525  29.561  1.00  0.00     0.218 HD
ENDBRANCH  10  12
BRANCH   4  14
HETATM   14  C5          0      68.589  95.701  27.785  1.00  0.00     0.025 C 
HETATM   15  C6          0      69.191  95.184  26.648  1.00  0.00     0.004 C 
HETATM   16  C7          0      70.193  95.942  26.048  1.00  0.00     0.026 C 
HETATM   17  C8          0      70.674  97.108  26.633  1.00  0.00     0.112 C 
HETATM   18  C10         0      70.483  97.190  28.005  1.00  0.00     0.112 C 
HETATM   19  C12         0      69.422  96.490  28.568  1.00  0.00     0.028 C 
BRANCH  17  20
HETATM   20  O9          0      71.105  98.167  25.852  1.00  0.00    -0.357 OA
HETATM   21  H9          0      70.606  98.526  25.128  1.00  0.00     0.218 HD
ENDBRANCH  17  20
BRANCH  18  22
HETATM   22  O11         0      71.107  98.239  28.665  1.00  0.00    -0.357 OA
HETATM   23  H11         0      72.058  98.246  28.660  1.00  0.00     0.218 HD
ENDBRANCH  18  22
ENDBRANCH   4  14
BRANCH   8  24
HETATM   24  O17         0      62.826  95.639  24.279  1.00  0.00    -0.359 OA
HETATM   25  H17         0      62.784  94.991  23.586  1.00  0.00     0.218 HD
ENDBRANCH   8  24
TORSDOF 5
ENDMDL
