MODEL 1
REMARK VINA RESULT:      -0.0      0.000      0.000
REMARK  5 active torsions:
REMARK  status: ('A' for Active; 'I' for Inactive)
REMARK    1  A    between atoms: C4_4  and  C5_5 
REMARK    2  A    between atoms: C8_8  and  O9_9 
REMARK    3  A    between atoms: C10_11  and  O11_12 
REMARK    4  A    between atoms: C16_18  and  O17_19 
REMARK    5  A    between atoms: C19_22  and  O20_23 
ROOT
HETATM    1  O1          0      15.675 115.771 -21.271  1.00  0.00    -0.286 OA
HETATM    2  C2          0      14.606 116.218 -21.771  1.00  0.00     0.201 C 
HETATM    3  C3          0      13.384 115.588 -21.615  1.00  0.00     0.067 C 
HETATM    4  C4          0      12.240 116.045 -22.261  1.00  0.00     0.103 C 
HETATM    5  O13         0      12.329 117.120 -23.024  1.00  0.00    -0.307 OA
HETATM    6  C14         0      13.473 117.734 -23.236  1.00  0.00     0.107 C 
HETATM    7  C15         0      13.656 118.586 -24.315  1.00  0.00     0.049 C 
HETATM    8  C16         0      14.922 119.028 -24.679  1.00  0.00     0.093 C 
HETATM    9  C18         0      15.861 119.027 -23.655  1.00  0.00     0.048 C 
HETATM   10  C19         0      15.686 118.220 -22.538  1.00  0.00     0.096 C 
HETATM   11  C21         0      14.571 117.434 -22.437  1.00  0.00     0.084 C 
ENDROOT
BRANCH  10  12
HETATM   12  O20         0      16.789 117.893 -21.756  1.00  0.00    -0.359 OA
HETATM   13  H20         0      17.388 117.234 -22.086  1.00  0.00     0.218 HD
ENDBRANCH  10  12
BRANCH   4  14
HETATM   14  C5          0      11.195 115.061 -22.549  1.00  0.00     0.025 C 
HETATM   15  C6          0      10.301 115.200 -23.601  1.00  0.00     0.004 C 
HETATM   16  C7          0       9.945 114.051 -24.300  1.00  0.00     0.026 C 
HETATM   17  C8          0      10.356 112.788 -23.886  1.00  0.00     0.112 C 
HETATM   18  C10         0      10.681 112.697 -22.539  1.00  0.00     0.112 C 
HETATM   19  C12         0      11.116 113.843 -21.885  1.00  0.00     0.028 C 
BRANCH  17  20
HETATM   20  O9          0      10.613 111.789 -24.808  1.00  0.00    -0.357 OA
HETATM   21  H9          0      10.481 110.864 -24.635  1.00  0.00     0.218 HD
ENDBRANCH  17  20
BRANCH  18  22
HETATM   22  O11         0      10.914 111.425 -22.034  1.00  0.00    -0.357 OA
HETATM   23  H11         0      11.622 111.335 -21.407  1.00  0.00     0.218 HD
ENDBRANCH  18  22
ENDBRANCH   4  14
BRANCH   8  24
HETATM   24  O17         0      15.299 119.136 -26.022  1.00  0.00    -0.359 OA
HETATM   25  H17         0      15.109 118.449 -26.650  1.00  0.00     0.218 HD
ENDBRANCH   8  24
TORSDOF 5
ENDMDL
MODEL 2
REMARK VINA RESULT:      -0.0      2.038      2.202
REMARK  5 active torsions:
REMARK  status: ('A' for Active; 'I' for Inactive)
REMARK    1  A    between atoms: C4_4  and  C5_5 
REMARK    2  A    between atoms: C8_8  and  O9_9 
REMARK    3  A    between atoms: C10_11  and  O11_12 
REMARK    4  A    between atoms: C16_18  and  O17_19 
REMARK    5  A    between atoms: C19_22  and  O20_23 
ROOT
HETATM    1  O1          0      14.656 117.676 -20.845  1.00  0.00    -0.286 OA
HETATM    2  C2          0      13.588 118.123 -21.344  1.00  0.00     0.201 C 
HETATM    3  C3          0      12.365 117.493 -21.188  1.00  0.00     0.067 C 
HETATM    4  C4          0      11.222 117.950 -21.834  1.00  0.00     0.103 C 
HETATM    5  O13         0      11.311 119.025 -22.597  1.00  0.00    -0.307 OA
HETATM    6  C14         0      12.454 119.639 -22.809  1.00  0.00     0.107 C 
HETATM    7  C15         0      12.637 120.492 -23.888  1.00  0.00     0.049 C 
HETATM    8  C16         0      13.903 120.934 -24.252  1.00  0.00     0.093 C 
HETATM    9  C18         0      14.843 120.932 -23.228  1.00  0.00     0.048 C 
HETATM   10  C19         0      14.667 120.126 -22.111  1.00  0.00     0.096 C 
HETATM   11  C21         0      13.552 119.339 -22.010  1.00  0.00     0.084 C 
ENDROOT
BRANCH  10  12
HETATM   12  O20         0      15.770 119.798 -21.329  1.00  0.00    -0.359 OA
HETATM   13  H20         0      16.370 119.139 -21.659  1.00  0.00     0.218 HD
ENDBRANCH  10  12
BRANCH   4  14
HETATM   14  C5          0      10.176 116.966 -22.122  1.00  0.00     0.025 C 
HETATM   15  C6          0       9.282 117.105 -23.174  1.00  0.00     0.004 C 
HETATM   16  C7          0       8.926 115.956 -23.873  1.00  0.00     0.026 C 
HETATM   17  C8          0       9.338 114.693 -23.459  1.00  0.00     0.112 C 
HETATM   18  C10         0       9.662 114.602 -22.112  1.00  0.00     0.112 C 
HETATM   19  C12         0      10.097 115.749 -21.458  1.00  0.00     0.028 C 
BRANCH  17  20
HETATM   20  O9          0       9.595 113.694 -24.381  1.00  0.00    -0.357 OA
HETATM   21  H9          0       9.462 112.769 -24.208  1.00  0.00     0.218 HD
ENDBRANCH  17  20
BRANCH  18  22
HETATM   22  O11         0       9.896 113.331 -21.607  1.00  0.00    -0.357 OA
HETATM   23  H11         0      10.604 113.241 -20.980  1.00  0.00     0.218 HD
ENDBRANCH  18  22
ENDBRANCH   4  14
BRANCH   8  24
HETATM   24  O17         0      14.280 121.041 -25.596  1.00  0.00    -0.359 OA
HETATM   25  H17         0      14.090 120.354 -26.224  1.00  0.00     0.218 HD
ENDBRANCH   8  24
TORSDOF 5
ENDMDL
MODEL 3
REMARK VINA RESULT:      -0.0      3.331      4.512
REMARK  5 active torsions:
REMARK  status: ('A' for Active; 'I' for Inactive)
REMARK    1  A    between atoms: C4_4  and  C5_5 
REMARK    2  A    between atoms: C8_8  and  O9_9 
REMARK    3  A    between atoms: C10_11  and  O11_12 
REMARK    4  A    between atoms: C16_18  and  O17_19 
REMARK    5  A    between atoms: C19_22  and  O20_23 
ROOT
HETATM    1  O1          0      13.621 119.331 -24.601  1.00  0.00    -0.286 OA
HETATM    2  C2          0      13.336 119.424 -23.376  1.00  0.00     0.201 C 
HETATM    3  C3          0      13.436 118.358 -22.499  1.00  0.00     0.067 C 
HETATM    4  C4          0      13.018 118.460 -21.176  1.00  0.00     0.103 C 
HETATM    5  O13         0      12.534 119.614 -20.751  1.00  0.00    -0.307 OA
HETATM    6  C14         0      12.383 120.646 -21.552  1.00  0.00     0.107 C 
HETATM    7  C15         0      11.532 121.696 -21.238  1.00  0.00     0.049 C 
HETATM    8  C16         0      11.182 122.649 -22.187  1.00  0.00     0.093 C 
HETATM    9  C18         0      12.093 122.807 -23.224  1.00  0.00     0.048 C 
HETATM   10  C19         0      12.990 121.795 -23.535  1.00  0.00     0.096 C 
HETATM   11  C21         0      12.990 120.639 -22.803  1.00  0.00     0.084 C 
ENDROOT
BRANCH  10  12
HETATM   12  O20         0      13.575 121.767 -24.797  1.00  0.00    -0.359 OA
HETATM   13  H20         0      13.411 121.011 -25.347  1.00  0.00     0.218 HD
ENDBRANCH  10  12
BRANCH   4  14
HETATM   14  C5          0      12.588 117.228 -20.512  1.00  0.00     0.025 C 
HETATM   15  C6          0      11.680 117.217 -19.463  1.00  0.00     0.004 C 
HETATM   16  C7          0      10.756 116.178 -19.423  1.00  0.00     0.026 C 
HETATM   17  C8          0      10.814 115.114 -20.316  1.00  0.00     0.112 C 
HETATM   18  C10         0      12.067 114.893 -20.874  1.00  0.00     0.112 C 
HETATM   19  C12         0      12.941 115.969 -20.980  1.00  0.00     0.028 C 
BRANCH  17  20
HETATM   20  O9          0       9.659 114.488 -20.750  1.00  0.00    -0.357 OA
HETATM   21  H9          0       8.954 114.222 -20.172  1.00  0.00     0.218 HD
ENDBRANCH  17  20
BRANCH  18  22
HETATM   22  O11         0      12.226 113.736 -21.622  1.00  0.00    -0.357 OA
HETATM   23  H11         0      11.754 112.965 -21.328  1.00  0.00     0.218 HD
ENDBRANCH  18  22
ENDBRANCH   4  14
BRANCH   8  24
HETATM   24  O17         0       9.878 123.151 -22.270  1.00  0.00    -0.359 OA
HETATM   25  H17         0       9.672 123.924 -22.781  1.00  0.00     0.218 HD
ENDBRANCH   8  24
TORSDOF 5
ENDMDL
MODEL 4
REMARK VINA RESULT:      -0.0      7.305      8.971
REMARK  5 active torsions:
REMARK  status: ('A' for Active; 'I' for Inactive)
REMARK    1  A    between atoms: C4_4  and  C5_5 
REMARK    2  A    between atoms: C8_8  and  O9_9 
REMARK    3  A    between atoms: C10_11  and  O11_12 
REMARK    4  A    between atoms: C16_18  and  O17_19 
REMARK    5  A    between atoms: C19_22  and  O20_23 
ROOT
HETATM    1  O1          0      13.728 120.275 -19.255  1.00  0.00    -0.286 OA
HETATM    2  C2          0      13.716 121.520 -19.050  1.00  0.00     0.201 C 
HETATM    3  C3          0      12.621 122.182 -18.521  1.00  0.00     0.067 C 
HETATM    4  C4          0      12.596 123.567 -18.401  1.00  0.00     0.103 C 
HETATM    5  O13         0      13.656 124.257 -18.784  1.00  0.00    -0.307 OA
HETATM    6  C14         0      14.706 123.681 -19.327  1.00  0.00     0.107 C 
HETATM    7  C15         0      15.624 124.397 -20.082  1.00  0.00     0.049 C 
HETATM    8  C16         0      16.579 123.752 -20.858  1.00  0.00     0.093 C 
HETATM    9  C18         0      16.907 122.468 -20.439  1.00  0.00     0.048 C 
HETATM   10  C19         0      16.031 121.741 -19.644  1.00  0.00     0.096 C 
HETATM   11  C21         0      14.844 122.299 -19.255  1.00  0.00     0.084 C 
ENDROOT
BRANCH  10  12
HETATM   12  O20         0      16.148 120.355 -19.595  1.00  0.00    -0.359 OA
HETATM   13  H20         0      16.507 119.912 -20.354  1.00  0.00     0.218 HD
ENDBRANCH  10  12
BRANCH   4  14
HETATM   14  C5          0      11.285 124.218 -18.425  1.00  0.00     0.025 C 
HETATM   15  C6          0      11.102 125.526 -18.850  1.00  0.00     0.004 C 
HETATM   16  C7          0       9.958 125.810 -19.588  1.00  0.00     0.026 C 
HETATM   17  C8          0       8.961 124.859 -19.784  1.00  0.00     0.112 C 
HETATM   18  C10         0       8.928 123.850 -18.832  1.00  0.00     0.112 C 
HETATM   19  C12         0      10.107 123.528 -18.169  1.00  0.00     0.028 C 
BRANCH  17  20
HETATM   20  O9          0       8.225 124.836 -20.955  1.00  0.00    -0.357 OA
HETATM   21  H9          0       7.877 125.614 -21.376  1.00  0.00     0.218 HD
ENDBRANCH  17  20
BRANCH  18  22
HETATM   22  O11         0       7.843 122.985 -18.870  1.00  0.00    -0.357 OA
HETATM   23  H11         0       7.947 122.146 -18.438  1.00  0.00     0.218 HD
ENDBRANCH  18  22
ENDBRANCH   4  14
BRANCH   8  24
HETATM   24  O17         0      16.921 124.220 -22.132  1.00  0.00    -0.359 OA
HETATM   25  H17         0      17.457 123.707 -22.725  1.00  0.00     0.218 HD
ENDBRANCH   8  24
TORSDOF 5
ENDMDL
MODEL 5
REMARK VINA RESULT:      -0.0      6.260      7.271
REMARK  5 active torsions:
REMARK  status: ('A' for Active; 'I' for Inactive)
REMARK    1  A    between atoms: C4_4  and  C5_5 
REMARK    2  A    between atoms: C8_8  and  O9_9 
REMARK    3  A    between atoms: C10_11  and  O11_12 
REMARK    4  A    between atoms: C16_18  and  O17_19 
REMARK    5  A    between atoms: C19_22  and  O20_23 
ROOT
HETATM    1  O1          0      13.547 118.716 -19.236  1.00  0.00    -0.286 OA
HETATM    2  C2          0      13.439 119.973 -19.259  1.00  0.00     0.201 C 
HETATM    3  C3          0      12.219 120.619 -19.356  1.00  0.00     0.067 C 
HETATM    4  C4          0      12.135 122.001 -19.482  1.00  0.00     0.103 C 
HETATM    5  O13         0      13.252 122.707 -19.489  1.00  0.00    -0.307 OA
HETATM    6  C14         0      14.437 122.141 -19.438  1.00  0.00     0.107 C 
HETATM    7  C15         0      15.585 122.809 -19.840  1.00  0.00     0.049 C 
HETATM    8  C16         0      16.785 122.134 -20.025  1.00  0.00     0.093 C 
HETATM    9  C18         0      16.911 120.951 -19.306  1.00  0.00     0.048 C 
HETATM   10  C19         0      15.785 120.281 -18.848  1.00  0.00     0.096 C 
HETATM   11  C21         0      14.541 120.798 -19.092  1.00  0.00     0.084 C 
ENDROOT
BRANCH  10  12
HETATM   12  O20         0      15.879 118.929 -18.532  1.00  0.00    -0.359 OA
HETATM   13  H20         0      15.105 118.390 -18.646  1.00  0.00     0.218 HD
ENDBRANCH  10  12
BRANCH   4  14
HETATM   14  C5          0      10.956 122.541 -20.162  1.00  0.00     0.025 C 
HETATM   15  C6          0      10.963 123.757 -20.829  1.00  0.00     0.004 C 
HETATM   16  C7          0      10.243 123.846 -22.016  1.00  0.00     0.026 C 
HETATM   17  C8          0       9.434 122.805 -22.458  1.00  0.00     0.112 C 
HETATM   18  C10         0       9.003 121.941 -21.459  1.00  0.00     0.112 C 
HETATM   19  C12         0       9.786 121.808 -20.319  1.00  0.00     0.028 C 
BRANCH  17  20
HETATM   20  O9          0       9.270 122.559 -23.810  1.00  0.00    -0.357 OA
HETATM   21  H9          0       9.984 122.340 -24.397  1.00  0.00     0.218 HD
ENDBRANCH  17  20
BRANCH  18  22
HETATM   22  O11         0       8.045 121.001 -21.811  1.00  0.00    -0.357 OA
HETATM   23  H11         0       8.354 120.217 -22.251  1.00  0.00     0.218 HD
ENDBRANCH  18  22
ENDBRANCH   4  14
BRANCH   8  24
HETATM   24  O17         0      17.636 122.440 -21.093  1.00  0.00    -0.359 OA
HETATM   25  H17         0      17.298 122.692 -21.944  1.00  0.00     0.218 HD
ENDBRANCH   8  24
TORSDOF 5
ENDMDL
MODEL 6
REMARK VINA RESULT:       0.0      4.775      7.923
REMARK  5 active torsions:
REMARK  status: ('A' for Active; 'I' for Inactive)
REMARK    1  A    between atoms: C4_4  and  C5_5 
REMARK    2  A    between atoms: C8_8  and  O9_9 
REMARK    3  A    between atoms: C10_11  and  O11_12 
REMARK    4  A    between atoms: C16_18  and  O17_19 
REMARK    5  A    between atoms: C19_22  and  O20_23 
ROOT
HETATM    1  O1          0       6.281 118.549 -20.706  1.00  0.00    -0.286 OA
HETATM    2  C2          0       7.411 117.997 -20.610  1.00  0.00     0.201 C 
HETATM    3  C3          0       8.348 118.365 -19.659  1.00  0.00     0.067 C 
HETATM    4  C4          0       9.623 117.812 -19.640  1.00  0.00     0.103 C 
HETATM    5  O13         0       9.932 116.898 -20.544  1.00  0.00    -0.307 OA
HETATM    6  C14         0       9.093 116.540 -21.491  1.00  0.00     0.107 C 
HETATM    7  C15         0       9.524 115.907 -22.648  1.00  0.00     0.049 C 
HETATM    8  C16         0       8.685 115.761 -23.746  1.00  0.00     0.093 C 
HETATM    9  C18         0       7.327 115.778 -23.453  1.00  0.00     0.048 C 
HETATM   10  C19         0       6.865 116.361 -22.281  1.00  0.00     0.096 C 
HETATM   11  C21         0       7.756 116.909 -21.398  1.00  0.00     0.084 C 
ENDROOT
BRANCH  10  12
HETATM   12  O20         0       5.535 116.761 -22.198  1.00  0.00    -0.359 OA
HETATM   13  H20         0       5.322 117.482 -21.617  1.00  0.00     0.218 HD
ENDBRANCH  10  12
BRANCH   4  14
HETATM   14  C5          0      10.697 118.623 -19.062  1.00  0.00     0.025 C 
HETATM   15  C6          0      12.026 118.485 -19.434  1.00  0.00     0.004 C 
HETATM   16  C7          0      12.791 119.643 -19.531  1.00  0.00     0.026 C 
HETATM   17  C8          0      12.292 120.882 -19.143  1.00  0.00     0.112 C 
HETATM   18  C10         0      11.249 120.826 -18.229  1.00  0.00     0.112 C 
HETATM   19  C12         0      10.446 119.691 -18.211  1.00  0.00     0.028 C 
BRANCH  17  20
HETATM   20  O9          0      12.681 122.039 -19.795  1.00  0.00    -0.357 OA
HETATM   21  H9          0      12.192 122.434 -20.507  1.00  0.00     0.218 HD
ENDBRANCH  17  20
BRANCH  18  22
HETATM   22  O11         0      10.841 122.027 -17.667  1.00  0.00    -0.357 OA
HETATM   23  H11         0      10.403 122.645 -18.242  1.00  0.00     0.218 HD
ENDBRANCH  18  22
ENDBRANCH   4  14
BRANCH   8  24
HETATM   24  O17         0       9.158 115.928 -25.052  1.00  0.00    -0.359 OA
HETATM   25  H17         0       9.138 116.772 -25.487  1.00  0.00     0.218 HD
ENDBRANCH   8  24
TORSDOF 5
ENDMDL
MODEL 7
REMARK VINA RESULT:       0.0      3.893      7.571
REMARK  5 active torsions:
REMARK  status: ('A' for Active; 'I' for Inactive)
REMARK    1  A    between atoms: C4_4  and  C5_5 
REMARK    2  A    between atoms: C8_8  and  O9_9 
REMARK    3  A    between atoms: C10_11  and  O11_12 
REMARK    4  A    between atoms: C16_18  and  O17_19 
REMARK    5  A    between atoms: C19_22  and  O20_23 
ROOT
HETATM    1  O1          0       9.638 119.251 -24.069  1.00  0.00    -0.286 OA
HETATM    2  C2          0      10.787 119.212 -23.548  1.00  0.00     0.201 C 
HETATM    3  C3          0      11.257 120.195 -22.695  1.00  0.00     0.067 C 
HETATM    4  C4          0      12.562 120.181 -22.216  1.00  0.00     0.103 C 
HETATM    5  O13         0      13.359 119.189 -22.573  1.00  0.00    -0.307 OA
HETATM    6  C14         0      12.974 118.250 -23.410  1.00  0.00     0.107 C 
HETATM    7  C15         0      13.887 117.459 -24.091  1.00  0.00     0.049 C 
HETATM    8  C16         0      13.494 116.653 -25.153  1.00  0.00     0.093 C 
HETATM    9  C18         0      12.155 116.280 -25.141  1.00  0.00     0.048 C 
HETATM   10  C19         0      11.222 117.023 -24.432  1.00  0.00     0.096 C 
HETATM   11  C21         0      11.625 118.122 -23.724  1.00  0.00     0.084 C 
ENDROOT
BRANCH  10  12
HETATM   12  O20         0       9.875 116.919 -24.765  1.00  0.00    -0.359 OA
HETATM   13  H20         0       9.552 117.449 -25.484  1.00  0.00     0.218 HD
ENDBRANCH  10  12
BRANCH   4  14
HETATM   14  C5          0      13.158 121.469 -21.857  1.00  0.00     0.025 C 
HETATM   15  C6          0      14.526 121.701 -21.892  1.00  0.00     0.004 C 
HETATM   16  C7          0      14.958 122.947 -22.335  1.00  0.00     0.026 C 
HETATM   17  C8          0      14.062 123.975 -22.606  1.00  0.00     0.112 C 
HETATM   18  C10         0      12.839 123.865 -21.957  1.00  0.00     0.112 C 
HETATM   19  C12         0      12.392 122.599 -21.601  1.00  0.00     0.028 C 
BRANCH  17  20
HETATM   20  O9          0      14.320 124.894 -23.607  1.00  0.00    -0.357 OA
HETATM   21  H9          0      14.908 125.634 -23.506  1.00  0.00     0.218 HD
ENDBRANCH  17  20
BRANCH  18  22
HETATM   22  O11         0      11.983 124.954 -22.042  1.00  0.00    -0.357 OA
HETATM   23  H11         0      12.292 125.707 -22.532  1.00  0.00     0.218 HD
ENDBRANCH  18  22
ENDBRANCH   4  14
BRANCH   8  24
HETATM   24  O17         0      14.286 116.518 -26.299  1.00  0.00    -0.359 OA
HETATM   25  H17         0      14.101 115.860 -26.958  1.00  0.00     0.218 HD
ENDBRANCH   8  24
TORSDOF 5
ENDMDL
MODEL 8
REMARK VINA RESULT:       0.0      8.869     11.413
REMARK  5 active torsions:
REMARK  status: ('A' for Active; 'I' for Inactive)
REMARK    1  A    between atoms: C4_4  and  C5_5 
REMARK    2  A    between atoms: C8_8  and  O9_9 
REMARK    3  A    between atoms: C10_11  and  O11_12 
REMARK    4  A    between atoms: C16_18  and  O17_19 
REMARK    5  A    between atoms: C19_22  and  O20_23 
ROOT
HETATM    1  O1          0       8.627 120.787 -18.746  1.00  0.00    -0.286 OA
HETATM    2  C2          0       8.019 121.282 -19.734  1.00  0.00     0.201 C 
HETATM    3  C3          0       8.412 122.462 -20.342  1.00  0.00     0.067 C 
HETATM    4  C4          0       7.666 123.039 -21.363  1.00  0.00     0.103 C 
HETATM    5  O13         0       6.566 122.428 -21.769  1.00  0.00    -0.307 OA
HETATM    6  C14         0       6.129 121.326 -21.200  1.00  0.00     0.107 C 
HETATM    7  C15         0       4.812 120.908 -21.334  1.00  0.00     0.049 C 
HETATM    8  C16         0       4.292 119.897 -20.535  1.00  0.00     0.093 C 
HETATM    9  C18         0       5.232 119.011 -20.023  1.00  0.00     0.048 C 
HETATM   10  C19         0       6.566 119.380 -19.919  1.00  0.00     0.096 C 
HETATM   11  C21         0       6.962 120.620 -20.340  1.00  0.00     0.084 C 
ENDROOT
BRANCH  10  12
HETATM   12  O20         0       7.395 118.695 -19.035  1.00  0.00    -0.359 OA
HETATM   13  H20         0       7.174 118.716 -18.112  1.00  0.00     0.218 HD
ENDBRANCH  10  12
BRANCH   4  14
HETATM   14  C5          0       7.768 124.490 -21.530  1.00  0.00     0.025 C 
HETATM   15  C6          0       6.752 125.257 -22.082  1.00  0.00     0.004 C 
HETATM   16  C7          0       6.518 126.512 -21.528  1.00  0.00     0.026 C 
HETATM   17  C8          0       7.350 127.043 -20.548  1.00  0.00     0.112 C 
HETATM   18  C10         0       8.634 126.516 -20.529  1.00  0.00     0.112 C 
HETATM   19  C12         0       8.826 125.226 -21.011  1.00  0.00     0.028 C 
BRANCH  17  20
HETATM   20  O9          0       6.844 127.867 -19.559  1.00  0.00    -0.357 OA
HETATM   21  H9          0       6.004 128.308 -19.618  1.00  0.00     0.218 HD
ENDBRANCH  17  20
BRANCH  18  22
HETATM   22  O11         0       9.558 127.139 -19.702  1.00  0.00    -0.357 OA
HETATM   23  H11         0       9.478 126.977 -18.769  1.00  0.00     0.218 HD
ENDBRANCH  18  22
ENDBRANCH   4  14
BRANCH   8  24
HETATM   24  O17         0       2.993 119.970 -20.020  1.00  0.00    -0.359 OA
HETATM   25  H17         0       2.513 120.790 -19.990  1.00  0.00     0.218 HD
ENDBRANCH   8  24
TORSDOF 5
ENDMDL
MODEL 9
REMARK VINA RESULT:       0.0      4.403      5.881
REMARK  5 active torsions:
REMARK  status: ('A' for Active; 'I' for Inactive)
REMARK    1  A    between atoms: C4_4  and  C5_5 
REMARK    2  A    between atoms: C8_8  and  O9_9 
REMARK    3  A    between atoms: C10_11  and  O11_12 
REMARK    4  A    between atoms: C16_18  and  O17_19 
REMARK    5  A    between atoms: C19_22  and  O20_23 
ROOT
HETATM    1  O1          0      19.216 113.823 -24.257  1.00  0.00    -0.286 OA
HETATM    2  C2          0      18.247 114.537 -24.636  1.00  0.00     0.201 C 
HETATM    3  C3          0      17.677 115.513 -23.838  1.00  0.00     0.067 C 
HETATM    4  C4          0      16.545 116.214 -24.240  1.00  0.00     0.103 C 
HETATM    5  O13         0      16.021 115.948 -25.424  1.00  0.00    -0.307 OA
HETATM    6  C14         0      16.501 115.005 -26.205  1.00  0.00     0.107 C 
HETATM    7  C15         0      15.749 114.453 -27.231  1.00  0.00     0.049 C 
HETATM    8  C16         0      16.157 113.295 -27.883  1.00  0.00     0.093 C 
HETATM    9  C18         0      17.524 113.049 -27.841  1.00  0.00     0.048 C 
HETATM   10  C19         0      18.314 113.623 -26.855  1.00  0.00     0.096 C 
HETATM   11  C21         0      17.746 114.451 -25.926  1.00  0.00     0.084 C 
ENDROOT
BRANCH  10  12
HETATM   12  O20         0      19.546 113.051 -26.553  1.00  0.00    -0.359 OA
HETATM   13  H20         0      19.926 112.452 -27.184  1.00  0.00     0.218 HD
ENDBRANCH  10  12
BRANCH   4  14
HETATM   14  C5          0      15.676 116.744 -23.188  1.00  0.00     0.025 C 
HETATM   15  C6          0      14.319 116.965 -23.374  1.00  0.00     0.004 C 
HETATM   16  C7          0      13.468 116.676 -22.312  1.00  0.00     0.026 C 
HETATM   17  C8          0      13.958 116.308 -21.063  1.00  0.00     0.112 C 
HETATM   18  C10         0      15.257 116.724 -20.805  1.00  0.00     0.112 C 
HETATM   19  C12         0      16.113 116.923 -21.882  1.00  0.00     0.028 C 
BRANCH  17  20
HETATM   20  O9          0      13.261 115.421 -20.261  1.00  0.00    -0.357 OA
HETATM   21  H9          0      13.424 115.311 -19.332  1.00  0.00     0.218 HD
ENDBRANCH  17  20
BRANCH  18  22
HETATM   22  O11         0      15.727 116.550 -19.511  1.00  0.00    -0.357 OA
HETATM   23  H11         0      15.349 115.838 -19.008  1.00  0.00     0.218 HD
ENDBRANCH  18  22
ENDBRANCH   4  14
BRANCH   8  24
HETATM   24  O17         0      15.241 112.302 -28.246  1.00  0.00    -0.359 OA
HETATM   25  H17         0      14.590 111.975 -27.635  1.00  0.00     0.218 HD
ENDBRANCH   8  24
TORSDOF 5
ENDMDL
