MODEL 1
REMARK VINA RESULT:      -0.4      0.000      0.000
REMARK  5 active torsions:
REMARK  status: ('A' for Active; 'I' for Inactive)
REMARK    1  A    between atoms: C4_4  and  C5_5 
REMARK    2  A    between atoms: C8_8  and  O9_9 
REMARK    3  A    between atoms: C10_11  and  O11_12 
REMARK    4  A    between atoms: C16_18  and  O17_19 
REMARK    5  A    between atoms: C19_22  and  O20_23 
ROOT
HETATM    1  O1          0      18.898 113.542  -4.817  1.00  0.00    -0.286 OA
HETATM    2  C2          0      19.323 113.267  -3.662  1.00  0.00     0.201 C 
HETATM    3  C3          0      19.759 112.003  -3.304  1.00  0.00     0.067 C 
HETATM    4  C4          0      20.125 111.701  -1.997  1.00  0.00     0.103 C 
HETATM    5  O13         0      20.071 112.656  -1.086  1.00  0.00    -0.307 OA
HETATM    6  C14         0      19.629 113.863  -1.364  1.00  0.00     0.107 C 
HETATM    7  C15         0      19.195 114.729  -0.371  1.00  0.00     0.049 C 
HETATM    8  C16         0      18.498 115.891  -0.681  1.00  0.00     0.093 C 
HETATM    9  C18         0      18.726 116.390  -1.958  1.00  0.00     0.048 C 
HETATM   10  C19         0      19.204 115.561  -2.963  1.00  0.00     0.096 C 
HETATM   11  C21         0      19.469 114.246  -2.691  1.00  0.00     0.084 C 
ENDROOT
BRANCH  10  12
HETATM   12  O20         0      19.017 115.927  -4.293  1.00  0.00    -0.359 OA
HETATM   13  H20         0      19.126 115.258  -4.958  1.00  0.00     0.218 HD
ENDBRANCH  10  12
BRANCH   4  14
HETATM   14  C5          0      19.986 110.308  -1.567  1.00  0.00     0.025 C 
HETATM   15  C6          0      19.894 109.939  -0.233  1.00  0.00     0.004 C 
HETATM   16  C7          0      19.025 108.902   0.091  1.00  0.00     0.026 C 
HETATM   17  C8          0      18.368 108.167  -0.891  1.00  0.00     0.112 C 
HETATM   18  C10         0      18.986 108.179  -2.134  1.00  0.00     0.112 C 
HETATM   19  C12         0      19.783 109.268  -2.466  1.00  0.00     0.028 C 
BRANCH  17  20
HETATM   20  O9          0      17.101 107.659  -0.668  1.00  0.00    -0.357 OA
HETATM   21  H9          0      16.744 106.909  -1.129  1.00  0.00     0.218 HD
ENDBRANCH  17  20
BRANCH  18  22
HETATM   22  O11         0      18.482 107.314  -3.095  1.00  0.00    -0.357 OA
HETATM   23  H11         0      19.104 106.741  -3.527  1.00  0.00     0.218 HD
ENDBRANCH  18  22
ENDBRANCH   4  14
BRANCH   8  24
HETATM   24  O17         0      17.414 116.320   0.094  1.00  0.00    -0.359 OA
HETATM   25  H17         0      17.402 117.176   0.505  1.00  0.00     0.218 HD
ENDBRANCH   8  24
TORSDOF 5
ENDMDL
MODEL 2
REMARK VINA RESULT:      -0.3      3.952      6.430
REMARK  5 active torsions:
REMARK  status: ('A' for Active; 'I' for Inactive)
REMARK    1  A    between atoms: C4_4  and  C5_5 
REMARK    2  A    between atoms: C8_8  and  O9_9 
REMARK    3  A    between atoms: C10_11  and  O11_12 
REMARK    4  A    between atoms: C16_18  and  O17_19 
REMARK    5  A    between atoms: C19_22  and  O20_23 
ROOT
HETATM    1  O1          0      17.863 107.478  -4.536  1.00  0.00    -0.286 OA
HETATM    2  C2          0      18.426 106.993  -3.517  1.00  0.00     0.201 C 
HETATM    3  C3          0      18.237 105.684  -3.106  1.00  0.00     0.067 C 
HETATM    4  C4          0      18.788 105.205  -1.923  1.00  0.00     0.103 C 
HETATM    5  O13         0      19.526 106.021  -1.190  1.00  0.00    -0.307 OA
HETATM    6  C14         0      19.706 107.282  -1.515  1.00  0.00     0.107 C 
HETATM    7  C15         0      20.122 108.224  -0.586  1.00  0.00     0.049 C 
HETATM    8  C16         0      20.066 109.585  -0.863  1.00  0.00     0.093 C 
HETATM    9  C18         0      20.098 109.911  -2.213  1.00  0.00     0.048 C 
HETATM   10  C19         0      19.733 108.977  -3.173  1.00  0.00     0.096 C 
HETATM   11  C21         0      19.355 107.720  -2.788  1.00  0.00     0.084 C 
ENDROOT
BRANCH  10  12
HETATM   12  O20         0      19.351 109.414  -4.438  1.00  0.00    -0.359 OA
HETATM   13  H20         0      18.585 109.016  -4.834  1.00  0.00     0.218 HD
ENDBRANCH  10  12
BRANCH   4  14
HETATM   14  C5          0      18.097 104.096  -1.263  1.00  0.00     0.025 C 
HETATM   15  C6          0      17.441 104.234  -0.049  1.00  0.00     0.004 C 
HETATM   16  C7          0      16.245 103.543   0.120  1.00  0.00     0.026 C 
HETATM   17  C8          0      15.784 102.641  -0.831  1.00  0.00     0.112 C 
HETATM   18  C10         0      16.769 102.112  -1.655  1.00  0.00     0.112 C 
HETATM   19  C12         0      17.918 102.861  -1.874  1.00  0.00     0.028 C 
BRANCH  17  20
HETATM   20  O9          0      14.428 102.472  -1.050  1.00  0.00    -0.357 OA
HETATM   21  H9          0      13.971 101.649  -0.923  1.00  0.00     0.218 HD
ENDBRANCH  17  20
BRANCH  18  22
HETATM   22  O11         0      16.396 101.070  -2.492  1.00  0.00    -0.357 OA
HETATM   23  H11         0      15.466 100.960  -2.653  1.00  0.00     0.218 HD
ENDBRANCH  18  22
ENDBRANCH   4  14
BRANCH   8  24
HETATM   24  O17         0      19.669 110.511   0.108  1.00  0.00    -0.359 OA
HETATM   25  H17         0      20.280 110.856   0.749  1.00  0.00     0.218 HD
ENDBRANCH   8  24
TORSDOF 5
ENDMDL
MODEL 3
REMARK VINA RESULT:      -0.3      3.021      6.117
REMARK  5 active torsions:
REMARK  status: ('A' for Active; 'I' for Inactive)
REMARK    1  A    between atoms: C4_4  and  C5_5 
REMARK    2  A    between atoms: C8_8  and  O9_9 
REMARK    3  A    between atoms: C10_11  and  O11_12 
REMARK    4  A    between atoms: C16_18  and  O17_19 
REMARK    5  A    between atoms: C19_22  and  O20_23 
ROOT
HETATM    1  O1          0      18.135 113.123  -1.569  1.00  0.00    -0.286 OA
HETATM    2  C2          0      18.675 112.435  -2.477  1.00  0.00     0.201 C 
HETATM    3  C3          0      18.554 112.740  -3.822  1.00  0.00     0.067 C 
HETATM    4  C4          0      19.072 111.907  -4.808  1.00  0.00     0.103 C 
HETATM    5  O13         0      19.713 110.811  -4.440  1.00  0.00    -0.307 OA
HETATM    6  C14         0      19.824 110.456  -3.179  1.00  0.00     0.107 C 
HETATM    7  C15         0      20.124 109.153  -2.811  1.00  0.00     0.049 C 
HETATM    8  C16         0      19.990 108.726  -1.495  1.00  0.00     0.093 C 
HETATM    9  C18         0      20.073 109.732  -0.540  1.00  0.00     0.048 C 
HETATM   10  C19         0      19.824 111.054  -0.885  1.00  0.00     0.096 C 
HETATM   11  C21         0      19.512 111.371  -2.179  1.00  0.00     0.084 C 
ENDROOT
BRANCH  10  12
HETATM   12  O20         0      19.481 111.963   0.110  1.00  0.00    -0.359 OA
HETATM   13  H20         0      19.614 111.705   1.015  1.00  0.00     0.218 HD
ENDBRANCH  10  12
BRANCH   4  14
HETATM   14  C5          0      18.424 111.939  -6.120  1.00  0.00     0.025 C 
HETATM   15  C6          0      18.278 110.810  -6.914  1.00  0.00     0.004 C 
HETATM   16  C7          0      17.093 110.675  -7.630  1.00  0.00     0.026 C 
HETATM   17  C8          0      16.142 111.689  -7.664  1.00  0.00     0.112 C 
HETATM   18  C10         0      16.637 112.958  -7.393  1.00  0.00     0.112 C 
HETATM   19  C12         0      17.775 113.067  -6.603  1.00  0.00     0.028 C 
BRANCH  17  20
HETATM   20  O9          0      14.793 111.393  -7.751  1.00  0.00    -0.357 OA
HETATM   21  H9          0      14.268 111.099  -7.016  1.00  0.00     0.218 HD
ENDBRANCH  17  20
BRANCH  18  22
HETATM   22  O11         0      15.775 114.026  -7.598  1.00  0.00    -0.357 OA
HETATM   23  H11         0      16.074 114.713  -8.182  1.00  0.00     0.218 HD
ENDBRANCH  18  22
ENDBRANCH   4  14
BRANCH   8  24
HETATM   24  O17         0      19.480 107.459  -1.187  1.00  0.00    -0.359 OA
HETATM   25  H17         0      18.894 107.323  -0.453  1.00  0.00     0.218 HD
ENDBRANCH   8  24
TORSDOF 5
ENDMDL
MODEL 4
REMARK VINA RESULT:      -0.3      2.448      6.617
REMARK  5 active torsions:
REMARK  status: ('A' for Active; 'I' for Inactive)
REMARK    1  A    between atoms: C4_4  and  C5_5 
REMARK    2  A    between atoms: C8_8  and  O9_9 
REMARK    3  A    between atoms: C10_11  and  O11_12 
REMARK    4  A    between atoms: C16_18  and  O17_19 
REMARK    5  A    between atoms: C19_22  and  O20_23 
ROOT
HETATM    1  O1          0      15.411 111.872  -2.622  1.00  0.00    -0.286 OA
HETATM    2  C2          0      16.288 112.509  -1.976  1.00  0.00     0.201 C 
HETATM    3  C3          0      16.561 113.848  -2.200  1.00  0.00     0.067 C 
HETATM    4  C4          0      17.601 114.499  -1.547  1.00  0.00     0.103 C 
HETATM    5  O13         0      18.329 113.820  -0.678  1.00  0.00    -0.307 OA
HETATM    6  C14         0      18.136 112.538  -0.456  1.00  0.00     0.107 C 
HETATM    7  C15         0      19.113 111.742   0.125  1.00  0.00     0.049 C 
HETATM    8  C16         0      19.009 110.356   0.125  1.00  0.00     0.093 C 
HETATM    9  C18         0      17.713 109.865   0.021  1.00  0.00     0.048 C 
HETATM   10  C19         0      16.701 110.652  -0.512  1.00  0.00     0.096 C 
HETATM   11  C21         0      16.978 111.927  -0.924  1.00  0.00     0.084 C 
ENDROOT
BRANCH  10  12
HETATM   12  O20         0      15.555 110.040  -1.010  1.00  0.00    -0.359 OA
HETATM   13  H20         0      15.134 109.379  -0.473  1.00  0.00     0.218 HD
ENDBRANCH  10  12
BRANCH   4  14
HETATM   14  C5          0      18.204 115.647  -2.227  1.00  0.00     0.025 C 
HETATM   15  C6          0      19.574 115.867  -2.260  1.00  0.00     0.004 C 
HETATM   16  C7          0      20.118 116.367  -3.438  1.00  0.00     0.026 C 
HETATM   17  C8          0      19.315 116.763  -4.502  1.00  0.00     0.112 C 
HETATM   18  C10         0      18.014 117.099  -4.153  1.00  0.00     0.112 C 
HETATM   19  C12         0      17.464 116.518  -3.016  1.00  0.00     0.028 C 
BRANCH  17  20
HETATM   20  O9          0      19.746 116.616  -5.809  1.00  0.00    -0.357 OA
HETATM   21  H9          0      19.259 116.146  -6.476  1.00  0.00     0.218 HD
ENDBRANCH  17  20
BRANCH  18  22
HETATM   22  O11         0      17.228 117.678  -5.139  1.00  0.00    -0.357 OA
HETATM   23  H11         0      16.759 118.470  -4.905  1.00  0.00     0.218 HD
ENDBRANCH  18  22
ENDBRANCH   4  14
BRANCH   8  24
HETATM   24  O17         0      20.125 109.541  -0.096  1.00  0.00    -0.359 OA
HETATM   25  H17         0      20.044 108.680  -0.489  1.00  0.00     0.218 HD
ENDBRANCH   8  24
TORSDOF 5
ENDMDL
MODEL 5
REMARK VINA RESULT:      -0.2      4.559      5.915
REMARK  5 active torsions:
REMARK  status: ('A' for Active; 'I' for Inactive)
REMARK    1  A    between atoms: C4_4  and  C5_5 
REMARK    2  A    between atoms: C8_8  and  O9_9 
REMARK    3  A    between atoms: C10_11  and  O11_12 
REMARK    4  A    between atoms: C16_18  and  O17_19 
REMARK    5  A    between atoms: C19_22  and  O20_23 
ROOT
HETATM    1  O1          0      17.166 113.723  -0.062  1.00  0.00    -0.286 OA
HETATM    2  C2          0      16.900 112.690  -0.735  1.00  0.00     0.201 C 
HETATM    3  C3          0      15.626 112.401  -1.195  1.00  0.00     0.067 C 
HETATM    4  C4          0      15.339 111.206  -1.845  1.00  0.00     0.103 C 
HETATM    5  O13         0      16.318 110.341  -2.043  1.00  0.00    -0.307 OA
HETATM    6  C14         0      17.536 110.549  -1.594  1.00  0.00     0.107 C 
HETATM    7  C15         0      18.445 109.512  -1.439  1.00  0.00     0.049 C 
HETATM    8  C16         0      19.629 109.689  -0.734  1.00  0.00     0.093 C 
HETATM    9  C18         0      20.086 111.000  -0.675  1.00  0.00     0.048 C 
HETATM   10  C19         0      19.213 112.061  -0.872  1.00  0.00     0.096 C 
HETATM   11  C21         0      17.895 111.814  -1.143  1.00  0.00     0.084 C 
ENDROOT
BRANCH  10  12
HETATM   12  O20         0      19.555 113.322  -0.393  1.00  0.00    -0.359 OA
HETATM   13  H20         0      18.897 114.006  -0.428  1.00  0.00     0.218 HD
ENDBRANCH  10  12
BRANCH   4  14
HETATM   14  C5          0      13.965 110.709  -1.757  1.00  0.00     0.025 C 
HETATM   15  C6          0      12.909 111.492  -1.315  1.00  0.00     0.004 C 
HETATM   16  C7          0      11.683 111.341  -1.955  1.00  0.00     0.026 C 
HETATM   17  C8          0      11.475 110.352  -2.910  1.00  0.00     0.112 C 
HETATM   18  C10         0      12.337 109.267  -2.819  1.00  0.00     0.112 C 
HETATM   19  C12         0      13.590 109.466  -2.251  1.00  0.00     0.028 C 
BRANCH  17  20
HETATM   20  O9          0      10.618 110.564  -3.975  1.00  0.00    -0.357 OA
HETATM   21  H9          0       9.711 110.830  -3.878  1.00  0.00     0.218 HD
ENDBRANCH  17  20
BRANCH  18  22
HETATM   22  O11         0      12.056 108.171  -3.622  1.00  0.00    -0.357 OA
HETATM   23  H11         0      11.930 108.339  -4.549  1.00  0.00     0.218 HD
ENDBRANCH  18  22
ENDBRANCH   4  14
BRANCH   8  24
HETATM   24  O17         0      20.125 108.698   0.120  1.00  0.00    -0.359 OA
HETATM   25  H17         0      19.560 108.233   0.726  1.00  0.00     0.218 HD
ENDBRANCH   8  24
TORSDOF 5
ENDMDL
MODEL 6
REMARK VINA RESULT:      -0.2      4.035      5.234
REMARK  5 active torsions:
REMARK  status: ('A' for Active; 'I' for Inactive)
REMARK    1  A    between atoms: C4_4  and  C5_5 
REMARK    2  A    between atoms: C8_8  and  O9_9 
REMARK    3  A    between atoms: C10_11  and  O11_12 
REMARK    4  A    between atoms: C16_18  and  O17_19 
REMARK    5  A    between atoms: C19_22  and  O20_23 
ROOT
HETATM    1  O1          0      13.595 110.890  -2.881  1.00  0.00    -0.286 OA
HETATM    2  C2          0      14.623 111.266  -3.508  1.00  0.00     0.201 C 
HETATM    3  C3          0      15.883 110.748  -3.262  1.00  0.00     0.067 C 
HETATM    4  C4          0      17.014 111.252  -3.895  1.00  0.00     0.103 C 
HETATM    5  O13         0      16.869 112.235  -4.766  1.00  0.00    -0.307 OA
HETATM    6  C14         0      15.701 112.787  -5.008  1.00  0.00     0.107 C 
HETATM    7  C15         0      15.593 114.042  -5.591  1.00  0.00     0.049 C 
HETATM    8  C16         0      14.383 114.726  -5.612  1.00  0.00     0.093 C 
HETATM    9  C18         0      13.253 113.922  -5.529  1.00  0.00     0.048 C 
HETATM   10  C19         0      13.335 112.643  -4.994  1.00  0.00     0.096 C 
HETATM   11  C21         0      14.541 112.164  -4.562  1.00  0.00     0.084 C 
ENDROOT
BRANCH  10  12
HETATM   12  O20         0      12.180 112.029  -4.518  1.00  0.00    -0.359 OA
HETATM   13  H20         0      11.657 112.500  -3.881  1.00  0.00     0.218 HD
ENDBRANCH  10  12
BRANCH   4  14
HETATM   14  C5          0      18.291 111.115  -3.192  1.00  0.00     0.025 C 
HETATM   15  C6          0      19.357 111.979  -3.395  1.00  0.00     0.004 C 
HETATM   16  C7          0      20.120 112.333  -2.286  1.00  0.00     0.026 C 
HETATM   17  C8          0      19.915 111.746  -1.042  1.00  0.00     0.112 C 
HETATM   18  C10         0      19.305 110.499  -1.083  1.00  0.00     0.112 C 
HETATM   19  C12         0      18.480 110.203  -2.162  1.00  0.00     0.028 C 
BRANCH  17  20
HETATM   20  O9          0      20.118 112.464   0.123  1.00  0.00    -0.357 OA
HETATM   21  H9          0      19.439 112.628   0.767  1.00  0.00     0.218 HD
ENDBRANCH  17  20
BRANCH  18  22
HETATM   22  O11         0      19.249 109.788   0.107  1.00  0.00    -0.357 OA
HETATM   23  H11         0      18.807 110.206   0.837  1.00  0.00     0.218 HD
ENDBRANCH  18  22
ENDBRANCH   4  14
BRANCH   8  24
HETATM   24  O17         0      14.322 116.106  -5.391  1.00  0.00    -0.359 OA
HETATM   25  H17         0      14.560 116.489  -4.556  1.00  0.00     0.218 HD
ENDBRANCH   8  24
TORSDOF 5
ENDMDL
MODEL 7
REMARK VINA RESULT:      -0.2      3.033      4.472
REMARK  5 active torsions:
REMARK  status: ('A' for Active; 'I' for Inactive)
REMARK    1  A    between atoms: C4_4  and  C5_5 
REMARK    2  A    between atoms: C8_8  and  O9_9 
REMARK    3  A    between atoms: C10_11  and  O11_12 
REMARK    4  A    between atoms: C16_18  and  O17_19 
REMARK    5  A    between atoms: C19_22  and  O20_23 
ROOT
HETATM    1  O1          0      16.687 112.380  -6.783  1.00  0.00    -0.286 OA
HETATM    2  C2          0      17.387 113.222  -6.157  1.00  0.00     0.201 C 
HETATM    3  C3          0      18.385 112.858  -5.270  1.00  0.00     0.067 C 
HETATM    4  C4          0      19.071 113.803  -4.517  1.00  0.00     0.103 C 
HETATM    5  O13         0      18.770 115.080  -4.674  1.00  0.00    -0.307 OA
HETATM    6  C14         0      17.806 115.478  -5.475  1.00  0.00     0.107 C 
HETATM    7  C15         0      17.223 116.730  -5.351  1.00  0.00     0.049 C 
HETATM    8  C16         0      16.047 117.049  -6.021  1.00  0.00     0.093 C 
HETATM    9  C18         0      15.805 116.302  -7.168  1.00  0.00     0.048 C 
HETATM   10  C19         0      16.409 115.065  -7.345  1.00  0.00     0.096 C 
HETATM   11  C21         0      17.263 114.583  -6.391  1.00  0.00     0.084 C 
ENDROOT
BRANCH  10  12
HETATM   12  O20         0      15.849 114.157  -8.238  1.00  0.00    -0.359 OA
HETATM   13  H20         0      16.348 113.377  -8.452  1.00  0.00     0.218 HD
ENDBRANCH  10  12
BRANCH   4  14
HETATM   14  C5          0      19.630 113.363  -3.237  1.00  0.00     0.025 C 
HETATM   15  C6          0      19.583 114.141  -2.089  1.00  0.00     0.004 C 
HETATM   16  C7          0      19.352 113.492  -0.880  1.00  0.00     0.026 C 
HETATM   17  C8          0      19.303 112.105  -0.794  1.00  0.00     0.112 C 
HETATM   18  C10         0      19.971 111.437  -1.813  1.00  0.00     0.112 C 
HETATM   19  C12         0      20.113 112.076  -3.039  1.00  0.00     0.028 C 
BRANCH  17  20
HETATM   20  O9          0      18.473 111.480   0.119  1.00  0.00    -0.357 OA
HETATM   21  H9          0      18.216 111.865   0.949  1.00  0.00     0.218 HD
ENDBRANCH  17  20
BRANCH  18  22
HETATM   22  O11         0      20.115 110.064  -1.675  1.00  0.00    -0.357 OA
HETATM   23  H11         0      20.289 109.568  -2.467  1.00  0.00     0.218 HD
ENDBRANCH  18  22
ENDBRANCH   4  14
BRANCH   8  24
HETATM   24  O17         0      15.042 117.806  -5.410  1.00  0.00    -0.359 OA
HETATM   25  H17         0      14.137 117.518  -5.400  1.00  0.00     0.218 HD
ENDBRANCH   8  24
TORSDOF 5
ENDMDL
MODEL 8
REMARK VINA RESULT:      -0.2      3.956      5.615
REMARK  5 active torsions:
REMARK  status: ('A' for Active; 'I' for Inactive)
REMARK    1  A    between atoms: C4_4  and  C5_5 
REMARK    2  A    between atoms: C8_8  and  O9_9 
REMARK    3  A    between atoms: C10_11  and  O11_12 
REMARK    4  A    between atoms: C16_18  and  O17_19 
REMARK    5  A    between atoms: C19_22  and  O20_23 
ROOT
HETATM    1  O1          0      16.920 112.949  -2.659  1.00  0.00    -0.286 OA
HETATM    2  C2          0      17.246 111.821  -3.121  1.00  0.00     0.201 C 
HETATM    3  C3          0      16.499 111.158  -4.079  1.00  0.00     0.067 C 
HETATM    4  C4          0      16.824 109.872  -4.496  1.00  0.00     0.103 C 
HETATM    5  O13         0      17.886 109.285  -3.973  1.00  0.00    -0.307 OA
HETATM    6  C14         0      18.607 109.854  -3.033  1.00  0.00     0.107 C 
HETATM    7  C15         0      19.450 109.119  -2.212  1.00  0.00     0.049 C 
HETATM    8  C16         0      20.009 109.675  -1.068  1.00  0.00     0.093 C 
HETATM    9  C18         0      20.125 111.060  -1.085  1.00  0.00     0.048 C 
HETATM   10  C19         0      19.330 111.824  -1.928  1.00  0.00     0.096 C 
HETATM   11  C21         0      18.437 111.208  -2.762  1.00  0.00     0.084 C 
ENDROOT
BRANCH  10  12
HETATM   12  O20         0      19.132 113.171  -1.642  1.00  0.00    -0.359 OA
HETATM   13  H20         0      18.874 113.744  -2.353  1.00  0.00     0.218 HD
ENDBRANCH  10  12
BRANCH   4  14
HETATM   14  C5          0      15.733 109.036  -5.002  1.00  0.00     0.025 C 
HETATM   15  C6          0      14.547 109.563  -5.492  1.00  0.00     0.004 C 
HETATM   16  C7          0      13.974 108.942  -6.596  1.00  0.00     0.026 C 
HETATM   17  C8          0      14.486 107.758  -7.115  1.00  0.00     0.112 C 
HETATM   18  C10         0      15.230 107.005  -6.216  1.00  0.00     0.112 C 
HETATM   19  C12         0      15.864 107.664  -5.169  1.00  0.00     0.028 C 
BRANCH  17  20
HETATM   20  O9          0      14.421 107.491  -8.471  1.00  0.00    -0.357 OA
HETATM   21  H9          0      14.598 106.638  -8.851  1.00  0.00     0.218 HD
ENDBRANCH  17  20
BRANCH  18  22
HETATM   22  O11         0      15.605 105.732  -6.621  1.00  0.00    -0.357 OA
HETATM   23  H11         0      15.426 105.498  -7.525  1.00  0.00     0.218 HD
ENDBRANCH  18  22
ENDBRANCH   4  14
BRANCH   8  24
HETATM   24  O17         0      20.125 108.942   0.118  1.00  0.00    -0.359 OA
HETATM   25  H17         0      19.432 108.932   0.769  1.00  0.00     0.218 HD
ENDBRANCH   8  24
TORSDOF 5
ENDMDL
MODEL 9
REMARK VINA RESULT:      -0.2      4.190      6.581
REMARK  5 active torsions:
REMARK  status: ('A' for Active; 'I' for Inactive)
REMARK    1  A    between atoms: C4_4  and  C5_5 
REMARK    2  A    between atoms: C8_8  and  O9_9 
REMARK    3  A    between atoms: C10_11  and  O11_12 
REMARK    4  A    between atoms: C16_18  and  O17_19 
REMARK    5  A    between atoms: C19_22  and  O20_23 
ROOT
HETATM    1  O1          0      14.458 112.368  -5.677  1.00  0.00    -0.286 OA
HETATM    2  C2          0      14.980 111.553  -4.868  1.00  0.00     0.201 C 
HETATM    3  C3          0      16.017 111.900  -4.018  1.00  0.00     0.067 C 
HETATM    4  C4          0      16.643 110.957  -3.211  1.00  0.00     0.103 C 
HETATM    5  O13         0      16.218 109.707  -3.247  1.00  0.00    -0.307 OA
HETATM    6  C14         0      15.263 109.317  -4.063  1.00  0.00     0.107 C 
HETATM    7  C15         0      15.087 107.982  -4.398  1.00  0.00     0.049 C 
HETATM    8  C16         0      14.254 107.604  -5.444  1.00  0.00     0.093 C 
HETATM    9  C18         0      13.250 108.514  -5.753  1.00  0.00     0.048 C 
HETATM   10  C19         0      13.372 109.849  -5.391  1.00  0.00     0.096 C 
HETATM   11  C21         0      14.482 110.269  -4.710  1.00  0.00     0.084 C 
ENDROOT
BRANCH  10  12
HETATM   12  O20         0      12.615 110.807  -6.059  1.00  0.00    -0.359 OA
HETATM   13  H20         0      12.925 111.704  -6.050  1.00  0.00     0.218 HD
ENDBRANCH  10  12
BRANCH   4  14
HETATM   14  C5          0      18.033 111.218  -2.831  1.00  0.00     0.025 C 
HETATM   15  C6          0      18.704 112.379  -3.186  1.00  0.00     0.004 C 
HETATM   16  C7          0      19.570 112.935  -2.250  1.00  0.00     0.026 C 
HETATM   17  C8          0      19.864 112.289  -1.054  1.00  0.00     0.112 C 
HETATM   18  C10         0      19.669 110.914  -1.075  1.00  0.00     0.112 C 
HETATM   19  C12         0      18.735 110.393  -1.962  1.00  0.00     0.028 C 
BRANCH  17  20
HETATM   20  O9          0      20.118 113.011   0.098  1.00  0.00    -0.357 OA
HETATM   21  H9          0      19.900 112.706   0.972  1.00  0.00     0.218 HD
ENDBRANCH  17  20
BRANCH  18  22
HETATM   22  O11         0      20.123 110.198   0.024  1.00  0.00    -0.357 OA
HETATM   23  H11         0      19.913 109.272   0.050  1.00  0.00     0.218 HD
ENDBRANCH  18  22
ENDBRANCH   4  14
BRANCH   8  24
HETATM   24  O17         0      14.606 106.571  -6.320  1.00  0.00    -0.359 OA
HETATM   25  H17         0      14.555 105.659  -6.062  1.00  0.00     0.218 HD
ENDBRANCH   8  24
TORSDOF 5
ENDMDL
