MODEL 1
REMARK VINA RESULT:      -2.5      0.000      0.000
REMARK  5 active torsions:
REMARK  status: ('A' for Active; 'I' for Inactive)
REMARK    1  A    between atoms: C4_4  and  C5_5 
REMARK    2  A    between atoms: C8_8  and  O9_9 
REMARK    3  A    between atoms: C10_11  and  O11_12 
REMARK    4  A    between atoms: C16_18  and  O17_19 
REMARK    5  A    between atoms: C19_22  and  O20_23 
ROOT
HETATM    1  O1          0      18.691  33.658  -0.417  1.00  0.00    -0.286 OA
HETATM    2  C2          0      19.195  33.804  -1.565  1.00  0.00     0.201 C 
HETATM    3  C3          0      19.472  35.046  -2.110  1.00  0.00     0.067 C 
HETATM    4  C4          0      19.930  35.184  -3.415  1.00  0.00     0.103 C 
HETATM    5  O13         0      20.122  34.094  -4.138  1.00  0.00    -0.307 OA
HETATM    6  C14         0      19.840  32.894  -3.682  1.00  0.00     0.107 C 
HETATM    7  C15         0      19.655  31.813  -4.532  1.00  0.00     0.049 C 
HETATM    8  C16         0      19.112  30.619  -4.075  1.00  0.00     0.093 C 
HETATM    9  C18         0      19.270  30.386  -2.714  1.00  0.00     0.048 C 
HETATM   10  C19         0      19.503  31.439  -1.840  1.00  0.00     0.096 C 
HETATM   11  C21         0      19.594  32.716  -2.324  1.00  0.00     0.084 C 
ENDROOT
BRANCH  10  12
HETATM   12  O20         0      19.227  31.274  -0.486  1.00  0.00    -0.359 OA
HETATM   13  H20         0      19.429  30.434  -0.090  1.00  0.00     0.218 HD
ENDBRANCH  10  12
BRANCH   4  14
HETATM   14  C5          0      19.630  36.441  -4.101  1.00  0.00     0.025 C 
HETATM   15  C6          0      19.160  36.493  -5.406  1.00  0.00     0.004 C 
HETATM   16  C7          0      18.200  37.453  -5.707  1.00  0.00     0.026 C 
HETATM   17  C8          0      17.818  38.418  -4.782  1.00  0.00     0.112 C 
HETATM   18  C10         0      18.757  38.676  -3.792  1.00  0.00     0.112 C 
HETATM   19  C12         0      19.650  37.668  -3.450  1.00  0.00     0.028 C 
BRANCH  17  20
HETATM   20  O9          0      16.522  38.902  -4.756  1.00  0.00    -0.357 OA
HETATM   21  H9          0      16.172  39.507  -5.400  1.00  0.00     0.218 HD
ENDBRANCH  17  20
BRANCH  18  22
HETATM   22  O11         0      18.510  39.757  -2.958  1.00  0.00    -0.357 OA
HETATM   23  H11         0      19.099  40.500  -3.030  1.00  0.00     0.218 HD
ENDBRANCH  18  22
ENDBRANCH   4  14
BRANCH   8  24
HETATM   24  O17         0      18.198  29.891  -4.845  1.00  0.00    -0.359 OA
HETATM   25  H17         0      18.196  29.939  -5.794  1.00  0.00     0.218 HD
ENDBRANCH   8  24
TORSDOF 5
ENDMDL
MODEL 2
REMARK VINA RESULT:      -2.5      2.062      6.869
REMARK  5 active torsions:
REMARK  status: ('A' for Active; 'I' for Inactive)
REMARK    1  A    between atoms: C4_4  and  C5_5 
REMARK    2  A    between atoms: C8_8  and  O9_9 
REMARK    3  A    between atoms: C10_11  and  O11_12 
REMARK    4  A    between atoms: C16_18  and  O17_19 
REMARK    5  A    between atoms: C19_22  and  O20_23 
ROOT
HETATM    1  O1          0      18.632  36.450  -6.350  1.00  0.00    -0.286 OA
HETATM    2  C2          0      19.037  36.405  -5.156  1.00  0.00     0.201 C 
HETATM    3  C3          0      18.905  35.279  -4.361  1.00  0.00     0.067 C 
HETATM    4  C4          0      19.266  35.289  -3.019  1.00  0.00     0.103 C 
HETATM    5  O13         0      19.763  36.399  -2.503  1.00  0.00    -0.307 OA
HETATM    6  C14         0      19.874  37.507  -3.203  1.00  0.00     0.107 C 
HETATM    7  C15         0      20.007  38.746  -2.595  1.00  0.00     0.049 C 
HETATM    8  C16         0      19.867  39.924  -3.318  1.00  0.00     0.093 C 
HETATM    9  C18         0      20.124  39.811  -4.679  1.00  0.00     0.048 C 
HETATM   10  C19         0      20.046  38.577  -5.312  1.00  0.00     0.096 C 
HETATM   11  C21         0      19.730  37.461  -4.586  1.00  0.00     0.084 C 
ENDROOT
BRANCH  10  12
HETATM   12  O20         0      19.871  38.530  -6.691  1.00  0.00    -0.359 OA
HETATM   13  H20         0      19.812  39.353  -7.161  1.00  0.00     0.218 HD
ENDBRANCH  10  12
BRANCH   4  14
HETATM   14  C5          0      18.578  34.348  -2.133  1.00  0.00     0.025 C 
HETATM   15  C6          0      17.195  34.281  -2.036  1.00  0.00     0.004 C 
HETATM   16  C7          0      16.619  33.022  -1.897  1.00  0.00     0.026 C 
HETATM   17  C8          0      17.394  31.880  -1.727  1.00  0.00     0.112 C 
HETATM   18  C10         0      18.663  32.111  -1.213  1.00  0.00     0.112 C 
HETATM   19  C12         0      19.250  33.350  -1.439  1.00  0.00     0.028 C 
BRANCH  17  20
HETATM   20  O9          0      16.982  30.661  -2.237  1.00  0.00    -0.357 OA
HETATM   21  H9          0      17.004  30.441  -3.161  1.00  0.00     0.218 HD
ENDBRANCH  17  20
BRANCH  18  22
HETATM   22  O11         0      19.405  30.998  -0.847  1.00  0.00    -0.357 OA
HETATM   23  H11         0      19.687  30.948   0.059  1.00  0.00     0.218 HD
ENDBRANCH  18  22
ENDBRANCH   4  14
BRANCH   8  24
HETATM   24  O17         0      19.200  41.033  -2.785  1.00  0.00    -0.359 OA
HETATM   25  H17         0      18.912  41.054  -1.881  1.00  0.00     0.218 HD
ENDBRANCH   8  24
TORSDOF 5
ENDMDL
MODEL 3
REMARK VINA RESULT:      -2.3      1.679      6.727
REMARK  5 active torsions:
REMARK  status: ('A' for Active; 'I' for Inactive)
REMARK    1  A    between atoms: C4_4  and  C5_5 
REMARK    2  A    between atoms: C8_8  and  O9_9 
REMARK    3  A    between atoms: C10_11  and  O11_12 
REMARK    4  A    between atoms: C16_18  and  O17_19 
REMARK    5  A    between atoms: C19_22  and  O20_23 
ROOT
HETATM    1  O1          0      16.020  36.970  -4.924  1.00  0.00    -0.286 OA
HETATM    2  C2          0      17.164  36.547  -4.602  1.00  0.00     0.201 C 
HETATM    3  C3          0      17.513  35.208  -4.665  1.00  0.00     0.067 C 
HETATM    4  C4          0      18.745  34.755  -4.208  1.00  0.00     0.103 C 
HETATM    5  O13         0      19.605  35.634  -3.722  1.00  0.00    -0.307 OA
HETATM    6  C14         0      19.309  36.910  -3.605  1.00  0.00     0.107 C 
HETATM    7  C15         0      20.014  37.749  -2.755  1.00  0.00     0.049 C 
HETATM    8  C16         0      19.545  39.019  -2.442  1.00  0.00     0.093 C 
HETATM    9  C18         0      18.693  39.579  -3.386  1.00  0.00     0.048 C 
HETATM   10  C19         0      18.007  38.772  -4.284  1.00  0.00     0.096 C 
HETATM   11  C21         0      18.185  37.415  -4.250  1.00  0.00     0.084 C 
ENDROOT
BRANCH  10  12
HETATM   12  O20         0      16.864  39.264  -4.906  1.00  0.00    -0.359 OA
HETATM   13  H20         0      16.271  38.640  -5.307  1.00  0.00     0.218 HD
ENDBRANCH  10  12
BRANCH   4  14
HETATM   14  C5          0      18.820  33.368  -3.747  1.00  0.00     0.025 C 
HETATM   15  C6          0      20.021  32.698  -3.569  1.00  0.00     0.004 C 
HETATM   16  C7          0      20.124  31.837  -2.481  1.00  0.00     0.026 C 
HETATM   17  C8          0      19.030  31.548  -1.673  1.00  0.00     0.112 C 
HETATM   18  C10         0      17.795  31.739  -2.279  1.00  0.00     0.112 C 
HETATM   19  C12         0      17.702  32.668  -3.309  1.00  0.00     0.028 C 
BRANCH  17  20
HETATM   20  O9          0      19.192  31.300  -0.322  1.00  0.00    -0.357 OA
HETATM   21  H9          0      20.038  31.207   0.101  1.00  0.00     0.218 HD
ENDBRANCH  17  20
BRANCH  18  22
HETATM   22  O11         0      16.679  31.288  -1.589  1.00  0.00    -0.357 OA
HETATM   23  H11         0      16.580  31.586  -0.692  1.00  0.00     0.218 HD
ENDBRANCH  18  22
ENDBRANCH   4  14
BRANCH   8  24
HETATM   24  O17         0      19.650  39.537  -1.146  1.00  0.00    -0.359 OA
HETATM   25  H17         0      20.407  40.038  -0.869  1.00  0.00     0.218 HD
ENDBRANCH   8  24
TORSDOF 5
ENDMDL
MODEL 4
REMARK VINA RESULT:      -2.0      2.474      3.030
REMARK  5 active torsions:
REMARK  status: ('A' for Active; 'I' for Inactive)
REMARK    1  A    between atoms: C4_4  and  C5_5 
REMARK    2  A    between atoms: C8_8  and  O9_9 
REMARK    3  A    between atoms: C10_11  and  O11_12 
REMARK    4  A    between atoms: C16_18  and  O17_19 
REMARK    5  A    between atoms: C19_22  and  O20_23 
ROOT
HETATM    1  O1          0      15.834  34.582  -2.950  1.00  0.00    -0.286 OA
HETATM    2  C2          0      17.055  34.853  -2.784  1.00  0.00     0.201 C 
HETATM    3  C3          0      17.727  35.788  -3.553  1.00  0.00     0.067 C 
HETATM    4  C4          0      19.096  35.993  -3.419  1.00  0.00     0.103 C 
HETATM    5  O13         0      19.758  35.288  -2.519  1.00  0.00    -0.307 OA
HETATM    6  C14         0      19.176  34.361  -1.790  1.00  0.00     0.107 C 
HETATM    7  C15         0      19.904  33.366  -1.155  1.00  0.00     0.049 C 
HETATM    8  C16         0      19.279  32.254  -0.604  1.00  0.00     0.093 C 
HETATM    9  C18         0      17.948  32.443  -0.253  1.00  0.00     0.048 C 
HETATM   10  C19         0      17.202  33.460  -0.835  1.00  0.00     0.096 C 
HETATM   11  C21         0      17.787  34.293  -1.749  1.00  0.00     0.084 C 
ENDROOT
BRANCH  10  12
HETATM   12  O20         0      15.813  33.377  -0.822  1.00  0.00    -0.359 OA
HETATM   13  H20         0      15.399  32.754  -1.408  1.00  0.00     0.218 HD
ENDBRANCH  10  12
BRANCH   4  14
HETATM   14  C5          0      19.816  36.495  -4.591  1.00  0.00     0.025 C 
HETATM   15  C6          0      20.110  35.700  -5.689  1.00  0.00     0.004 C 
HETATM   16  C7          0      20.019  36.283  -6.949  1.00  0.00     0.026 C 
HETATM   17  C8          0      19.776  37.643  -7.108  1.00  0.00     0.112 C 
HETATM   18  C10         0      20.125  38.426  -6.015  1.00  0.00     0.112 C 
HETATM   19  C12         0      20.125  37.839  -4.756  1.00  0.00     0.028 C 
BRANCH  17  20
HETATM   20  O9          0      19.050  38.112  -8.189  1.00  0.00    -0.357 OA
HETATM   21  H9          0      19.405  38.698  -8.848  1.00  0.00     0.218 HD
ENDBRANCH  17  20
BRANCH  18  22
HETATM   22  O11         0      20.081  39.802  -6.188  1.00  0.00    -0.357 OA
HETATM   23  H11         0      19.492  40.133  -6.856  1.00  0.00     0.218 HD
ENDBRANCH  18  22
ENDBRANCH   4  14
BRANCH   8  24
HETATM   24  O17         0      19.837  30.975  -0.712  1.00  0.00    -0.359 OA
HETATM   25  H17         0      19.556  30.363  -1.381  1.00  0.00     0.218 HD
ENDBRANCH   8  24
TORSDOF 5
ENDMDL
MODEL 5
REMARK VINA RESULT:      -2.0      2.644      3.596
REMARK  5 active torsions:
REMARK  status: ('A' for Active; 'I' for Inactive)
REMARK    1  A    between atoms: C4_4  and  C5_5 
REMARK    2  A    between atoms: C8_8  and  O9_9 
REMARK    3  A    between atoms: C10_11  and  O11_12 
REMARK    4  A    between atoms: C16_18  and  O17_19 
REMARK    5  A    between atoms: C19_22  and  O20_23 
ROOT
HETATM    1  O1          0      14.883  35.455  -3.339  1.00  0.00    -0.286 OA
HETATM    2  C2          0      15.879  35.593  -2.578  1.00  0.00     0.201 C 
HETATM    3  C3          0      16.567  36.788  -2.451  1.00  0.00     0.067 C 
HETATM    4  C4          0      17.722  36.886  -1.685  1.00  0.00     0.103 C 
HETATM    5  O13         0      18.156  35.811  -1.050  1.00  0.00    -0.307 OA
HETATM    6  C14         0      17.563  34.644  -1.167  1.00  0.00     0.107 C 
HETATM    7  C15         0      18.211  33.459  -0.849  1.00  0.00     0.049 C 
HETATM    8  C16         0      17.681  32.226  -1.210  1.00  0.00     0.093 C 
HETATM    9  C18         0      16.304  32.212  -1.396  1.00  0.00     0.048 C 
HETATM   10  C19         0      15.617  33.386  -1.670  1.00  0.00     0.096 C 
HETATM   11  C21         0      16.298  34.571  -1.740  1.00  0.00     0.084 C 
ENDROOT
BRANCH  10  12
HETATM   12  O20         0      14.365  33.317  -2.273  1.00  0.00    -0.359 OA
HETATM   13  H20         0      13.605  33.216  -1.711  1.00  0.00     0.218 HD
ENDBRANCH  10  12
BRANCH   4  14
HETATM   14  C5          0      18.688  37.922  -2.058  1.00  0.00     0.025 C 
HETATM   15  C6          0      19.773  37.675  -2.885  1.00  0.00     0.004 C 
HETATM   16  C7          0      20.125  38.663  -3.799  1.00  0.00     0.026 C 
HETATM   17  C8          0      19.506  39.908  -3.802  1.00  0.00     0.112 C 
HETATM   18  C10         0      18.925  40.269  -2.593  1.00  0.00     0.112 C 
HETATM   19  C12         0      18.505  39.260  -1.735  1.00  0.00     0.028 C 
BRANCH  17  20
HETATM   20  O9          0      19.317  40.604  -4.983  1.00  0.00    -0.357 OA
HETATM   21  H9          0      19.687  40.338  -5.817  1.00  0.00     0.218 HD
ENDBRANCH  17  20
BRANCH  18  22
HETATM   22  O11         0      18.462  41.573  -2.483  1.00  0.00    -0.357 OA
HETATM   23  H11         0      18.331  42.052  -3.293  1.00  0.00     0.218 HD
ENDBRANCH  18  22
ENDBRANCH   4  14
BRANCH   8  24
HETATM   24  O17         0      18.498  31.189  -1.674  1.00  0.00    -0.359 OA
HETATM   25  H17         0      18.862  30.539  -1.085  1.00  0.00     0.218 HD
ENDBRANCH   8  24
TORSDOF 5
ENDMDL
MODEL 6
REMARK VINA RESULT:      -1.9      4.716      5.691
REMARK  5 active torsions:
REMARK  status: ('A' for Active; 'I' for Inactive)
REMARK    1  A    between atoms: C4_4  and  C5_5 
REMARK    2  A    between atoms: C8_8  and  O9_9 
REMARK    3  A    between atoms: C10_11  and  O11_12 
REMARK    4  A    between atoms: C16_18  and  O17_19 
REMARK    5  A    between atoms: C19_22  and  O20_23 
ROOT
HETATM    1  O1          0      18.043  35.989  -1.021  1.00  0.00    -0.286 OA
HETATM    2  C2          0      17.384  35.062  -1.566  1.00  0.00     0.201 C 
HETATM    3  C3          0      16.013  35.121  -1.748  1.00  0.00     0.067 C 
HETATM    4  C4          0      15.298  34.043  -2.257  1.00  0.00     0.103 C 
HETATM    5  O13         0      15.956  32.947  -2.593  1.00  0.00    -0.307 OA
HETATM    6  C14         0      17.252  32.825  -2.406  1.00  0.00     0.107 C 
HETATM    7  C15         0      17.872  31.584  -2.373  1.00  0.00     0.049 C 
HETATM    8  C16         0      19.180  31.442  -1.926  1.00  0.00     0.093 C 
HETATM    9  C18         0      19.964  32.585  -2.036  1.00  0.00     0.048 C 
HETATM   10  C19         0      19.375  33.839  -2.119  1.00  0.00     0.096 C 
HETATM   11  C21         0      18.012  33.951  -2.110  1.00  0.00     0.084 C 
ENDROOT
BRANCH  10  12
HETATM   12  O20         0      20.124  34.965  -1.792  1.00  0.00    -0.359 OA
HETATM   13  H20         0      20.336  35.109  -0.878  1.00  0.00     0.218 HD
ENDBRANCH  10  12
BRANCH   4  14
HETATM   14  C5          0      13.891  33.930  -1.871  1.00  0.00     0.025 C 
HETATM   15  C6          0      13.258  34.856  -1.054  1.00  0.00     0.004 C 
HETATM   16  C7          0      11.940  35.184  -1.352  1.00  0.00     0.026 C 
HETATM   17  C8          0      11.229  34.518  -2.345  1.00  0.00     0.112 C 
HETATM   18  C10         0      11.701  33.247  -2.642  1.00  0.00     0.112 C 
HETATM   19  C12         0      13.044  32.972  -2.414  1.00  0.00     0.028 C 
BRANCH  17  20
HETATM   20  O9          0      10.273  35.178  -3.097  1.00  0.00    -0.357 OA
HETATM   21  H9          0      10.221  35.129  -4.044  1.00  0.00     0.218 HD
ENDBRANCH  17  20
BRANCH  18  22
HETATM   22  O11         0      10.921  32.468  -3.484  1.00  0.00    -0.357 OA
HETATM   23  H11         0      11.369  31.799  -3.990  1.00  0.00     0.218 HD
ENDBRANCH  18  22
ENDBRANCH   4  14
BRANCH   8  24
HETATM   24  O17         0      19.566  30.359  -1.130  1.00  0.00    -0.359 OA
HETATM   25  H17         0      19.015  30.034  -0.427  1.00  0.00     0.218 HD
ENDBRANCH   8  24
TORSDOF 5
ENDMDL
MODEL 7
REMARK VINA RESULT:      -1.9      3.612      6.375
REMARK  5 active torsions:
REMARK  status: ('A' for Active; 'I' for Inactive)
REMARK    1  A    between atoms: C4_4  and  C5_5 
REMARK    2  A    between atoms: C8_8  and  O9_9 
REMARK    3  A    between atoms: C10_11  and  O11_12 
REMARK    4  A    between atoms: C16_18  and  O17_19 
REMARK    5  A    between atoms: C19_22  and  O20_23 
ROOT
HETATM    1  O1          0      14.353  31.586  -4.898  1.00  0.00    -0.286 OA
HETATM    2  C2          0      15.507  31.184  -5.212  1.00  0.00     0.201 C 
HETATM    3  C3          0      16.530  31.044  -4.288  1.00  0.00     0.067 C 
HETATM    4  C4          0      17.819  30.699  -4.676  1.00  0.00     0.103 C 
HETATM    5  O13         0      18.060  30.482  -5.957  1.00  0.00    -0.307 OA
HETATM    6  C14         0      17.135  30.637  -6.879  1.00  0.00     0.107 C 
HETATM    7  C15         0      17.458  30.806  -8.217  1.00  0.00     0.049 C 
HETATM    8  C16         0      16.508  31.221  -9.142  1.00  0.00     0.093 C 
HETATM    9  C18         0      15.191  30.942  -8.797  1.00  0.00     0.048 C 
HETATM   10  C19         0      14.841  30.722  -7.471  1.00  0.00     0.096 C 
HETATM   11  C21         0      15.803  30.764  -6.499  1.00  0.00     0.084 C 
ENDROOT
BRANCH  10  12
HETATM   12  O20         0      13.514  30.879  -7.083  1.00  0.00    -0.359 OA
HETATM   13  H20         0      12.930  30.137  -7.184  1.00  0.00     0.218 HD
ENDBRANCH  10  12
BRANCH   4  14
HETATM   14  C5          0      18.919  31.144  -3.818  1.00  0.00     0.025 C 
HETATM   15  C6          0      19.726  32.228  -4.131  1.00  0.00     0.004 C 
HETATM   16  C7          0      20.125  33.058  -3.088  1.00  0.00     0.026 C 
HETATM   17  C8          0      19.845  32.747  -1.762  1.00  0.00     0.112 C 
HETATM   18  C10         0      19.621  31.399  -1.516  1.00  0.00     0.112 C 
HETATM   19  C12         0      19.140  30.610  -2.555  1.00  0.00     0.028 C 
BRANCH  17  20
HETATM   20  O9          0      19.608  33.747  -0.835  1.00  0.00    -0.357 OA
HETATM   21  H9          0      20.229  34.436  -0.631  1.00  0.00     0.218 HD
ENDBRANCH  17  20
BRANCH  18  22
HETATM   22  O11         0      19.525  31.009  -0.188  1.00  0.00    -0.357 OA
HETATM   23  H11         0      18.669  31.076   0.219  1.00  0.00     0.218 HD
ENDBRANCH  18  22
ENDBRANCH   4  14
BRANCH   8  24
HETATM   24  O17         0      16.825  32.134 -10.154  1.00  0.00    -0.359 OA
HETATM   25  H17         0      17.676  32.555 -10.198  1.00  0.00     0.218 HD
ENDBRANCH   8  24
TORSDOF 5
ENDMDL
MODEL 8
REMARK VINA RESULT:      -1.8      2.424      6.641
REMARK  5 active torsions:
REMARK  status: ('A' for Active; 'I' for Inactive)
REMARK    1  A    between atoms: C4_4  and  C5_5 
REMARK    2  A    between atoms: C8_8  and  O9_9 
REMARK    3  A    between atoms: C10_11  and  O11_12 
REMARK    4  A    between atoms: C16_18  and  O17_19 
REMARK    5  A    between atoms: C19_22  and  O20_23 
ROOT
HETATM    1  O1          0      17.285  32.530  -7.835  1.00  0.00    -0.286 OA
HETATM    2  C2          0      17.966  33.253  -7.057  1.00  0.00     0.201 C 
HETATM    3  C3          0      18.762  32.730  -6.052  1.00  0.00     0.067 C 
HETATM    4  C4          0      19.421  33.551  -5.144  1.00  0.00     0.103 C 
HETATM    5  O13         0      19.295  34.861  -5.265  1.00  0.00    -0.307 OA
HETATM    6  C14         0      18.522  35.408  -6.177  1.00  0.00     0.107 C 
HETATM    7  C15         0      18.072  36.715  -6.066  1.00  0.00     0.049 C 
HETATM    8  C16         0      17.062  37.203  -6.887  1.00  0.00     0.093 C 
HETATM    9  C18         0      16.924  36.544  -8.102  1.00  0.00     0.048 C 
HETATM   10  C19         0      17.405  35.252  -8.263  1.00  0.00     0.096 C 
HETATM   11  C21         0      18.035  34.628  -7.221  1.00  0.00     0.084 C 
ENDROOT
BRANCH  10  12
HETATM   12  O20         0      16.896  34.459  -9.286  1.00  0.00    -0.359 OA
HETATM   13  H20         0      16.674  33.558  -9.084  1.00  0.00     0.218 HD
ENDBRANCH  10  12
BRANCH   4  14
HETATM   14  C5          0      19.715  32.990  -3.824  1.00  0.00     0.025 C 
HETATM   15  C6          0      19.969  33.778  -2.711  1.00  0.00     0.004 C 
HETATM   16  C7          0      19.460  33.351  -1.489  1.00  0.00     0.026 C 
HETATM   17  C8          0      18.835  32.116  -1.350  1.00  0.00     0.112 C 
HETATM   18  C10         0      19.188  31.177  -2.311  1.00  0.00     0.112 C 
HETATM   19  C12         0      19.613  31.631  -3.554  1.00  0.00     0.028 C 
BRANCH  17  20
HETATM   20  O9          0      17.798  31.943  -0.451  1.00  0.00    -0.357 OA
HETATM   21  H9          0      16.950  32.362  -0.537  1.00  0.00     0.218 HD
ENDBRANCH  17  20
BRANCH  18  22
HETATM   22  O11         0      18.743  29.878  -2.112  1.00  0.00    -0.357 OA
HETATM   23  H11         0      17.832  29.768  -1.865  1.00  0.00     0.218 HD
ENDBRANCH  18  22
ENDBRANCH   4  14
BRANCH   8  24
HETATM   24  O17         0      16.064  38.049  -6.390  1.00  0.00    -0.359 OA
HETATM   25  H17         0      16.059  38.338  -5.486  1.00  0.00     0.218 HD
ENDBRANCH   8  24
TORSDOF 5
ENDMDL
MODEL 9
REMARK VINA RESULT:      -1.5      3.986      5.215
REMARK  5 active torsions:
REMARK  status: ('A' for Active; 'I' for Inactive)
REMARK    1  A    between atoms: C4_4  and  C5_5 
REMARK    2  A    between atoms: C8_8  and  O9_9 
REMARK    3  A    between atoms: C10_11  and  O11_12 
REMARK    4  A    between atoms: C16_18  and  O17_19 
REMARK    5  A    between atoms: C19_22  and  O20_23 
ROOT
HETATM    1  O1          0      14.203  38.226  -2.070  1.00  0.00    -0.286 OA
HETATM    2  C2          0      15.282  37.895  -1.507  1.00  0.00     0.201 C 
HETATM    3  C3          0      16.416  38.689  -1.532  1.00  0.00     0.067 C 
HETATM    4  C4          0      17.622  38.254  -0.993  1.00  0.00     0.103 C 
HETATM    5  O13         0      17.671  37.061  -0.428  1.00  0.00    -0.307 OA
HETATM    6  C14         0      16.634  36.252  -0.410  1.00  0.00     0.107 C 
HETATM    7  C15         0      16.774  34.889  -0.194  1.00  0.00     0.049 C 
HETATM    8  C16         0      15.723  34.010  -0.427  1.00  0.00     0.093 C 
HETATM    9  C18         0      14.457  34.577  -0.357  1.00  0.00     0.048 C 
HETATM   10  C19         0      14.286  35.945  -0.523  1.00  0.00     0.096 C 
HETATM   11  C21         0      15.375  36.743  -0.740  1.00  0.00     0.084 C 
ENDROOT
BRANCH  10  12
HETATM   12  O20         0      13.035  36.435  -0.884  1.00  0.00    -0.359 OA
HETATM   13  H20         0      12.542  36.919  -0.233  1.00  0.00     0.218 HD
ENDBRANCH  10  12
BRANCH   4  14
HETATM   14  C5          0      18.849  38.818  -1.558  1.00  0.00     0.025 C 
HETATM   15  C6          0      19.557  38.205  -2.581  1.00  0.00     0.004 C 
HETATM   16  C7          0      20.122  39.024  -3.555  1.00  0.00     0.026 C 
HETATM   17  C8          0      20.100  40.410  -3.444  1.00  0.00     0.112 C 
HETATM   18  C10         0      19.959  40.886  -2.147  1.00  0.00     0.112 C 
HETATM   19  C12         0      19.315  40.081  -1.215  1.00  0.00     0.028 C 
BRANCH  17  20
HETATM   20  O9          0      20.013  41.209  -4.570  1.00  0.00    -0.357 OA
HETATM   21  H9          0      20.615  41.156  -5.303  1.00  0.00     0.218 HD
ENDBRANCH  17  20
BRANCH  18  22
HETATM   22  O11         0      20.121  42.251  -1.958  1.00  0.00    -0.357 OA
HETATM   23  H11         0      20.330  42.770  -2.726  1.00  0.00     0.218 HD
ENDBRANCH  18  22
ENDBRANCH   4  14
BRANCH   8  24
HETATM   24  O17         0      15.937  32.757  -1.013  1.00  0.00    -0.359 OA
HETATM   25  H17         0      15.231  32.132  -1.126  1.00  0.00     0.218 HD
ENDBRANCH   8  24
TORSDOF 5
ENDMDL
