MODEL 1
REMARK VINA RESULT:       0.0      0.000      0.000
REMARK  5 active torsions:
REMARK  status: ('A' for Active; 'I' for Inactive)
REMARK    1  A    between atoms: C4_4  and  C5_5 
REMARK    2  A    between atoms: C8_8  and  O9_9 
REMARK    3  A    between atoms: C10_11  and  O11_12 
REMARK    4  A    between atoms: C16_18  and  O17_19 
REMARK    5  A    between atoms: C19_22  and  O20_23 
ROOT
HETATM    1  O1          0       8.087 117.255  32.451  1.00  0.00    -0.286 OA
HETATM    2  C2          0       7.127 117.488  33.236  1.00  0.00     0.201 C 
HETATM    3  C3          0       5.961 118.114  32.831  1.00  0.00     0.067 C 
HETATM    4  C4          0       4.962 118.451  33.737  1.00  0.00     0.103 C 
HETATM    5  O13         0       5.130 118.142  35.011  1.00  0.00    -0.307 OA
HETATM    6  C14         0       6.234 117.581  35.454  1.00  0.00     0.107 C 
HETATM    7  C15         0       6.585 117.620  36.796  1.00  0.00     0.049 C 
HETATM    8  C16         0       7.858 117.256  37.219  1.00  0.00     0.093 C 
HETATM    9  C18         0       8.533 116.387  36.370  1.00  0.00     0.048 C 
HETATM   10  C19         0       8.176 116.289  35.032  1.00  0.00     0.096 C 
HETATM   11  C21         0       7.141 117.041  34.548  1.00  0.00     0.084 C 
ENDROOT
BRANCH  10  12
HETATM   12  O20         0       9.094 115.778  34.119  1.00  0.00    -0.359 OA
HETATM   13  H20         0       8.867 114.979  33.660  1.00  0.00     0.218 HD
ENDBRANCH  10  12
BRANCH   4  14
HETATM   14  C5          0       4.100 119.584  33.394  1.00  0.00     0.025 C 
HETATM   15  C6          0       3.464 120.361  34.351  1.00  0.00     0.004 C 
HETATM   16  C7          0       3.380 121.730  34.117  1.00  0.00     0.026 C 
HETATM   17  C8          0       3.793 122.292  32.914  1.00  0.00     0.112 C 
HETATM   18  C10         0       3.805 121.413  31.839  1.00  0.00     0.112 C 
HETATM   19  C12         0       3.976 120.058  32.095  1.00  0.00     0.028 C 
BRANCH  17  20
HETATM   20  O9          0       4.341 123.561  32.876  1.00  0.00    -0.357 OA
HETATM   21  H9          0       4.396 124.136  33.631  1.00  0.00     0.218 HD
ENDBRANCH  17  20
BRANCH  18  22
HETATM   22  O11         0       4.025 121.961  30.583  1.00  0.00    -0.357 OA
HETATM   23  H11         0       4.090 122.908  30.532  1.00  0.00     0.218 HD
ENDBRANCH  18  22
ENDBRANCH   4  14
BRANCH   8  24
HETATM   24  O17         0       8.523 117.966  38.225  1.00  0.00    -0.359 OA
HETATM   25  H17         0       9.062 118.723  38.028  1.00  0.00     0.218 HD
ENDBRANCH   8  24
TORSDOF 5
ENDMDL
MODEL 2
REMARK VINA RESULT:       0.0      2.849      3.926
REMARK  5 active torsions:
REMARK  status: ('A' for Active; 'I' for Inactive)
REMARK    1  A    between atoms: C4_4  and  C5_5 
REMARK    2  A    between atoms: C8_8  and  O9_9 
REMARK    3  A    between atoms: C10_11  and  O11_12 
REMARK    4  A    between atoms: C16_18  and  O17_19 
REMARK    5  A    between atoms: C19_22  and  O20_23 
ROOT
HETATM    1  O1          0       8.416 121.937  37.739  1.00  0.00    -0.286 OA
HETATM    2  C2          0       8.331 121.305  36.650  1.00  0.00     0.201 C 
HETATM    3  C3          0       8.232 121.937  35.422  1.00  0.00     0.067 C 
HETATM    4  C4          0       8.036 121.219  34.248  1.00  0.00     0.103 C 
HETATM    5  O13         0       7.964 119.901  34.313  1.00  0.00    -0.307 OA
HETATM    6  C14         0       8.015 119.255  35.457  1.00  0.00     0.107 C 
HETATM    7  C15         0       7.549 117.954  35.582  1.00  0.00     0.049 C 
HETATM    8  C16         0       7.368 117.369  36.830  1.00  0.00     0.093 C 
HETATM    9  C18         0       8.144 117.908  37.849  1.00  0.00     0.048 C 
HETATM   10  C19         0       8.665 119.190  37.736  1.00  0.00     0.096 C 
HETATM   11  C21         0       8.426 119.923  36.605  1.00  0.00     0.084 C 
ENDROOT
BRANCH  10  12
HETATM   12  O20         0       9.048 119.873  38.887  1.00  0.00    -0.359 OA
HETATM   13  H20         0       8.419 119.938  39.596  1.00  0.00     0.218 HD
ENDBRANCH  10  12
BRANCH   4  14
HETATM   14  C5          0       7.360 121.908  33.147  1.00  0.00     0.025 C 
HETATM   15  C6          0       6.630 121.238  32.176  1.00  0.00     0.004 C 
HETATM   16  C7          0       5.459 121.836  31.722  1.00  0.00     0.026 C 
HETATM   17  C8          0       5.093 123.118  32.119  1.00  0.00     0.112 C 
HETATM   18  C10         0       6.147 123.914  32.549  1.00  0.00     0.112 C 
HETATM   19  C12         0       7.272 123.292  33.077  1.00  0.00     0.028 C 
BRANCH  17  20
HETATM   20  O9          0       3.761 123.462  32.263  1.00  0.00    -0.357 OA
HETATM   21  H9          0       3.420 123.956  33.000  1.00  0.00     0.218 HD
ENDBRANCH  17  20
BRANCH  18  22
HETATM   22  O11         0       5.869 125.254  32.776  1.00  0.00    -0.357 OA
HETATM   23  H11         0       6.574 125.872  32.621  1.00  0.00     0.218 HD
ENDBRANCH  18  22
ENDBRANCH   4  14
BRANCH   8  24
HETATM   24  O17         0       6.265 116.552  37.099  1.00  0.00    -0.359 OA
HETATM   25  H17         0       5.392 116.911  37.206  1.00  0.00     0.218 HD
ENDBRANCH   8  24
TORSDOF 5
ENDMDL
MODEL 3
REMARK VINA RESULT:       0.0      2.554      3.881
REMARK  5 active torsions:
REMARK  status: ('A' for Active; 'I' for Inactive)
REMARK    1  A    between atoms: C4_4  and  C5_5 
REMARK    2  A    between atoms: C8_8  and  O9_9 
REMARK    3  A    between atoms: C10_11  and  O11_12 
REMARK    4  A    between atoms: C16_18  and  O17_19 
REMARK    5  A    between atoms: C19_22  and  O20_23 
ROOT
HETATM    1  O1          0       9.478 119.618  37.446  1.00  0.00    -0.286 OA
HETATM    2  C2          0       9.393 118.987  36.357  1.00  0.00     0.201 C 
HETATM    3  C3          0       9.294 119.618  35.129  1.00  0.00     0.067 C 
HETATM    4  C4          0       9.099 118.901  33.954  1.00  0.00     0.103 C 
HETATM    5  O13         0       9.027 117.583  34.020  1.00  0.00    -0.307 OA
HETATM    6  C14         0       9.077 116.936  35.164  1.00  0.00     0.107 C 
HETATM    7  C15         0       8.612 115.635  35.289  1.00  0.00     0.049 C 
HETATM    8  C16         0       8.431 115.050  36.536  1.00  0.00     0.093 C 
HETATM    9  C18         0       9.206 115.590  37.555  1.00  0.00     0.048 C 
HETATM   10  C19         0       9.727 116.872  37.443  1.00  0.00     0.096 C 
HETATM   11  C21         0       9.489 117.604  36.312  1.00  0.00     0.084 C 
ENDROOT
BRANCH  10  12
HETATM   12  O20         0      10.110 117.554  38.593  1.00  0.00    -0.359 OA
HETATM   13  H20         0       9.481 117.620  39.302  1.00  0.00     0.218 HD
ENDBRANCH  10  12
BRANCH   4  14
HETATM   14  C5          0       8.422 119.590  32.853  1.00  0.00     0.025 C 
HETATM   15  C6          0       7.693 118.919  31.882  1.00  0.00     0.004 C 
HETATM   16  C7          0       6.522 119.518  31.428  1.00  0.00     0.026 C 
HETATM   17  C8          0       6.156 120.799  31.825  1.00  0.00     0.112 C 
HETATM   18  C10         0       7.209 121.596  32.255  1.00  0.00     0.112 C 
HETATM   19  C12         0       8.334 120.974  32.784  1.00  0.00     0.028 C 
BRANCH  17  20
HETATM   20  O9          0       4.824 121.143  31.970  1.00  0.00    -0.357 OA
HETATM   21  H9          0       4.483 121.637  32.706  1.00  0.00     0.218 HD
ENDBRANCH  17  20
BRANCH  18  22
HETATM   22  O11         0       6.931 122.936  32.482  1.00  0.00    -0.357 OA
HETATM   23  H11         0       7.636 123.554  32.328  1.00  0.00     0.218 HD
ENDBRANCH  18  22
ENDBRANCH   4  14
BRANCH   8  24
HETATM   24  O17         0       7.327 114.233  36.805  1.00  0.00    -0.359 OA
HETATM   25  H17         0       7.430 113.343  37.121  1.00  0.00     0.218 HD
ENDBRANCH   8  24
TORSDOF 5
ENDMDL
MODEL 4
REMARK VINA RESULT:       0.0      9.808     12.592
REMARK  5 active torsions:
REMARK  status: ('A' for Active; 'I' for Inactive)
REMARK    1  A    between atoms: C4_4  and  C5_5 
REMARK    2  A    between atoms: C8_8  and  O9_9 
REMARK    3  A    between atoms: C10_11  and  O11_12 
REMARK    4  A    between atoms: C16_18  and  O17_19 
REMARK    5  A    between atoms: C19_22  and  O20_23 
ROOT
HETATM    1  O1          0      18.189 119.373  40.408  1.00  0.00    -0.286 OA
HETATM    2  C2          0      17.342 118.564  39.938  1.00  0.00     0.201 C 
HETATM    3  C3          0      17.694 117.489  39.139  1.00  0.00     0.067 C 
HETATM    4  C4          0      16.734 116.674  38.550  1.00  0.00     0.103 C 
HETATM    5  O13         0      15.458 116.928  38.780  1.00  0.00    -0.307 OA
HETATM    6  C14         0      15.069 117.957  39.500  1.00  0.00     0.107 C 
HETATM    7  C15         0      13.778 118.459  39.420  1.00  0.00     0.049 C 
HETATM    8  C16         0      13.445 119.686  39.979  1.00  0.00     0.093 C 
HETATM    9  C18         0      14.263 120.097  41.025  1.00  0.00     0.048 C 
HETATM   10  C19         0      15.544 119.580  41.162  1.00  0.00     0.096 C 
HETATM   11  C21         0      15.999 118.646  40.271  1.00  0.00     0.084 C 
ENDROOT
BRANCH  10  12
HETATM   12  O20         0      16.486 120.284  41.907  1.00  0.00    -0.359 OA
HETATM   13  H20         0      17.243 120.633  41.452  1.00  0.00     0.218 HD
ENDBRANCH  10  12
BRANCH   4  14
HETATM   14  C5          0      17.105 115.994  37.307  1.00  0.00     0.025 C 
HETATM   15  C6          0      16.174 115.617  36.350  1.00  0.00     0.004 C 
HETATM   16  C7          0      16.534 115.751  35.013  1.00  0.00     0.026 C 
HETATM   17  C8          0      17.821 116.119  34.638  1.00  0.00     0.112 C 
HETATM   18  C10         0      18.800 115.854  35.586  1.00  0.00     0.112 C 
HETATM   19  C12         0      18.427 115.810  36.925  1.00  0.00     0.028 C 
BRANCH  17  20
HETATM   20  O9          0      18.039 116.876  33.500  1.00  0.00    -0.357 OA
HETATM   21  H9          0      17.349 117.144  32.904  1.00  0.00     0.218 HD
ENDBRANCH  17  20
BRANCH  18  22
HETATM   22  O11         0      20.119 116.025  35.193  1.00  0.00    -0.357 OA
HETATM   23  H11         0      20.317 116.798  34.677  1.00  0.00     0.218 HD
ENDBRANCH  18  22
ENDBRANCH   4  14
BRANCH   8  24
HETATM   24  O17         0      12.583 120.576  39.327  1.00  0.00    -0.359 OA
HETATM   25  H17         0      12.116 121.254  39.799  1.00  0.00     0.218 HD
ENDBRANCH   8  24
TORSDOF 5
ENDMDL
MODEL 5
REMARK VINA RESULT:       0.0     12.373     15.411
REMARK  5 active torsions:
REMARK  status: ('A' for Active; 'I' for Inactive)
REMARK    1  A    between atoms: C4_4  and  C5_5 
REMARK    2  A    between atoms: C8_8  and  O9_9 
REMARK    3  A    between atoms: C10_11  and  O11_12 
REMARK    4  A    between atoms: C16_18  and  O17_19 
REMARK    5  A    between atoms: C19_22  and  O20_23 
ROOT
HETATM    1  O1          0      18.090 115.511  38.823  1.00  0.00    -0.286 OA
HETATM    2  C2          0      18.263 116.246  39.834  1.00  0.00     0.201 C 
HETATM    3  C3          0      18.650 115.748  41.066  1.00  0.00     0.067 C 
HETATM    4  C4          0      18.734 116.565  42.188  1.00  0.00     0.103 C 
HETATM    5  O13         0      18.455 117.851  42.060  1.00  0.00    -0.307 OA
HETATM    6  C14         0      18.046 118.367  40.921  1.00  0.00     0.107 C 
HETATM    7  C15         0      17.382 119.584  40.867  1.00  0.00     0.049 C 
HETATM    8  C16         0      16.733 120.001  39.711  1.00  0.00     0.093 C 
HETATM    9  C18         0      17.216 119.444  38.534  1.00  0.00     0.048 C 
HETATM   10  C19         0      17.926 118.251  38.557  1.00  0.00     0.096 C 
HETATM   11  C21         0      18.166 117.627  39.750  1.00  0.00     0.084 C 
ENDROOT
BRANCH  10  12
HETATM   12  O20         0      18.020 117.493  37.393  1.00  0.00    -0.359 OA
HETATM   13  H20         0      17.248 117.421  36.845  1.00  0.00     0.218 HD
ENDBRANCH  10  12
BRANCH   4  14
HETATM   14  C5          0      18.548 115.931  43.494  1.00  0.00     0.025 C 
HETATM   15  C6          0      18.074 116.617  44.603  1.00  0.00     0.004 C 
HETATM   16  C7          0      17.206 115.943  45.456  1.00  0.00     0.026 C 
HETATM   17  C8          0      16.923 114.591  45.290  1.00  0.00     0.112 C 
HETATM   18  C10         0      17.890 113.878  44.593  1.00  0.00     0.112 C 
HETATM   19  C12         0      18.688 114.562  43.684  1.00  0.00     0.028 C 
BRANCH  17  20
HETATM   20  O9          0      15.678 114.082  45.615  1.00  0.00    -0.357 OA
HETATM   21  H9          0      15.479 113.154  45.645  1.00  0.00     0.218 HD
ENDBRANCH  17  20
BRANCH  18  22
HETATM   22  O11         0      17.752 112.498  44.562  1.00  0.00    -0.357 OA
HETATM   23  H11         0      16.897 112.146  44.781  1.00  0.00     0.218 HD
ENDBRANCH  18  22
ENDBRANCH   4  14
BRANCH   8  24
HETATM   24  O17         0      15.495 120.651  39.764  1.00  0.00    -0.359 OA
HETATM   25  H17         0      14.707 120.201  40.046  1.00  0.00     0.218 HD
ENDBRANCH   8  24
TORSDOF 5
ENDMDL
MODEL 6
REMARK VINA RESULT:       0.0      2.630      6.924
REMARK  5 active torsions:
REMARK  status: ('A' for Active; 'I' for Inactive)
REMARK    1  A    between atoms: C4_4  and  C5_5 
REMARK    2  A    between atoms: C8_8  and  O9_9 
REMARK    3  A    between atoms: C10_11  and  O11_12 
REMARK    4  A    between atoms: C16_18  and  O17_19 
REMARK    5  A    between atoms: C19_22  and  O20_23 
ROOT
HETATM    1  O1          0       7.451 123.480  32.853  1.00  0.00    -0.286 OA
HETATM    2  C2          0       7.060 122.336  33.214  1.00  0.00     0.201 C 
HETATM    3  C3          0       7.858 121.463  33.935  1.00  0.00     0.067 C 
HETATM    4  C4          0       7.441 120.170  34.231  1.00  0.00     0.103 C 
HETATM    5  O13         0       6.244 119.782  33.828  1.00  0.00    -0.307 OA
HETATM    6  C14         0       5.462 120.557  33.109  1.00  0.00     0.107 C 
HETATM    7  C15         0       4.415 120.045  32.358  1.00  0.00     0.049 C 
HETATM    8  C16         0       3.758 120.821  31.410  1.00  0.00     0.093 C 
HETATM    9  C18         0       3.825 122.192  31.627  1.00  0.00     0.048 C 
HETATM   10  C19         0       4.833 122.734  32.412  1.00  0.00     0.096 C 
HETATM   11  C21         0       5.760 121.911  32.991  1.00  0.00     0.084 C 
ENDROOT
BRANCH  10  12
HETATM   12  O20         0       5.154 124.081  32.273  1.00  0.00    -0.359 OA
HETATM   13  H20         0       4.593 124.618  31.726  1.00  0.00     0.218 HD
ENDBRANCH  10  12
BRANCH   4  14
HETATM   14  C5          0       8.481 119.159  34.427  1.00  0.00     0.025 C 
HETATM   15  C6          0       8.271 117.808  34.193  1.00  0.00     0.004 C 
HETATM   16  C7          0       9.312 117.084  33.621  1.00  0.00     0.026 C 
HETATM   17  C8          0      10.566 117.648  33.413  1.00  0.00     0.112 C 
HETATM   18  C10         0      10.855 118.734  34.229  1.00  0.00     0.112 C 
HETATM   19  C12         0       9.798 119.493  34.718  1.00  0.00     0.028 C 
BRANCH  17  20
HETATM   20  O9          0      11.343 117.270  32.333  1.00  0.00    -0.357 OA
HETATM   21  H9          0      11.863 117.877  31.818  1.00  0.00     0.218 HD
ENDBRANCH  17  20
BRANCH  18  22
HETATM   22  O11         0      12.156 119.215  34.197  1.00  0.00    -0.357 OA
HETATM   23  H11         0      12.834 118.643  34.538  1.00  0.00     0.218 HD
ENDBRANCH  18  22
ENDBRANCH   4  14
BRANCH   8  24
HETATM   24  O17         0       3.366 120.289  30.177  1.00  0.00    -0.359 OA
HETATM   25  H17         0       3.366 120.812  29.385  1.00  0.00     0.218 HD
ENDBRANCH   8  24
TORSDOF 5
ENDMDL
MODEL 7
REMARK VINA RESULT:       0.0      6.555      8.585
REMARK  5 active torsions:
REMARK  status: ('A' for Active; 'I' for Inactive)
REMARK    1  A    between atoms: C4_4  and  C5_5 
REMARK    2  A    between atoms: C8_8  and  O9_9 
REMARK    3  A    between atoms: C10_11  and  O11_12 
REMARK    4  A    between atoms: C16_18  and  O17_19 
REMARK    5  A    between atoms: C19_22  and  O20_23 
ROOT
HETATM    1  O1          0      11.528 115.337  38.219  1.00  0.00    -0.286 OA
HETATM    2  C2          0      10.329 115.666  38.432  1.00  0.00     0.201 C 
HETATM    3  C3          0       9.965 116.597  39.390  1.00  0.00     0.067 C 
HETATM    4  C4          0       8.631 116.865  39.675  1.00  0.00     0.103 C 
HETATM    5  O13         0       7.696 116.225  38.995  1.00  0.00    -0.307 OA
HETATM    6  C14         0       7.986 115.305  38.102  1.00  0.00     0.107 C 
HETATM    7  C15         0       7.051 114.368  37.687  1.00  0.00     0.049 C 
HETATM    8  C16         0       7.426 113.254  36.946  1.00  0.00     0.093 C 
HETATM    9  C18         0       8.602 113.401  36.219  1.00  0.00     0.048 C 
HETATM   10  C19         0       9.538 114.360  36.579  1.00  0.00     0.096 C 
HETATM   11  C21         0       9.295 115.180  37.647  1.00  0.00     0.084 C 
ENDROOT
BRANCH  10  12
HETATM   12  O20         0      10.855 114.220  36.151  1.00  0.00    -0.359 OA
HETATM   13  H20         0      11.182 113.341  36.000  1.00  0.00     0.218 HD
ENDBRANCH  10  12
BRANCH   4  14
HETATM   14  C5          0       8.318 117.349  41.021  1.00  0.00     0.025 C 
HETATM   15  C6          0       7.084 117.150  41.623  1.00  0.00     0.004 C 
HETATM   16  C7          0       7.069 116.871  42.986  1.00  0.00     0.026 C 
HETATM   17  C8          0       8.228 116.919  43.753  1.00  0.00     0.112 C 
HETATM   18  C10         0       9.238 117.715  43.228  1.00  0.00     0.112 C 
HETATM   19  C12         0       9.279 117.909  41.853  1.00  0.00     0.028 C 
BRANCH  17  20
HETATM   20  O9          0       8.403 116.066  44.828  1.00  0.00    -0.357 OA
HETATM   21  H9          0       8.341 115.120  44.766  1.00  0.00     0.218 HD
ENDBRANCH  17  20
BRANCH  18  22
HETATM   22  O11         0      10.339 117.950  44.040  1.00  0.00    -0.357 OA
HETATM   23  H11         0      10.917 117.214  44.203  1.00  0.00     0.218 HD
ENDBRANCH  18  22
ENDBRANCH   4  14
BRANCH   8  24
HETATM   24  O17         0       6.859 111.997  37.182  1.00  0.00    -0.359 OA
HETATM   25  H17         0       6.004 111.902  37.584  1.00  0.00     0.218 HD
ENDBRANCH   8  24
TORSDOF 5
ENDMDL
MODEL 8
REMARK VINA RESULT:       0.0      5.832     10.130
REMARK  5 active torsions:
REMARK  status: ('A' for Active; 'I' for Inactive)
REMARK    1  A    between atoms: C4_4  and  C5_5 
REMARK    2  A    between atoms: C8_8  and  O9_9 
REMARK    3  A    between atoms: C10_11  and  O11_12 
REMARK    4  A    between atoms: C16_18  and  O17_19 
REMARK    5  A    between atoms: C19_22  and  O20_23 
ROOT
HETATM    1  O1          0       8.808 122.545  40.576  1.00  0.00    -0.286 OA
HETATM    2  C2          0       9.283 121.412  40.286  1.00  0.00     0.201 C 
HETATM    3  C3          0      10.136 120.718  41.128  1.00  0.00     0.067 C 
HETATM    4  C4          0      10.725 119.520  40.742  1.00  0.00     0.103 C 
HETATM    5  O13         0      10.443 119.030  39.548  1.00  0.00    -0.307 OA
HETATM    6  C14         0       9.669 119.666  38.695  1.00  0.00     0.107 C 
HETATM    7  C15         0       9.687 119.381  37.338  1.00  0.00     0.049 C 
HETATM    8  C16         0       9.068 120.216  36.416  1.00  0.00     0.093 C 
HETATM    9  C18         0       8.034 120.991  36.929  1.00  0.00     0.048 C 
HETATM   10  C19         0       7.960 121.258  38.289  1.00  0.00     0.096 C 
HETATM   11  C21         0       8.902 120.740  39.135  1.00  0.00     0.084 C 
ENDROOT
BRANCH  10  12
HETATM   12  O20         0       7.219 122.351  38.728  1.00  0.00    -0.359 OA
HETATM   13  H20         0       7.672 123.177  38.848  1.00  0.00     0.218 HD
ENDBRANCH  10  12
BRANCH   4  14
HETATM   14  C5          0      12.006 119.173  41.361  1.00  0.00     0.025 C 
HETATM   15  C6          0      12.946 118.363  40.741  1.00  0.00     0.004 C 
HETATM   16  C7          0      14.288 118.694  40.903  1.00  0.00     0.026 C 
HETATM   17  C8          0      14.690 119.712  41.759  1.00  0.00     0.112 C 
HETATM   18  C10         0      13.786 120.012  42.769  1.00  0.00     0.112 C 
HETATM   19  C12         0      12.439 119.750  42.548  1.00  0.00     0.028 C 
BRANCH  17  20
HETATM   20  O9          0      15.803 120.482  41.472  1.00  0.00    -0.357 OA
HETATM   21  H9          0      15.834 121.124  40.771  1.00  0.00     0.218 HD
ENDBRANCH  17  20
BRANCH  18  22
HETATM   22  O11         0      14.215 120.884  43.760  1.00  0.00    -0.357 OA
HETATM   23  H11         0      13.572 121.149  44.407  1.00  0.00     0.218 HD
ENDBRANCH  18  22
ENDBRANCH   4  14
BRANCH   8  24
HETATM   24  O17         0       9.655 120.499  35.178  1.00  0.00    -0.359 OA
HETATM   25  H17         0       9.645 119.870  34.466  1.00  0.00     0.218 HD
ENDBRANCH   8  24
TORSDOF 5
ENDMDL
MODEL 9
REMARK VINA RESULT:       0.0     11.932     13.136
REMARK  5 active torsions:
REMARK  status: ('A' for Active; 'I' for Inactive)
REMARK    1  A    between atoms: C4_4  and  C5_5 
REMARK    2  A    between atoms: C8_8  and  O9_9 
REMARK    3  A    between atoms: C10_11  and  O11_12 
REMARK    4  A    between atoms: C16_18  and  O17_19 
REMARK    5  A    between atoms: C19_22  and  O20_23 
ROOT
HETATM    1  O1          0      12.469 123.101  42.932  1.00  0.00    -0.286 OA
HETATM    2  C2          0      11.555 123.487  43.711  1.00  0.00     0.201 C 
HETATM    3  C3          0      10.579 124.393  43.333  1.00  0.00     0.067 C 
HETATM    4  C4          0       9.645 124.880  44.240  1.00  0.00     0.103 C 
HETATM    5  O13         0       9.687 124.446  45.488  1.00  0.00    -0.307 OA
HETATM    6  C14         0      10.615 123.615  45.909  1.00  0.00     0.107 C 
HETATM    7  C15         0      10.911 123.471  47.256  1.00  0.00     0.049 C 
HETATM    8  C16         0      12.050 122.795  47.677  1.00  0.00     0.093 C 
HETATM    9  C18         0      12.545 121.861  46.775  1.00  0.00     0.048 C 
HETATM   10  C19         0      12.231 121.949  45.426  1.00  0.00     0.096 C 
HETATM   11  C21         0      11.413 122.952  44.983  1.00  0.00     0.084 C 
ENDROOT
BRANCH  10  12
HETATM   12  O20         0      13.046 121.312  44.495  1.00  0.00    -0.359 OA
HETATM   13  H20         0      13.968 121.539  44.482  1.00  0.00     0.218 HD
ENDBRANCH  10  12
BRANCH   4  14
HETATM   14  C5          0       9.077 126.203  43.973  1.00  0.00     0.025 C 
HETATM   15  C6          0       8.594 127.031  44.976  1.00  0.00     0.004 C 
HETATM   16  C7          0       8.832 128.396  44.855  1.00  0.00     0.026 C 
HETATM   17  C8          0       9.410 128.937  43.712  1.00  0.00     0.112 C 
HETATM   18  C10         0       9.268 128.163  42.568  1.00  0.00     0.112 C 
HETATM   19  C12         0       9.118 126.789  42.714  1.00  0.00     0.028 C 
BRANCH  17  20
HETATM   20  O9          0      10.233 130.047  43.791  1.00  0.00    -0.357 OA
HETATM   21  H9          0      10.039 130.810  44.323  1.00  0.00     0.218 HD
ENDBRANCH  17  20
BRANCH  18  22
HETATM   22  O11         0       9.659 128.739  41.367  1.00  0.00    -0.357 OA
HETATM   23  H11         0       9.676 129.688  41.331  1.00  0.00     0.218 HD
ENDBRANCH  18  22
ENDBRANCH   4  14
BRANCH   8  24
HETATM   24  O17         0      12.816 123.257  48.754  1.00  0.00    -0.359 OA
HETATM   25  H17         0      13.741 123.056  48.830  1.00  0.00     0.218 HD
ENDBRANCH   8  24
TORSDOF 5
ENDMDL
