MODEL 1
REMARK VINA RESULT:      -6.1      0.000      0.000
REMARK  5 active torsions:
REMARK  status: ('A' for Active; 'I' for Inactive)
REMARK    1  A    between atoms: C4_4  and  C5_5 
REMARK    2  A    between atoms: C8_8  and  O9_9 
REMARK    3  A    between atoms: C10_11  and  O11_12 
REMARK    4  A    between atoms: C16_18  and  O17_19 
REMARK    5  A    between atoms: C19_22  and  O20_23 
ROOT
HETATM    1  O1          0      40.349  96.255 -11.499  1.00  0.00    -0.286 OA
HETATM    2  C2          0      41.332  96.658 -12.180  1.00  0.00     0.201 C 
HETATM    3  C3          0      42.599  96.113 -12.064  1.00  0.00     0.067 C 
HETATM    4  C4          0      43.686  96.644 -12.750  1.00  0.00     0.103 C 
HETATM    5  O13         0      43.490  97.680 -13.546  1.00  0.00    -0.307 OA
HETATM    6  C14         0      42.315  98.258 -13.664  1.00  0.00     0.107 C 
HETATM    7  C15         0      42.181  99.548 -14.158  1.00  0.00     0.049 C 
HETATM    8  C16         0      40.983 100.244 -14.044  1.00  0.00     0.093 C 
HETATM    9  C18         0      39.851  99.447 -13.923  1.00  0.00     0.048 C 
HETATM   10  C19         0      39.954  98.137 -13.475  1.00  0.00     0.096 C 
HETATM   11  C21         0      41.183  97.620 -13.167  1.00  0.00     0.084 C 
ENDROOT
BRANCH  10  12
HETATM   12  O20         0      38.831  97.508 -12.949  1.00  0.00    -0.359 OA
HETATM   13  H20         0      38.612  97.674 -12.040  1.00  0.00     0.218 HD
ENDBRANCH  10  12
BRANCH   4  14
HETATM   14  C5          0      45.011  96.450 -12.158  1.00  0.00     0.025 C 
HETATM   15  C6          0      45.254  95.541 -11.140  1.00  0.00     0.004 C 
HETATM   16  C7          0      46.454  94.837 -11.177  1.00  0.00     0.026 C 
HETATM   17  C8          0      47.438  95.123 -12.117  1.00  0.00     0.112 C 
HETATM   18  C10         0      47.381  96.405 -12.645  1.00  0.00     0.112 C 
HETATM   19  C12         0      46.152  97.053 -12.673  1.00  0.00     0.028 C 
BRANCH  17  20
HETATM   20  O9          0      48.254  94.122 -12.615  1.00  0.00    -0.357 OA
HETATM   21  H9          0      48.360  93.940 -13.542  1.00  0.00     0.218 HD
ENDBRANCH  17  20
BRANCH  18  22
HETATM   22  O11         0      48.444  96.805 -13.441  1.00  0.00    -0.357 OA
HETATM   23  H11         0      48.948  96.119 -13.863  1.00  0.00     0.218 HD
ENDBRANCH  18  22
ENDBRANCH   4  14
BRANCH   8  24
HETATM   24  O17         0      40.960 101.608 -13.736  1.00  0.00    -0.359 OA
HETATM   25  H17         0      40.439 102.224 -14.238  1.00  0.00     0.218 HD
ENDBRANCH   8  24
TORSDOF 5
ENDMDL
MODEL 2
REMARK VINA RESULT:      -6.1      4.667      7.021
REMARK  5 active torsions:
REMARK  status: ('A' for Active; 'I' for Inactive)
REMARK    1  A    between atoms: C4_4  and  C5_5 
REMARK    2  A    between atoms: C8_8  and  O9_9 
REMARK    3  A    between atoms: C10_11  and  O11_12 
REMARK    4  A    between atoms: C16_18  and  O17_19 
REMARK    5  A    between atoms: C19_22  and  O20_23 
ROOT
HETATM    1  O1          0      35.878  93.230 -15.248  1.00  0.00    -0.286 OA
HETATM    2  C2          0      36.155  94.345 -14.725  1.00  0.00     0.201 C 
HETATM    3  C3          0      37.452  94.741 -14.446  1.00  0.00     0.067 C 
HETATM    4  C4          0      37.723  95.929 -13.776  1.00  0.00     0.103 C 
HETATM    5  O13         0      36.712  96.701 -13.420  1.00  0.00    -0.307 OA
HETATM    6  C14         0      35.460  96.354 -13.627  1.00  0.00     0.107 C 
HETATM    7  C15         0      34.415  96.935 -12.923  1.00  0.00     0.049 C 
HETATM    8  C16         0      33.135  96.395 -12.957  1.00  0.00     0.093 C 
HETATM    9  C18         0      32.848  95.635 -14.084  1.00  0.00     0.048 C 
HETATM   10  C19         0      33.872  95.078 -14.838  1.00  0.00     0.096 C 
HETATM   11  C21         0      35.174  95.294 -14.479  1.00  0.00     0.084 C 
ENDROOT
BRANCH  10  12
HETATM   12  O20         0      33.595  93.996 -15.668  1.00  0.00    -0.359 OA
HETATM   13  H20         0      34.311  93.623 -16.168  1.00  0.00     0.218 HD
ENDBRANCH  10  12
BRANCH   4  14
HETATM   14  C5          0      38.966  95.995 -13.006  1.00  0.00     0.025 C 
HETATM   15  C6          0      39.922  94.989 -13.033  1.00  0.00     0.004 C 
HETATM   16  C7          0      41.260  95.371 -13.013  1.00  0.00     0.026 C 
HETATM   17  C8          0      41.637  96.697 -12.838  1.00  0.00     0.112 C 
HETATM   18  C10         0      40.691  97.491 -12.204  1.00  0.00     0.112 C 
HETATM   19  C12         0      39.352  97.134 -12.311  1.00  0.00     0.028 C 
BRANCH  17  20
HETATM   20  O9          0      42.775  97.197 -13.446  1.00  0.00    -0.357 OA
HETATM   21  H9          0      43.069  96.935 -14.311  1.00  0.00     0.218 HD
ENDBRANCH  17  20
BRANCH  18  22
HETATM   22  O11         0      41.087  98.769 -11.835  1.00  0.00    -0.357 OA
HETATM   23  H11         0      41.716  98.836 -11.127  1.00  0.00     0.218 HD
ENDBRANCH  18  22
ENDBRANCH   4  14
BRANCH   8  24
HETATM   24  O17         0      32.336  96.340 -11.809  1.00  0.00    -0.359 OA
HETATM   25  H17         0      32.571  96.806 -11.015  1.00  0.00     0.218 HD
ENDBRANCH   8  24
TORSDOF 5
ENDMDL
MODEL 3
REMARK VINA RESULT:      -6.0      4.036      8.131
REMARK  5 active torsions:
REMARK  status: ('A' for Active; 'I' for Inactive)
REMARK    1  A    between atoms: C4_4  and  C5_5 
REMARK    2  A    between atoms: C8_8  and  O9_9 
REMARK    3  A    between atoms: C10_11  and  O11_12 
REMARK    4  A    between atoms: C16_18  and  O17_19 
REMARK    5  A    between atoms: C19_22  and  O20_23 
ROOT
HETATM    1  O1          0      41.103  94.279 -13.132  1.00  0.00    -0.286 OA
HETATM    2  C2          0      40.215  95.156 -13.320  1.00  0.00     0.201 C 
HETATM    3  C3          0      38.873  94.845 -13.464  1.00  0.00     0.067 C 
HETATM    4  C4          0      37.930  95.819 -13.772  1.00  0.00     0.103 C 
HETATM    5  O13         0      38.330  97.070 -13.909  1.00  0.00    -0.307 OA
HETATM    6  C14         0      39.597  97.413 -13.820  1.00  0.00     0.107 C 
HETATM    7  C15         0      40.070  98.607 -14.344  1.00  0.00     0.049 C 
HETATM    8  C16         0      41.432  98.848 -14.476  1.00  0.00     0.093 C 
HETATM    9  C18         0      42.242  98.125 -13.609  1.00  0.00     0.048 C 
HETATM   10  C19         0      41.784  96.950 -13.030  1.00  0.00     0.096 C 
HETATM   11  C21         0      40.517  96.509 -13.301  1.00  0.00     0.084 C 
ENDROOT
BRANCH  10  12
HETATM   12  O20         0      42.704  96.029 -12.538  1.00  0.00    -0.359 OA
HETATM   13  H20         0      43.515  95.912 -13.017  1.00  0.00     0.218 HD
ENDBRANCH  10  12
BRANCH   4  14
HETATM   14  C5          0      36.725  95.383 -14.480  1.00  0.00     0.025 C 
HETATM   15  C6          0      36.578  94.104 -14.998  1.00  0.00     0.004 C 
HETATM   16  C7          0      35.323  93.511 -14.904  1.00  0.00     0.026 C 
HETATM   17  C8          0      34.218  94.212 -14.433  1.00  0.00     0.112 C 
HETATM   18  C10         0      34.315  95.592 -14.549  1.00  0.00     0.112 C 
HETATM   19  C12         0      35.581  96.167 -14.555  1.00  0.00     0.028 C 
BRANCH  17  20
HETATM   20  O9          0      33.221  93.568 -13.723  1.00  0.00    -0.357 OA
HETATM   21  H9          0      32.421  93.992 -13.434  1.00  0.00     0.218 HD
ENDBRANCH  17  20
BRANCH  18  22
HETATM   22  O11         0      33.172  96.327 -14.272  1.00  0.00    -0.357 OA
HETATM   23  H11         0      32.362  96.031 -14.672  1.00  0.00     0.218 HD
ENDBRANCH  18  22
ENDBRANCH   4  14
BRANCH   8  24
HETATM   24  O17         0      41.953  99.497 -15.601  1.00  0.00    -0.359 OA
HETATM   25  H17         0      42.676 100.108 -15.535  1.00  0.00     0.218 HD
ENDBRANCH   8  24
TORSDOF 5
ENDMDL
MODEL 4
REMARK VINA RESULT:      -6.0      3.826      7.963
REMARK  5 active torsions:
REMARK  status: ('A' for Active; 'I' for Inactive)
REMARK    1  A    between atoms: C4_4  and  C5_5 
REMARK    2  A    between atoms: C8_8  and  O9_9 
REMARK    3  A    between atoms: C10_11  and  O11_12 
REMARK    4  A    between atoms: C16_18  and  O17_19 
REMARK    5  A    between atoms: C19_22  and  O20_23 
ROOT
HETATM    1  O1          0      40.681  94.198 -13.218  1.00  0.00    -0.286 OA
HETATM    2  C2          0      40.034  95.264 -13.406  1.00  0.00     0.201 C 
HETATM    3  C3          0      38.669  95.283 -13.636  1.00  0.00     0.067 C 
HETATM    4  C4          0      37.998  96.462 -13.942  1.00  0.00     0.103 C 
HETATM    5  O13         0      38.686  97.589 -13.992  1.00  0.00    -0.307 OA
HETATM    6  C14         0      39.989  97.621 -13.818  1.00  0.00     0.107 C 
HETATM    7  C15         0      40.758  98.691 -14.254  1.00  0.00     0.049 C 
HETATM    8  C16         0      42.145  98.610 -14.301  1.00  0.00     0.093 C 
HETATM    9  C18         0      42.709  97.684 -13.432  1.00  0.00     0.048 C 
HETATM   10  C19         0      41.954  96.628 -12.940  1.00  0.00     0.096 C 
HETATM   11  C21         0      40.640  96.507 -13.300  1.00  0.00     0.084 C 
ENDROOT
BRANCH  10  12
HETATM   12  O20         0      42.603  95.499 -12.450  1.00  0.00    -0.359 OA
HETATM   13  H20         0      42.130  94.941 -11.844  1.00  0.00     0.218 HD
ENDBRANCH  10  12
BRANCH   4  14
HETATM   14  C5          0      36.772  96.349 -14.734  1.00  0.00     0.025 C 
HETATM   15  C6          0      36.644  96.895 -16.002  1.00  0.00     0.004 C 
HETATM   16  C7          0      35.934  96.165 -16.950  1.00  0.00     0.026 C 
HETATM   17  C8          0      35.260  94.995 -16.615  1.00  0.00     0.112 C 
HETATM   18  C10         0      34.922  94.885 -15.273  1.00  0.00     0.112 C 
HETATM   19  C12         0      35.701  95.558 -14.338  1.00  0.00     0.028 C 
BRANCH  17  20
HETATM   20  O9          0      35.144  93.958 -17.524  1.00  0.00    -0.357 OA
HETATM   21  H9          0      35.852  93.671 -18.090  1.00  0.00     0.218 HD
ENDBRANCH  17  20
BRANCH  18  22
HETATM   22  O11         0      34.088  93.834 -14.918  1.00  0.00    -0.357 OA
HETATM   23  H11         0      34.505  93.049 -14.582  1.00  0.00     0.218 HD
ENDBRANCH  18  22
ENDBRANCH   4  14
BRANCH   8  24
HETATM   24  O17         0      42.872  99.161 -15.362  1.00  0.00    -0.359 OA
HETATM   25  H17         0      43.174 100.062 -15.346  1.00  0.00     0.218 HD
ENDBRANCH   8  24
TORSDOF 5
ENDMDL
MODEL 5
REMARK VINA RESULT:      -5.9      4.820      7.344
REMARK  5 active torsions:
REMARK  status: ('A' for Active; 'I' for Inactive)
REMARK    1  A    between atoms: C4_4  and  C5_5 
REMARK    2  A    between atoms: C8_8  and  O9_9 
REMARK    3  A    between atoms: C10_11  and  O11_12 
REMARK    4  A    between atoms: C16_18  and  O17_19 
REMARK    5  A    between atoms: C19_22  and  O20_23 
ROOT
HETATM    1  O1          0      34.305  97.925 -13.743  1.00  0.00    -0.286 OA
HETATM    2  C2          0      35.125  96.971 -13.835  1.00  0.00     0.201 C 
HETATM    3  C3          0      36.403  97.027 -13.307  1.00  0.00     0.067 C 
HETATM    4  C4          0      37.321  96.003 -13.510  1.00  0.00     0.103 C 
HETATM    5  O13         0      36.948  94.945 -14.209  1.00  0.00    -0.307 OA
HETATM    6  C14         0      35.759  94.858 -14.764  1.00  0.00     0.107 C 
HETATM    7  C15         0      35.499  93.976 -15.802  1.00  0.00     0.049 C 
HETATM    8  C16         0      34.331  94.064 -16.550  1.00  0.00     0.093 C 
HETATM    9  C18         0      33.264  94.673 -15.901  1.00  0.00     0.048 C 
HETATM   10  C19         0      33.485  95.526 -14.828  1.00  0.00     0.096 C 
HETATM   11  C21         0      34.762  95.756 -14.395  1.00  0.00     0.084 C 
ENDROOT
BRANCH  10  12
HETATM   12  O20         0      32.502  96.446 -14.477  1.00  0.00    -0.359 OA
HETATM   13  H20         0      32.779  97.317 -14.217  1.00  0.00     0.218 HD
ENDBRANCH  10  12
BRANCH   4  14
HETATM   14  C5          0      38.741  96.359 -13.475  1.00  0.00     0.025 C 
HETATM   15  C6          0      39.194  97.604 -13.066  1.00  0.00     0.004 C 
HETATM   16  C7          0      40.364  97.650 -12.315  1.00  0.00     0.026 C 
HETATM   17  C8          0      41.132  96.512 -12.091  1.00  0.00     0.112 C 
HETATM   18  C10         0      40.959  95.503 -13.028  1.00  0.00     0.112 C 
HETATM   19  C12         0      39.747  95.429 -13.704  1.00  0.00     0.028 C 
BRANCH  17  20
HETATM   20  O9          0      41.833  96.352 -10.909  1.00  0.00    -0.357 OA
HETATM   21  H9          0      42.760  96.535 -10.816  1.00  0.00     0.218 HD
ENDBRANCH  17  20
BRANCH  18  22
HETATM   22  O11         0      41.834  94.428 -12.962  1.00  0.00    -0.357 OA
HETATM   23  H11         0      42.761  94.622 -13.036  1.00  0.00     0.218 HD
ENDBRANCH  18  22
ENDBRANCH   4  14
BRANCH   8  24
HETATM   24  O17         0      34.335  93.868 -17.935  1.00  0.00    -0.359 OA
HETATM   25  H17         0      35.039  94.192 -18.483  1.00  0.00     0.218 HD
ENDBRANCH   8  24
TORSDOF 5
ENDMDL
MODEL 6
REMARK VINA RESULT:      -5.8      2.296      3.759
REMARK  5 active torsions:
REMARK  status: ('A' for Active; 'I' for Inactive)
REMARK    1  A    between atoms: C4_4  and  C5_5 
REMARK    2  A    between atoms: C8_8  and  O9_9 
REMARK    3  A    between atoms: C10_11  and  O11_12 
REMARK    4  A    between atoms: C16_18  and  O17_19 
REMARK    5  A    between atoms: C19_22  and  O20_23 
ROOT
HETATM    1  O1          0      40.608  99.285 -15.430  1.00  0.00    -0.286 OA
HETATM    2  C2          0      41.522  98.778 -14.723  1.00  0.00     0.201 C 
HETATM    3  C3          0      42.855  99.126 -14.859  1.00  0.00     0.067 C 
HETATM    4  C4          0      43.854  98.478 -14.140  1.00  0.00     0.103 C 
HETATM    5  O13         0      43.510  97.523 -13.295  1.00  0.00    -0.307 OA
HETATM    6  C14         0      42.263  97.128 -13.156  1.00  0.00     0.107 C 
HETATM    7  C15         0      41.944  95.898 -12.599  1.00  0.00     0.049 C 
HETATM    8  C16         0      40.658  95.379 -12.685  1.00  0.00     0.093 C 
HETATM    9  C18         0      39.653  96.324 -12.853  1.00  0.00     0.048 C 
HETATM   10  C19         0      39.946  97.581 -13.365  1.00  0.00     0.096 C 
HETATM   11  C21         0      41.236  97.898 -13.690  1.00  0.00     0.084 C 
ENDROOT
BRANCH  10  12
HETATM   12  O20         0      38.925  98.341 -13.929  1.00  0.00    -0.359 OA
HETATM   13  H20         0      38.055  98.264 -13.555  1.00  0.00     0.218 HD
ENDBRANCH  10  12
BRANCH   4  14
HETATM   14  C5          0      45.192  98.447 -14.733  1.00  0.00     0.025 C 
HETATM   15  C6          0      46.347  98.662 -13.995  1.00  0.00     0.004 C 
HETATM   16  C7          0      47.464  97.894 -14.306  1.00  0.00     0.026 C 
HETATM   17  C8          0      47.477  97.036 -15.401  1.00  0.00     0.112 C 
HETATM   18  C10         0      46.567  97.356 -16.399  1.00  0.00     0.112 C 
HETATM   19  C12         0      45.416  98.051 -16.045  1.00  0.00     0.028 C 
BRANCH  17  20
HETATM   20  O9          0      48.196  95.854 -15.367  1.00  0.00    -0.357 OA
HETATM   21  H9          0      48.318  95.289 -16.120  1.00  0.00     0.218 HD
ENDBRANCH  17  20
BRANCH  18  22
HETATM   22  O11         0      46.666  96.650 -17.590  1.00  0.00    -0.357 OA
HETATM   23  H11         0      47.498  96.693 -18.047  1.00  0.00     0.218 HD
ENDBRANCH  18  22
ENDBRANCH   4  14
BRANCH   8  24
HETATM   24  O17         0      40.435  94.018 -12.925  1.00  0.00    -0.359 OA
HETATM   25  H17         0      39.819  93.515 -12.407  1.00  0.00     0.218 HD
ENDBRANCH   8  24
TORSDOF 5
ENDMDL
MODEL 7
REMARK VINA RESULT:      -5.7      1.181      1.527
REMARK  5 active torsions:
REMARK  status: ('A' for Active; 'I' for Inactive)
REMARK    1  A    between atoms: C4_4  and  C5_5 
REMARK    2  A    between atoms: C8_8  and  O9_9 
REMARK    3  A    between atoms: C10_11  and  O11_12 
REMARK    4  A    between atoms: C16_18  and  O17_19 
REMARK    5  A    between atoms: C19_22  and  O20_23 
ROOT
HETATM    1  O1          0      40.983  96.148 -11.503  1.00  0.00    -0.286 OA
HETATM    2  C2          0      41.627  96.800 -12.371  1.00  0.00     0.201 C 
HETATM    3  C3          0      42.974  96.596 -12.616  1.00  0.00     0.067 C 
HETATM    4  C4          0      43.682  97.398 -13.504  1.00  0.00     0.103 C 
HETATM    5  O13         0      43.040  98.361 -14.140  1.00  0.00    -0.307 OA
HETATM    6  C14         0      41.770  98.621 -13.917  1.00  0.00     0.107 C 
HETATM    7  C15         0      41.203  99.841 -14.257  1.00  0.00     0.049 C 
HETATM    8  C16         0      39.944 100.205 -13.795  1.00  0.00     0.093 C 
HETATM    9  C18         0      39.111  99.143 -13.462  1.00  0.00     0.048 C 
HETATM   10  C19         0      39.643  97.897 -13.161  1.00  0.00     0.096 C 
HETATM   11  C21         0      40.997  97.707 -13.209  1.00  0.00     0.084 C 
ENDROOT
BRANCH  10  12
HETATM   12  O20         0      38.883  96.992 -12.426  1.00  0.00    -0.359 OA
HETATM   13  H20         0      38.890  97.070 -11.480  1.00  0.00     0.218 HD
ENDBRANCH  10  12
BRANCH   4  14
HETATM   14  C5          0      45.121  97.541 -13.276  1.00  0.00     0.025 C 
HETATM   15  C6          0      45.811  96.796 -12.330  1.00  0.00     0.004 C 
HETATM   16  C7          0      47.090  96.361 -12.660  1.00  0.00     0.026 C 
HETATM   17  C8          0      47.718  96.765 -13.834  1.00  0.00     0.112 C 
HETATM   18  C10         0      47.241  97.955 -14.366  1.00  0.00     0.112 C 
HETATM   19  C12         0      45.930  98.324 -14.090  1.00  0.00     0.028 C 
BRANCH  17  20
HETATM   20  O9          0      48.588  95.920 -14.499  1.00  0.00    -0.357 OA
HETATM   21  H9          0      48.332  95.083 -14.869  1.00  0.00     0.218 HD
ENDBRANCH  17  20
BRANCH  18  22
HETATM   22  O11         0      47.953  98.499 -15.425  1.00  0.00    -0.357 OA
HETATM   23  H11         0      47.712  99.376 -15.700  1.00  0.00     0.218 HD
ENDBRANCH  18  22
ENDBRANCH   4  14
BRANCH   8  24
HETATM   24  O17         0      39.669 101.513 -13.381  1.00  0.00    -0.359 OA
HETATM   25  H17         0      38.805 101.771 -13.083  1.00  0.00     0.218 HD
ENDBRANCH   8  24
TORSDOF 5
ENDMDL
MODEL 8
REMARK VINA RESULT:      -5.6      1.612      2.398
REMARK  5 active torsions:
REMARK  status: ('A' for Active; 'I' for Inactive)
REMARK    1  A    between atoms: C4_4  and  C5_5 
REMARK    2  A    between atoms: C8_8  and  O9_9 
REMARK    3  A    between atoms: C10_11  and  O11_12 
REMARK    4  A    between atoms: C16_18  and  O17_19 
REMARK    5  A    between atoms: C19_22  and  O20_23 
ROOT
HETATM    1  O1          0      41.554  96.068 -11.632  1.00  0.00    -0.286 OA
HETATM    2  C2          0      42.106  96.804 -12.494  1.00  0.00     0.201 C 
HETATM    3  C3          0      43.456  96.729 -12.791  1.00  0.00     0.067 C 
HETATM    4  C4          0      44.059  97.621 -13.671  1.00  0.00     0.103 C 
HETATM    5  O13         0      43.313  98.546 -14.248  1.00  0.00    -0.307 OA
HETATM    6  C14         0      42.035  98.685 -13.973  1.00  0.00     0.107 C 
HETATM    7  C15         0      41.351  99.861 -14.246  1.00  0.00     0.049 C 
HETATM    8  C16         0      40.083 100.096 -13.729  1.00  0.00     0.093 C 
HETATM    9  C18         0      39.358  98.954 -13.410  1.00  0.00     0.048 C 
HETATM   10  C19         0      40.007  97.749 -13.176  1.00  0.00     0.096 C 
HETATM   11  C21         0      41.370  97.681 -13.276  1.00  0.00     0.084 C 
ENDROOT
BRANCH  10  12
HETATM   12  O20         0      39.356  96.755 -12.452  1.00  0.00    -0.359 OA
HETATM   13  H20         0      38.981  96.027 -12.933  1.00  0.00     0.218 HD
ENDBRANCH  10  12
BRANCH   4  14
HETATM   14  C5          0      45.488  97.883 -13.485  1.00  0.00     0.025 C 
HETATM   15  C6          0      46.098  99.055 -13.905  1.00  0.00     0.004 C 
HETATM   16  C7          0      47.085  99.597 -13.087  1.00  0.00     0.026 C 
HETATM   17  C8          0      47.546  98.927 -11.959  1.00  0.00     0.112 C 
HETATM   18  C10         0      47.355  97.552 -11.982  1.00  0.00     0.112 C 
HETATM   19  C12         0      46.308  97.043 -12.741  1.00  0.00     0.028 C 
BRANCH  17  20
HETATM   20  O9          0      47.958  99.626 -10.838  1.00  0.00    -0.357 OA
HETATM   21  H9          0      48.425  99.231 -10.111  1.00  0.00     0.218 HD
ENDBRANCH  17  20
BRANCH  18  22
HETATM   22  O11         0      47.962  96.816 -10.975  1.00  0.00    -0.357 OA
HETATM   23  H11         0      48.900  96.921 -10.870  1.00  0.00     0.218 HD
ENDBRANCH  18  22
ENDBRANCH   4  14
BRANCH   8  24
HETATM   24  O17         0      39.711 101.359 -13.256  1.00  0.00    -0.359 OA
HETATM   25  H17         0      40.319 102.089 -13.250  1.00  0.00     0.218 HD
ENDBRANCH   8  24
TORSDOF 5
ENDMDL
MODEL 9
REMARK VINA RESULT:      -5.5      4.257      8.419
REMARK  5 active torsions:
REMARK  status: ('A' for Active; 'I' for Inactive)
REMARK    1  A    between atoms: C4_4  and  C5_5 
REMARK    2  A    between atoms: C8_8  and  O9_9 
REMARK    3  A    between atoms: C10_11  and  O11_12 
REMARK    4  A    between atoms: C16_18  and  O17_19 
REMARK    5  A    between atoms: C19_22  and  O20_23 
ROOT
HETATM    1  O1          0      40.356  94.360 -13.637  1.00  0.00    -0.286 OA
HETATM    2  C2          0      39.457  95.245 -13.611  1.00  0.00     0.201 C 
HETATM    3  C3          0      38.110  94.949 -13.731  1.00  0.00     0.067 C 
HETATM    4  C4          0      37.148  95.950 -13.802  1.00  0.00     0.103 C 
HETATM    5  O13         0      37.537  97.211 -13.732  1.00  0.00    -0.307 OA
HETATM    6  C14         0      38.806  97.547 -13.655  1.00  0.00     0.107 C 
HETATM    7  C15         0      39.245  98.823 -13.980  1.00  0.00     0.049 C 
HETATM    8  C16         0      40.597  99.101 -14.143  1.00  0.00     0.093 C 
HETATM    9  C18         0      41.458  98.243 -13.471  1.00  0.00     0.048 C 
HETATM   10  C19         0      41.036  96.976 -13.090  1.00  0.00     0.096 C 
HETATM   11  C21         0      39.757  96.576 -13.363  1.00  0.00     0.084 C 
ENDROOT
BRANCH  10  12
HETATM   12  O20         0      41.986  95.993 -12.828  1.00  0.00    -0.359 OA
HETATM   13  H20         0      42.338  95.938 -11.948  1.00  0.00     0.218 HD
ENDBRANCH  10  12
BRANCH   4  14
HETATM   14  C5          0      35.904  95.635 -14.506  1.00  0.00     0.025 C 
HETATM   15  C6          0      34.733  96.357 -14.326  1.00  0.00     0.004 C 
HETATM   16  C7          0      33.939  96.588 -15.444  1.00  0.00     0.026 C 
HETATM   17  C8          0      34.226  96.008 -16.675  1.00  0.00     0.112 C 
HETATM   18  C10         0      34.992  94.852 -16.607  1.00  0.00     0.112 C 
HETATM   19  C12         0      35.842  94.686 -15.519  1.00  0.00     0.028 C 
BRANCH  17  20
HETATM   20  O9          0      33.939  96.671 -17.855  1.00  0.00    -0.357 OA
HETATM   21  H9          0      33.539  96.256 -18.610  1.00  0.00     0.218 HD
ENDBRANCH  17  20
BRANCH  18  22
HETATM   22  O11         0      35.149  94.132 -17.782  1.00  0.00    -0.357 OA
HETATM   23  H11         0      35.401  93.219 -17.697  1.00  0.00     0.218 HD
ENDBRANCH  18  22
ENDBRANCH   4  14
BRANCH   8  24
HETATM   24  O17         0      41.048  99.949 -15.160  1.00  0.00    -0.359 OA
HETATM   25  H17         0      41.193  99.635 -16.045  1.00  0.00     0.218 HD
ENDBRANCH   8  24
TORSDOF 5
ENDMDL
