MODEL 1
REMARK VINA RESULT:      -8.8      0.000      0.000
REMARK  5 active torsions:
REMARK  status: ('A' for Active; 'I' for Inactive)
REMARK    1  A    between atoms: C4_4  and  C5_5 
REMARK    2  A    between atoms: C8_8  and  O9_9 
REMARK    3  A    between atoms: C10_11  and  O11_12 
REMARK    4  A    between atoms: C16_18  and  O17_19 
REMARK    5  A    between atoms: C19_22  and  O20_23 
ROOT
HETATM    1  O1          0      37.214  81.470  -8.523  1.00  0.00    -0.286 OA
HETATM    2  C2          0      36.382  81.573  -9.466  1.00  0.00     0.201 C 
HETATM    3  C3          0      35.220  82.317  -9.364  1.00  0.00     0.067 C 
HETATM    4  C4          0      34.271  82.331 -10.380  1.00  0.00     0.103 C 
HETATM    5  O13         0      34.504  81.629 -11.475  1.00  0.00    -0.307 OA
HETATM    6  C14         0      35.573  80.876 -11.608  1.00  0.00     0.107 C 
HETATM    7  C15         0      35.635  79.852 -12.543  1.00  0.00     0.049 C 
HETATM    8  C16         0      36.651  78.905 -12.510  1.00  0.00     0.093 C 
HETATM    9  C18         0      37.822  79.322 -11.890  1.00  0.00     0.048 C 
HETATM   10  C19         0      37.805  80.374 -10.984  1.00  0.00     0.096 C 
HETATM   11  C21         0      36.628  81.017 -10.713  1.00  0.00     0.084 C 
ENDROOT
BRANCH  10  12
HETATM   12  O20         0      38.843  80.499 -10.066  1.00  0.00    -0.359 OA
HETATM   13  H20         0      38.820  79.952  -9.291  1.00  0.00     0.218 HD
ENDBRANCH  10  12
BRANCH   4  14
HETATM   14  C5          0      32.884  82.601  -9.998  1.00  0.00     0.025 C 
HETATM   15  C6          0      32.057  81.639  -9.438  1.00  0.00     0.004 C 
HETATM   16  C7          0      31.184  82.044  -8.433  1.00  0.00     0.026 C 
HETATM   17  C8          0      31.041  83.383  -8.087  1.00  0.00     0.112 C 
HETATM   18  C10         0      31.401  84.281  -9.083  1.00  0.00     0.112 C 
HETATM   19  C12         0      32.339  83.879 -10.027  1.00  0.00     0.028 C 
BRANCH  17  20
HETATM   20  O9          0      30.767  83.753  -6.782  1.00  0.00    -0.357 OA
HETATM   21  H9          0      29.890  83.913  -6.452  1.00  0.00     0.218 HD
ENDBRANCH  17  20
BRANCH  18  22
HETATM   22  O11         0      31.102  85.617  -8.863  1.00  0.00    -0.357 OA
HETATM   23  H11         0      30.598  86.062  -9.535  1.00  0.00     0.218 HD
ENDBRANCH  18  22
ENDBRANCH   4  14
BRANCH   8  24
HETATM   24  O17         0      36.397  77.553 -12.770  1.00  0.00    -0.359 OA
HETATM   25  H17         0      36.990  76.870 -12.480  1.00  0.00     0.218 HD
ENDBRANCH   8  24
TORSDOF 5
ENDMDL
MODEL 2
REMARK VINA RESULT:      -8.5      2.976      7.239
REMARK  5 active torsions:
REMARK  status: ('A' for Active; 'I' for Inactive)
REMARK    1  A    between atoms: C4_4  and  C5_5 
REMARK    2  A    between atoms: C8_8  and  O9_9 
REMARK    3  A    between atoms: C10_11  and  O11_12 
REMARK    4  A    between atoms: C16_18  and  O17_19 
REMARK    5  A    between atoms: C19_22  and  O20_23 
ROOT
HETATM    1  O1          0      30.804  86.395 -10.557  1.00  0.00    -0.286 OA
HETATM    2  C2          0      31.575  85.638  -9.905  1.00  0.00     0.201 C 
HETATM    3  C3          0      31.975  84.396 -10.367  1.00  0.00     0.067 C 
HETATM    4  C4          0      32.741  83.540  -9.584  1.00  0.00     0.103 C 
HETATM    5  O13         0      33.107  83.939  -8.379  1.00  0.00    -0.307 OA
HETATM    6  C14         0      32.724  85.092  -7.878  1.00  0.00     0.107 C 
HETATM    7  C15         0      32.757  85.344  -6.513  1.00  0.00     0.049 C 
HETATM    8  C16         0      32.120  86.452  -5.968  1.00  0.00     0.093 C 
HETATM    9  C18         0      31.938  87.515  -6.845  1.00  0.00     0.048 C 
HETATM   10  C19         0      31.946  87.306  -8.218  1.00  0.00     0.096 C 
HETATM   11  C21         0      32.152  86.047  -8.712  1.00  0.00     0.084 C 
ENDROOT
BRANCH  10  12
HETATM   12  O20         0      31.346  88.244  -9.052  1.00  0.00    -0.359 OA
HETATM   13  H20         0      30.867  87.926  -9.808  1.00  0.00     0.218 HD
ENDBRANCH  10  12
BRANCH   4  14
HETATM   14  C5          0      32.617  82.104  -9.844  1.00  0.00     0.025 C 
HETATM   15  C6          0      31.492  81.371  -9.494  1.00  0.00     0.004 C 
HETATM   16  C7          0      31.069  80.380 -10.375  1.00  0.00     0.026 C 
HETATM   17  C8          0      31.814  80.036 -11.498  1.00  0.00     0.112 C 
HETATM   18  C10         0      33.164  80.348 -11.416  1.00  0.00     0.112 C 
HETATM   19  C12         0      33.550  81.400 -10.593  1.00  0.00     0.028 C 
BRANCH  17  20
HETATM   20  O9          0      31.191  79.618 -12.660  1.00  0.00    -0.357 OA
HETATM   21  H9          0      31.380  79.978 -13.519  1.00  0.00     0.218 HD
ENDBRANCH  17  20
BRANCH  18  22
HETATM   22  O11         0      33.984  79.860 -12.423  1.00  0.00    -0.357 OA
HETATM   23  H11         0      33.555  79.513 -13.197  1.00  0.00     0.218 HD
ENDBRANCH  18  22
ENDBRANCH   4  14
BRANCH   8  24
HETATM   24  O17         0      31.426  86.371  -4.756  1.00  0.00    -0.359 OA
HETATM   25  H17         0      31.450  87.076  -4.119  1.00  0.00     0.218 HD
ENDBRANCH   8  24
TORSDOF 5
ENDMDL
MODEL 3
REMARK VINA RESULT:      -8.5      3.267      4.555
REMARK  5 active torsions:
REMARK  status: ('A' for Active; 'I' for Inactive)
REMARK    1  A    between atoms: C4_4  and  C5_5 
REMARK    2  A    between atoms: C8_8  and  O9_9 
REMARK    3  A    between atoms: C10_11  and  O11_12 
REMARK    4  A    between atoms: C16_18  and  O17_19 
REMARK    5  A    between atoms: C19_22  and  O20_23 
ROOT
HETATM    1  O1          0      38.397  85.288  -9.850  1.00  0.00    -0.286 OA
HETATM    2  C2          0      37.153  85.170 -10.028  1.00  0.00     0.201 C 
HETATM    3  C3          0      36.322  86.253 -10.260  1.00  0.00     0.067 C 
HETATM    4  C4          0      34.943  86.106 -10.350  1.00  0.00     0.103 C 
HETATM    5  O13         0      34.424  84.897 -10.231  1.00  0.00    -0.307 OA
HETATM    6  C14         0      35.164  83.841  -9.973  1.00  0.00     0.107 C 
HETATM    7  C15         0      34.618  82.674  -9.458  1.00  0.00     0.049 C 
HETATM    8  C16         0      35.424  81.662  -8.951  1.00  0.00     0.093 C 
HETATM    9  C18         0      36.718  81.635  -9.456  1.00  0.00     0.048 C 
HETATM   10  C19         0      37.279  82.772 -10.021  1.00  0.00     0.096 C 
HETATM   11  C21         0      36.546  83.925 -10.096  1.00  0.00     0.084 C 
ENDROOT
BRANCH  10  12
HETATM   12  O20         0      38.664  82.872 -10.117  1.00  0.00    -0.359 OA
HETATM   13  H20         0      39.079  82.560 -10.912  1.00  0.00     0.218 HD
ENDBRANCH  10  12
BRANCH   4  14
HETATM   14  C5          0      34.122  87.264  -9.993  1.00  0.00     0.025 C 
HETATM   15  C6          0      34.041  88.402 -10.784  1.00  0.00     0.004 C 
HETATM   16  C7          0      32.803  89.027 -10.889  1.00  0.00     0.026 C 
HETATM   17  C8          0      31.712  88.617 -10.130  1.00  0.00     0.112 C 
HETATM   18  C10         0      32.039  87.940  -8.963  1.00  0.00     0.112 C 
HETATM   19  C12         0      33.246  87.252  -8.915  1.00  0.00     0.028 C 
BRANCH  17  20
HETATM   20  O9          0      30.426  88.706 -10.632  1.00  0.00    -0.357 OA
HETATM   21  H9          0      29.974  89.528 -10.784  1.00  0.00     0.218 HD
ENDBRANCH  17  20
BRANCH  18  22
HETATM   22  O11         0      31.003  87.676  -8.078  1.00  0.00    -0.357 OA
HETATM   23  H11         0      31.245  87.464  -7.184  1.00  0.00     0.218 HD
ENDBRANCH  18  22
ENDBRANCH   4  14
BRANCH   8  24
HETATM   24  O17         0      35.071  80.957  -7.795  1.00  0.00    -0.359 OA
HETATM   25  H17         0      34.266  80.455  -7.743  1.00  0.00     0.218 HD
ENDBRANCH   8  24
TORSDOF 5
ENDMDL
MODEL 4
REMARK VINA RESULT:      -8.2      2.447      7.501
REMARK  5 active torsions:
REMARK  status: ('A' for Active; 'I' for Inactive)
REMARK    1  A    between atoms: C4_4  and  C5_5 
REMARK    2  A    between atoms: C8_8  and  O9_9 
REMARK    3  A    between atoms: C10_11  and  O11_12 
REMARK    4  A    between atoms: C16_18  and  O17_19 
REMARK    5  A    between atoms: C19_22  and  O20_23 
ROOT
HETATM    1  O1          0      31.734  86.536 -10.672  1.00  0.00    -0.286 OA
HETATM    2  C2          0      32.558  85.979  -9.896  1.00  0.00     0.201 C 
HETATM    3  C3          0      33.395  84.953 -10.300  1.00  0.00     0.067 C 
HETATM    4  C4          0      34.221  84.289  -9.400  1.00  0.00     0.103 C 
HETATM    5  O13         0      34.214  84.667  -8.134  1.00  0.00    -0.307 OA
HETATM    6  C14         0      33.412  85.610  -7.690  1.00  0.00     0.107 C 
HETATM    7  C15         0      33.107  85.736  -6.343  1.00  0.00     0.049 C 
HETATM    8  C16         0      32.074  86.558  -5.910  1.00  0.00     0.093 C 
HETATM    9  C18         0      31.749  87.597  -6.775  1.00  0.00     0.048 C 
HETATM   10  C19         0      32.081  87.524  -8.121  1.00  0.00     0.096 C 
HETATM   11  C21         0      32.747  86.428  -8.597  1.00  0.00     0.084 C 
ENDROOT
BRANCH  10  12
HETATM   12  O20         0      31.396  88.319  -9.034  1.00  0.00    -0.359 OA
HETATM   13  H20         0      31.840  88.556  -9.839  1.00  0.00     0.218 HD
ENDBRANCH  10  12
BRANCH   4  14
HETATM   14  C5          0      34.588  82.908  -9.722  1.00  0.00     0.025 C 
HETATM   15  C6          0      33.714  82.021 -10.332  1.00  0.00     0.004 C 
HETATM   16  C7          0      34.240  81.147 -11.278  1.00  0.00     0.026 C 
HETATM   17  C8          0      35.608  81.063 -11.513  1.00  0.00     0.112 C 
HETATM   18  C10         0      36.405  81.491 -10.460  1.00  0.00     0.112 C 
HETATM   19  C12         0      35.884  82.430  -9.577  1.00  0.00     0.028 C 
BRANCH  17  20
HETATM   20  O9          0      36.094  80.777 -12.777  1.00  0.00    -0.357 OA
HETATM   21  H9          0      36.616  80.009 -12.981  1.00  0.00     0.218 HD
ENDBRANCH  17  20
BRANCH  18  22
HETATM   22  O11         0      37.768  81.255 -10.566  1.00  0.00    -0.357 OA
HETATM   23  H11         0      38.049  80.661 -11.252  1.00  0.00     0.218 HD
ENDBRANCH  18  22
ENDBRANCH   4  14
BRANCH   8  24
HETATM   24  O17         0      31.220  86.171  -4.872  1.00  0.00    -0.359 OA
HETATM   25  H17         0      31.414  85.425  -4.317  1.00  0.00     0.218 HD
ENDBRANCH   8  24
TORSDOF 5
ENDMDL
MODEL 5
REMARK VINA RESULT:      -8.2      1.794      6.757
REMARK  5 active torsions:
REMARK  status: ('A' for Active; 'I' for Inactive)
REMARK    1  A    between atoms: C4_4  and  C5_5 
REMARK    2  A    between atoms: C8_8  and  O9_9 
REMARK    3  A    between atoms: C10_11  and  O11_12 
REMARK    4  A    between atoms: C16_18  and  O17_19 
REMARK    5  A    between atoms: C19_22  and  O20_23 
ROOT
HETATM    1  O1          0      33.834  82.174  -6.965  1.00  0.00    -0.286 OA
HETATM    2  C2          0      33.946  82.420  -8.197  1.00  0.00     0.201 C 
HETATM    3  C3          0      34.616  81.582  -9.072  1.00  0.00     0.067 C 
HETATM    4  C4          0      34.814  81.927 -10.404  1.00  0.00     0.103 C 
HETATM    5  O13         0      34.329  83.076 -10.841  1.00  0.00    -0.307 OA
HETATM    6  C14         0      33.717  83.925 -10.044  1.00  0.00     0.107 C 
HETATM    7  C15         0      33.567  85.263 -10.379  1.00  0.00     0.049 C 
HETATM    8  C16         0      33.155  86.200  -9.438  1.00  0.00     0.093 C 
HETATM    9  C18         0      32.420  85.683  -8.378  1.00  0.00     0.048 C 
HETATM   10  C19         0      32.511  84.339  -8.046  1.00  0.00     0.096 C 
HETATM   11  C21         0      33.318  83.511  -8.778  1.00  0.00     0.084 C 
ENDROOT
BRANCH  10  12
HETATM   12  O20         0      32.142  83.927  -6.769  1.00  0.00    -0.359 OA
HETATM   13  H20         0      32.489  84.409  -6.028  1.00  0.00     0.218 HD
ENDBRANCH  10  12
BRANCH   4  14
HETATM   14  C5          0      35.979  81.352 -11.080  1.00  0.00     0.025 C 
HETATM   15  C6          0      37.227  81.263 -10.481  1.00  0.00     0.004 C 
HETATM   16  C7          0      37.981  80.121 -10.730  1.00  0.00     0.026 C 
HETATM   17  C8          0      37.569  79.161 -11.648  1.00  0.00     0.112 C 
HETATM   18  C10         0      36.690  79.625 -12.618  1.00  0.00     0.112 C 
HETATM   19  C12         0      35.886  80.717 -12.311  1.00  0.00     0.028 C 
BRANCH  17  20
HETATM   20  O9          0      37.862  77.822 -11.454  1.00  0.00    -0.357 OA
HETATM   21  H9          0      38.228  77.473 -10.650  1.00  0.00     0.218 HD
ENDBRANCH  17  20
BRANCH  18  22
HETATM   22  O11         0      36.396  78.763 -13.664  1.00  0.00    -0.357 OA
HETATM   23  H11         0      35.571  78.899 -14.115  1.00  0.00     0.218 HD
ENDBRANCH  18  22
ENDBRANCH   4  14
BRANCH   8  24
HETATM   24  O17         0      33.719  87.479  -9.388  1.00  0.00    -0.359 OA
HETATM   25  H17         0      34.646  87.610  -9.226  1.00  0.00     0.218 HD
ENDBRANCH   8  24
TORSDOF 5
ENDMDL
MODEL 6
REMARK VINA RESULT:      -8.1      3.733      7.243
REMARK  5 active torsions:
REMARK  status: ('A' for Active; 'I' for Inactive)
REMARK    1  A    between atoms: C4_4  and  C5_5 
REMARK    2  A    between atoms: C8_8  and  O9_9 
REMARK    3  A    between atoms: C10_11  and  O11_12 
REMARK    4  A    between atoms: C16_18  and  O17_19 
REMARK    5  A    between atoms: C19_22  and  O20_23 
ROOT
HETATM    1  O1          0      34.878  87.725  -9.833  1.00  0.00    -0.286 OA
HETATM    2  C2          0      33.763  87.275  -9.453  1.00  0.00     0.201 C 
HETATM    3  C3          0      33.643  86.209  -8.578  1.00  0.00     0.067 C 
HETATM    4  C4          0      32.404  85.667  -8.255  1.00  0.00     0.103 C 
HETATM    5  O13         0      31.319  86.203  -8.787  1.00  0.00    -0.307 OA
HETATM    6  C14         0      31.379  87.191  -9.652  1.00  0.00     0.107 C 
HETATM    7  C15         0      30.321  87.487 -10.499  1.00  0.00     0.049 C 
HETATM    8  C16         0      30.478  88.354 -11.574  1.00  0.00     0.093 C 
HETATM    9  C18         0      31.512  89.273 -11.441  1.00  0.00     0.048 C 
HETATM   10  C19         0      32.563  89.031 -10.567  1.00  0.00     0.096 C 
HETATM   11  C21         0      32.573  87.886  -9.818  1.00  0.00     0.084 C 
ENDROOT
BRANCH  10  12
HETATM   12  O20         0      33.768  89.701 -10.750  1.00  0.00    -0.359 OA
HETATM   13  H20         0      33.881  90.541 -10.321  1.00  0.00     0.218 HD
ENDBRANCH  10  12
BRANCH   4  14
HETATM   14  C5          0      32.371  84.258  -7.858  1.00  0.00     0.025 C 
HETATM   15  C6          0      31.199  83.519  -7.801  1.00  0.00     0.004 C 
HETATM   16  C7          0      31.253  82.192  -8.214  1.00  0.00     0.026 C 
HETATM   17  C8          0      32.457  81.579  -8.545  1.00  0.00     0.112 C 
HETATM   18  C10         0      33.580  82.166  -7.978  1.00  0.00     0.112 C 
HETATM   19  C12         0      33.527  83.516  -7.653  1.00  0.00     0.028 C 
BRANCH  17  20
HETATM   20  O9          0      32.510  80.606  -9.527  1.00  0.00    -0.357 OA
HETATM   21  H9          0      33.319  80.291  -9.914  1.00  0.00     0.218 HD
ENDBRANCH  17  20
BRANCH  18  22
HETATM   22  O11         0      34.782  81.487  -8.120  1.00  0.00    -0.357 OA
HETATM   23  H11         0      35.537  81.850  -7.670  1.00  0.00     0.218 HD
ENDBRANCH  18  22
ENDBRANCH   4  14
BRANCH   8  24
HETATM   24  O17         0      29.876  88.098 -12.811  1.00  0.00    -0.359 OA
HETATM   25  H17         0      30.157  87.379 -13.364  1.00  0.00     0.218 HD
ENDBRANCH   8  24
TORSDOF 5
ENDMDL
MODEL 7
REMARK VINA RESULT:      -8.1      2.702      6.731
REMARK  5 active torsions:
REMARK  status: ('A' for Active; 'I' for Inactive)
REMARK    1  A    between atoms: C4_4  and  C5_5 
REMARK    2  A    between atoms: C8_8  and  O9_9 
REMARK    3  A    between atoms: C10_11  and  O11_12 
REMARK    4  A    between atoms: C16_18  and  O17_19 
REMARK    5  A    between atoms: C19_22  and  O20_23 
ROOT
HETATM    1  O1          0      37.607  85.838 -10.368  1.00  0.00    -0.286 OA
HETATM    2  C2          0      36.646  85.035 -10.216  1.00  0.00     0.201 C 
HETATM    3  C3          0      36.816  83.662 -10.171  1.00  0.00     0.067 C 
HETATM    4  C4          0      35.731  82.795 -10.105  1.00  0.00     0.103 C 
HETATM    5  O13         0      34.513  83.305 -10.065  1.00  0.00    -0.307 OA
HETATM    6  C14         0      34.294  84.599 -10.142  1.00  0.00     0.107 C 
HETATM    7  C15         0      33.055  85.111 -10.500  1.00  0.00     0.049 C 
HETATM    8  C16         0      32.895  86.452 -10.827  1.00  0.00     0.093 C 
HETATM    9  C18         0      33.845  87.307 -10.281  1.00  0.00     0.048 C 
HETATM   10  C19         0      35.079  86.820  -9.870  1.00  0.00     0.096 C 
HETATM   11  C21         0      35.355  85.485  -9.987  1.00  0.00     0.084 C 
ENDROOT
BRANCH  10  12
HETATM   12  O20         0      36.150  87.700  -9.744  1.00  0.00    -0.359 OA
HETATM   13  H20         0      36.672  87.878 -10.517  1.00  0.00     0.218 HD
ENDBRANCH  10  12
BRANCH   4  14
HETATM   14  C5          0      35.914  81.450 -10.654  1.00  0.00     0.025 C 
HETATM   15  C6          0      35.191  80.975 -11.738  1.00  0.00     0.004 C 
HETATM   16  C7          0      35.860  80.175 -12.659  1.00  0.00     0.026 C 
HETATM   17  C8          0      37.166  79.749 -12.441  1.00  0.00     0.112 C 
HETATM   18  C10         0      37.556  79.732 -11.109  1.00  0.00     0.112 C 
HETATM   19  C12         0      36.929  80.604 -10.226  1.00  0.00     0.028 C 
BRANCH  17  20
HETATM   20  O9          0      38.039  79.571 -13.500  1.00  0.00    -0.357 OA
HETATM   21  H9          0      38.276  78.721 -13.852  1.00  0.00     0.218 HD
ENDBRANCH  17  20
BRANCH  18  22
HETATM   22  O11         0      38.777  79.140 -10.819  1.00  0.00    -0.357 OA
HETATM   23  H11         0      38.875  78.756  -9.955  1.00  0.00     0.218 HD
ENDBRANCH  18  22
ENDBRANCH   4  14
BRANCH   8  24
HETATM   24  O17         0      32.064  86.852 -11.879  1.00  0.00    -0.359 OA
HETATM   25  H17         0      31.143  86.620 -11.904  1.00  0.00     0.218 HD
ENDBRANCH   8  24
TORSDOF 5
ENDMDL
MODEL 8
REMARK VINA RESULT:      -8.0      2.654      6.855
REMARK  5 active torsions:
REMARK  status: ('A' for Active; 'I' for Inactive)
REMARK    1  A    between atoms: C4_4  and  C5_5 
REMARK    2  A    between atoms: C8_8  and  O9_9 
REMARK    3  A    between atoms: C10_11  and  O11_12 
REMARK    4  A    between atoms: C16_18  and  O17_19 
REMARK    5  A    between atoms: C19_22  and  O20_23 
ROOT
HETATM    1  O1          0      35.588  86.144  -7.964  1.00  0.00    -0.286 OA
HETATM    2  C2          0      34.764  85.196  -8.078  1.00  0.00     0.201 C 
HETATM    3  C3          0      34.951  84.140  -8.954  1.00  0.00     0.067 C 
HETATM    4  C4          0      33.980  83.162  -9.135  1.00  0.00     0.103 C 
HETATM    5  O13         0      32.862  83.240  -8.434  1.00  0.00    -0.307 OA
HETATM    6  C14         0      32.618  84.241  -7.618  1.00  0.00     0.107 C 
HETATM    7  C15         0      31.330  84.545  -7.198  1.00  0.00     0.049 C 
HETATM    8  C16         0      31.046  85.741  -6.551  1.00  0.00     0.093 C 
HETATM    9  C18         0      32.123  86.325  -5.895  1.00  0.00     0.048 C 
HETATM   10  C19         0      33.425  86.008  -6.258  1.00  0.00     0.096 C 
HETATM   11  C21         0      33.650  85.101  -7.258  1.00  0.00     0.084 C 
ENDROOT
BRANCH  10  12
HETATM   12  O20         0      34.456  86.882  -5.926  1.00  0.00    -0.359 OA
HETATM   13  H20         0      34.697  87.547  -6.560  1.00  0.00     0.218 HD
ENDBRANCH  10  12
BRANCH   4  14
HETATM   14  C5          0      33.955  82.473 -10.426  1.00  0.00     0.025 C 
HETATM   15  C6          0      34.867  82.739 -11.438  1.00  0.00     0.004 C 
HETATM   16  C7          0      35.325  81.663 -12.192  1.00  0.00     0.026 C 
HETATM   17  C8          0      34.796  80.386 -12.037  1.00  0.00     0.112 C 
HETATM   18  C10         0      33.516  80.350 -11.500  1.00  0.00     0.112 C 
HETATM   19  C12         0      33.114  81.397 -10.680  1.00  0.00     0.028 C 
BRANCH  17  20
HETATM   20  O9          0      35.588  79.265 -12.213  1.00  0.00    -0.357 OA
HETATM   21  H9          0      35.385  78.566 -12.823  1.00  0.00     0.218 HD
ENDBRANCH  17  20
BRANCH  18  22
HETATM   22  O11         0      32.870  79.122 -11.500  1.00  0.00    -0.357 OA
HETATM   23  H11         0      32.028  79.079 -11.939  1.00  0.00     0.218 HD
ENDBRANCH  18  22
ENDBRANCH   4  14
BRANCH   8  24
HETATM   24  O17         0      29.875  86.458  -6.823  1.00  0.00    -0.359 OA
HETATM   25  H17         0      29.898  87.372  -7.080  1.00  0.00     0.218 HD
ENDBRANCH   8  24
TORSDOF 5
ENDMDL
MODEL 9
REMARK VINA RESULT:      -7.9      2.864      6.508
REMARK  5 active torsions:
REMARK  status: ('A' for Active; 'I' for Inactive)
REMARK    1  A    between atoms: C4_4  and  C5_5 
REMARK    2  A    between atoms: C8_8  and  O9_9 
REMARK    3  A    between atoms: C10_11  and  O11_12 
REMARK    4  A    between atoms: C16_18  and  O17_19 
REMARK    5  A    between atoms: C19_22  and  O20_23 
ROOT
HETATM    1  O1          0      35.564  86.058 -10.184  1.00  0.00    -0.286 OA
HETATM    2  C2          0      34.468  85.444 -10.067  1.00  0.00     0.201 C 
HETATM    3  C3          0      34.393  84.092  -9.779  1.00  0.00     0.067 C 
HETATM    4  C4          0      33.177  83.418  -9.756  1.00  0.00     0.103 C 
HETATM    5  O13         0      32.070  84.098  -9.997  1.00  0.00    -0.307 OA
HETATM    6  C14         0      32.089  85.375 -10.313  1.00  0.00     0.107 C 
HETATM    7  C15         0      31.016  85.987 -10.944  1.00  0.00     0.049 C 
HETATM    8  C16         0      31.134  87.255 -11.501  1.00  0.00     0.093 C 
HETATM    9  C18         0      32.133  88.048 -10.948  1.00  0.00     0.048 C 
HETATM   10  C19         0      33.197  87.471 -10.268  1.00  0.00     0.096 C 
HETATM   11  C21         0      33.254  86.111 -10.127  1.00  0.00     0.084 C 
ENDROOT
BRANCH  10  12
HETATM   12  O20         0      34.375  88.193 -10.109  1.00  0.00    -0.359 OA
HETATM   13  H20         0      34.779  88.562 -10.885  1.00  0.00     0.218 HD
ENDBRANCH  10  12
BRANCH   4  14
HETATM   14  C5          0      33.201  81.984 -10.048  1.00  0.00     0.025 C 
HETATM   15  C6          0      32.180  81.123  -9.673  1.00  0.00     0.004 C 
HETATM   16  C7          0      31.831  80.111 -10.561  1.00  0.00     0.026 C 
HETATM   17  C8          0      32.560  79.876 -11.722  1.00  0.00     0.112 C 
HETATM   18  C10         0      33.870  80.334 -11.687  1.00  0.00     0.112 C 
HETATM   19  C12         0      34.173  81.404 -10.853  1.00  0.00     0.028 C 
BRANCH  17  20
HETATM   20  O9          0      31.937  79.416 -12.869  1.00  0.00    -0.357 OA
HETATM   21  H9          0      31.251  78.758 -12.870  1.00  0.00     0.218 HD
ENDBRANCH  17  20
BRANCH  18  22
HETATM   22  O11         0      34.694  79.962 -12.739  1.00  0.00    -0.357 OA
HETATM   23  H11         0      34.991  79.059 -12.754  1.00  0.00     0.218 HD
ENDBRANCH  18  22
ENDBRANCH   4  14
BRANCH   8  24
HETATM   24  O17         0      30.535  87.573 -12.725  1.00  0.00    -0.359 OA
HETATM   25  H17         0      31.029  87.576 -13.536  1.00  0.00     0.218 HD
ENDBRANCH   8  24
TORSDOF 5
ENDMDL
