MODEL 1
REMARK VINA RESULT:      -6.9      0.000      0.000
REMARK  5 active torsions:
REMARK  status: ('A' for Active; 'I' for Inactive)
REMARK    1  A    between atoms: C4_4  and  C5_5 
REMARK    2  A    between atoms: C8_8  and  O9_9 
REMARK    3  A    between atoms: C10_11  and  O11_12 
REMARK    4  A    between atoms: C16_18  and  O17_19 
REMARK    5  A    between atoms: C19_22  and  O20_23 
ROOT
HETATM    1  O1          0       1.414  78.696 -16.237  1.00  0.00    -0.286 OA
HETATM    2  C2          0       2.149  78.366 -15.267  1.00  0.00     0.201 C 
HETATM    3  C3          0       2.195  77.077 -14.764  1.00  0.00     0.067 C 
HETATM    4  C4          0       2.935  76.763 -13.630  1.00  0.00     0.103 C 
HETATM    5  O13         0       3.624  77.721 -13.036  1.00  0.00    -0.307 OA
HETATM    6  C14         0       3.585  78.969 -13.450  1.00  0.00     0.107 C 
HETATM    7  C15         0       3.961  80.023 -12.629  1.00  0.00     0.049 C 
HETATM    8  C16         0       3.680  81.340 -12.972  1.00  0.00     0.093 C 
HETATM    9  C18         0       3.518  81.570 -14.333  1.00  0.00     0.048 C 
HETATM   10  C19         0       3.188  80.529 -15.190  1.00  0.00     0.096 C 
HETATM   11  C21         0       3.038  79.263 -14.694  1.00  0.00     0.084 C 
ENDROOT
BRANCH  10  12
HETATM   12  O20         0       2.611  80.819 -16.423  1.00  0.00    -0.359 OA
HETATM   13  H20         0       2.604  80.137 -17.083  1.00  0.00     0.218 HD
ENDBRANCH  10  12
BRANCH   4  14
HETATM   14  C5          0       2.487  75.619 -12.833  1.00  0.00     0.025 C 
HETATM   15  C6          0       1.329  74.911 -13.119  1.00  0.00     0.004 C 
HETATM   16  C7          0       1.358  73.531 -12.945  1.00  0.00     0.026 C 
HETATM   17  C8          0       2.454  72.890 -12.378  1.00  0.00     0.112 C 
HETATM   18  C10         0       3.246  73.698 -11.573  1.00  0.00     0.112 C 
HETATM   19  C12         0       3.264  75.065 -11.824  1.00  0.00     0.028 C 
BRANCH  17  20
HETATM   20  O9          0       2.814  71.615 -12.776  1.00  0.00    -0.357 OA
HETATM   21  H9          0       3.462  71.084 -12.327  1.00  0.00     0.218 HD
ENDBRANCH  17  20
BRANCH  18  22
HETATM   22  O11         0       4.239  73.070 -10.835  1.00  0.00    -0.357 OA
HETATM   23  H11         0       5.134  73.340 -11.001  1.00  0.00     0.218 HD
ENDBRANCH  18  22
ENDBRANCH   4  14
BRANCH   8  24
HETATM   24  O17         0       3.264  82.270 -12.014  1.00  0.00    -0.359 OA
HETATM   25  H17         0       3.371  83.205 -12.146  1.00  0.00     0.218 HD
ENDBRANCH   8  24
TORSDOF 5
ENDMDL
MODEL 2
REMARK VINA RESULT:      -6.6      1.676      2.736
REMARK  5 active torsions:
REMARK  status: ('A' for Active; 'I' for Inactive)
REMARK    1  A    between atoms: C4_4  and  C5_5 
REMARK    2  A    between atoms: C8_8  and  O9_9 
REMARK    3  A    between atoms: C10_11  and  O11_12 
REMARK    4  A    between atoms: C16_18  and  O17_19 
REMARK    5  A    between atoms: C19_22  and  O20_23 
ROOT
HETATM    1  O1          0       3.556  79.698 -12.252  1.00  0.00    -0.286 OA
HETATM    2  C2          0       3.152  78.761 -12.995  1.00  0.00     0.201 C 
HETATM    3  C3          0       2.466  77.661 -12.509  1.00  0.00     0.067 C 
HETATM    4  C4          0       2.122  76.595 -13.333  1.00  0.00     0.103 C 
HETATM    5  O13         0       2.447  76.651 -14.613  1.00  0.00    -0.307 OA
HETATM    6  C14         0       3.131  77.655 -15.117  1.00  0.00     0.107 C 
HETATM    7  C15         0       3.809  77.544 -16.322  1.00  0.00     0.049 C 
HETATM    8  C16         0       4.729  78.506 -16.723  1.00  0.00     0.093 C 
HETATM    9  C18         0       4.541  79.766 -16.168  1.00  0.00     0.048 C 
HETATM   10  C19         0       3.827  79.917 -14.987  1.00  0.00     0.096 C 
HETATM   11  C21         0       3.290  78.819 -14.373  1.00  0.00     0.084 C 
ENDROOT
BRANCH  10  12
HETATM   12  O20         0       4.009  81.067 -14.225  1.00  0.00    -0.359 OA
HETATM   13  H20         0       4.867  81.221 -13.849  1.00  0.00     0.218 HD
ENDBRANCH  10  12
BRANCH   4  14
HETATM   14  C5          0       1.971  75.283 -12.701  1.00  0.00     0.025 C 
HETATM   15  C6          0       0.963  74.394 -13.046  1.00  0.00     0.004 C 
HETATM   16  C7          0       1.282  73.041 -13.084  1.00  0.00     0.026 C 
HETATM   17  C8          0       2.522  72.571 -12.665  1.00  0.00     0.112 C 
HETATM   18  C10         0       3.188  73.407 -11.778  1.00  0.00     0.112 C 
HETATM   19  C12         0       2.912  74.768 -11.819  1.00  0.00     0.028 C 
BRANCH  17  20
HETATM   20  O9          0       3.103  71.469 -13.265  1.00  0.00    -0.357 OA
HETATM   21  H9          0       3.427  70.716 -12.785  1.00  0.00     0.218 HD
ENDBRANCH  17  20
BRANCH  18  22
HETATM   22  O11         0       4.336  72.904 -11.183  1.00  0.00    -0.357 OA
HETATM   23  H11         0       4.248  72.095 -10.693  1.00  0.00     0.218 HD
ENDBRANCH  18  22
ENDBRANCH   4  14
BRANCH   8  24
HETATM   24  O17         0       5.928  78.150 -17.353  1.00  0.00    -0.359 OA
HETATM   25  H17         0       5.940  77.602 -18.128  1.00  0.00     0.218 HD
ENDBRANCH   8  24
TORSDOF 5
ENDMDL
MODEL 3
REMARK VINA RESULT:      -6.2      1.705      3.051
REMARK  5 active torsions:
REMARK  status: ('A' for Active; 'I' for Inactive)
REMARK    1  A    between atoms: C4_4  and  C5_5 
REMARK    2  A    between atoms: C8_8  and  O9_9 
REMARK    3  A    between atoms: C10_11  and  O11_12 
REMARK    4  A    between atoms: C16_18  and  O17_19 
REMARK    5  A    between atoms: C19_22  and  O20_23 
ROOT
HETATM    1  O1          0       4.774  78.732 -13.239  1.00  0.00    -0.286 OA
HETATM    2  C2          0       3.752  78.076 -13.581  1.00  0.00     0.201 C 
HETATM    3  C3          0       3.184  77.099 -12.780  1.00  0.00     0.067 C 
HETATM    4  C4          0       2.121  76.321 -13.224  1.00  0.00     0.103 C 
HETATM    5  O13         0       1.635  76.539 -14.433  1.00  0.00    -0.307 OA
HETATM    6  C14         0       2.161  77.428 -15.247  1.00  0.00     0.107 C 
HETATM    7  C15         0       1.934  77.390 -16.615  1.00  0.00     0.049 C 
HETATM    8  C16         0       2.685  78.162 -17.493  1.00  0.00     0.093 C 
HETATM    9  C18         0       3.250  79.303 -16.936  1.00  0.00     0.048 C 
HETATM   10  C19         0       3.448  79.394 -15.564  1.00  0.00     0.096 C 
HETATM   11  C21         0       3.068  78.359 -14.754  1.00  0.00     0.084 C 
ENDROOT
BRANCH  10  12
HETATM   12  O20         0       4.379  80.302 -15.070  1.00  0.00    -0.359 OA
HETATM   13  H20         0       4.086  81.188 -14.894  1.00  0.00     0.218 HD
ENDBRANCH  10  12
BRANCH   4  14
HETATM   14  C5          0       1.977  74.987 -12.637  1.00  0.00     0.025 C 
HETATM   15  C6          0       0.981  74.101 -13.019  1.00  0.00     0.004 C 
HETATM   16  C7          0       1.314  72.752 -13.099  1.00  0.00     0.026 C 
HETATM   17  C8          0       2.555  72.282 -12.683  1.00  0.00     0.112 C 
HETATM   18  C10         0       3.205  73.094 -11.763  1.00  0.00     0.112 C 
HETATM   19  C12         0       2.916  74.453 -11.763  1.00  0.00     0.028 C 
BRANCH  17  20
HETATM   20  O9          0       3.153  71.205 -13.314  1.00  0.00    -0.357 OA
HETATM   21  H9          0       4.088  71.137 -13.470  1.00  0.00     0.218 HD
ENDBRANCH  17  20
BRANCH  18  22
HETATM   22  O11         0       4.353  72.583 -11.175  1.00  0.00    -0.357 OA
HETATM   23  H11         0       4.344  71.662 -10.944  1.00  0.00     0.218 HD
ENDBRANCH  18  22
ENDBRANCH   4  14
BRANCH   8  24
HETATM   24  O17         0       3.111  77.658 -18.727  1.00  0.00    -0.359 OA
HETATM   25  H17         0       3.711  78.141 -19.283  1.00  0.00     0.218 HD
ENDBRANCH   8  24
TORSDOF 5
ENDMDL
MODEL 4
REMARK VINA RESULT:      -6.0      2.893      4.340
REMARK  5 active torsions:
REMARK  status: ('A' for Active; 'I' for Inactive)
REMARK    1  A    between atoms: C4_4  and  C5_5 
REMARK    2  A    between atoms: C8_8  and  O9_9 
REMARK    3  A    between atoms: C10_11  and  O11_12 
REMARK    4  A    between atoms: C16_18  and  O17_19 
REMARK    5  A    between atoms: C19_22  and  O20_23 
ROOT
HETATM    1  O1          0       4.939  77.370 -18.301  1.00  0.00    -0.286 OA
HETATM    2  C2          0       4.515  78.092 -17.357  1.00  0.00     0.201 C 
HETATM    3  C3          0       4.314  77.610 -16.075  1.00  0.00     0.067 C 
HETATM    4  C4          0       3.750  78.400 -15.080  1.00  0.00     0.103 C 
HETATM    5  O13         0       3.420  79.647 -15.370  1.00  0.00    -0.307 OA
HETATM    6  C14         0       3.555  80.142 -16.580  1.00  0.00     0.107 C 
HETATM    7  C15         0       2.862  81.273 -16.989  1.00  0.00     0.049 C 
HETATM    8  C16         0       2.808  81.642 -18.328  1.00  0.00     0.093 C 
HETATM    9  C18         0       3.861  81.178 -19.107  1.00  0.00     0.048 C 
HETATM   10  C19         0       4.605  80.077 -18.705  1.00  0.00     0.096 C 
HETATM   11  C21         0       4.311  79.453 -17.523  1.00  0.00     0.084 C 
ENDROOT
BRANCH  10  12
HETATM   12  O20         0       5.337  79.368 -19.652  1.00  0.00    -0.359 OA
HETATM   13  H20         0       5.749  78.557 -19.380  1.00  0.00     0.218 HD
ENDBRANCH  10  12
BRANCH   4  14
HETATM   14  C5          0       3.032  77.713 -14.005  1.00  0.00     0.025 C 
HETATM   15  C6          0       3.434  76.486 -13.498  1.00  0.00     0.004 C 
HETATM   16  C7          0       3.307  76.283 -12.127  1.00  0.00     0.026 C 
HETATM   17  C8          0       2.678  77.213 -11.307  1.00  0.00     0.112 C 
HETATM   18  C10         0       1.785  78.052 -11.960  1.00  0.00     0.112 C 
HETATM   19  C12         0       1.985  78.306 -13.312  1.00  0.00     0.028 C 
BRANCH  17  20
HETATM   20  O9          0       3.092  77.400 -10.000  1.00  0.00    -0.357 OA
HETATM   21  H9          0       3.071  78.239  -9.554  1.00  0.00     0.218 HD
ENDBRANCH  17  20
BRANCH  18  22
HETATM   22  O11         0       0.994  78.869 -11.165  1.00  0.00    -0.357 OA
HETATM   23  H11         0       0.225  79.250 -11.572  1.00  0.00     0.218 HD
ENDBRANCH  18  22
ENDBRANCH   4  14
BRANCH   8  24
HETATM   24  O17         0       1.632  82.139 -18.900  1.00  0.00    -0.359 OA
HETATM   25  H17         0       0.795  82.072 -18.457  1.00  0.00     0.218 HD
ENDBRANCH   8  24
TORSDOF 5
ENDMDL
MODEL 5
REMARK VINA RESULT:      -5.9      4.682      6.002
REMARK  5 active torsions:
REMARK  status: ('A' for Active; 'I' for Inactive)
REMARK    1  A    between atoms: C4_4  and  C5_5 
REMARK    2  A    between atoms: C8_8  and  O9_9 
REMARK    3  A    between atoms: C10_11  and  O11_12 
REMARK    4  A    between atoms: C16_18  and  O17_19 
REMARK    5  A    between atoms: C19_22  and  O20_23 
ROOT
HETATM    1  O1          0       3.232  83.005 -13.366  1.00  0.00    -0.286 OA
HETATM    2  C2          0       3.348  82.602 -14.556  1.00  0.00     0.201 C 
HETATM    3  C3          0       3.138  81.284 -14.926  1.00  0.00     0.067 C 
HETATM    4  C4          0       3.372  80.846 -16.225  1.00  0.00     0.103 C 
HETATM    5  O13         0       3.786  81.721 -17.125  1.00  0.00    -0.307 OA
HETATM    6  C14         0       4.037  82.974 -16.818  1.00  0.00     0.107 C 
HETATM    7  C15         0       4.831  83.779 -17.622  1.00  0.00     0.049 C 
HETATM    8  C16         0       5.300  85.008 -17.174  1.00  0.00     0.093 C 
HETATM    9  C18         0       4.537  85.599 -16.174  1.00  0.00     0.048 C 
HETATM   10  C19         0       3.696  84.829 -15.381  1.00  0.00     0.096 C 
HETATM   11  C21         0       3.605  83.481 -15.597  1.00  0.00     0.084 C 
ENDROOT
BRANCH  10  12
HETATM   12  O20         0       3.288  85.321 -14.145  1.00  0.00    -0.359 OA
HETATM   13  H20         0       3.036  86.235 -14.091  1.00  0.00     0.218 HD
ENDBRANCH  10  12
BRANCH   4  14
HETATM   14  C5          0       3.717  79.434 -16.403  1.00  0.00     0.025 C 
HETATM   15  C6          0       2.764  78.451 -16.628  1.00  0.00     0.004 C 
HETATM   16  C7          0       3.085  77.436 -17.524  1.00  0.00     0.026 C 
HETATM   17  C8          0       4.357  77.325 -18.075  1.00  0.00     0.112 C 
HETATM   18  C10         0       5.365  77.928 -17.335  1.00  0.00     0.112 C 
HETATM   19  C12         0       5.030  78.996 -16.511  1.00  0.00     0.028 C 
BRANCH  17  20
HETATM   20  O9          0       4.533  76.836 -19.358  1.00  0.00    -0.357 OA
HETATM   21  H9          0       4.226  75.984 -19.645  1.00  0.00     0.218 HD
ENDBRANCH  17  20
BRANCH  18  22
HETATM   22  O11         0       6.671  77.687 -17.738  1.00  0.00    -0.357 OA
HETATM   23  H11         0       6.790  77.149 -18.512  1.00  0.00     0.218 HD
ENDBRANCH  18  22
ENDBRANCH   4  14
BRANCH   8  24
HETATM   24  O17         0       6.600  85.441 -17.460  1.00  0.00    -0.359 OA
HETATM   25  H17         0       7.045  85.189 -18.260  1.00  0.00     0.218 HD
ENDBRANCH   8  24
TORSDOF 5
ENDMDL
MODEL 6
REMARK VINA RESULT:      -5.7      4.195      5.638
REMARK  5 active torsions:
REMARK  status: ('A' for Active; 'I' for Inactive)
REMARK    1  A    between atoms: C4_4  and  C5_5 
REMARK    2  A    between atoms: C8_8  and  O9_9 
REMARK    3  A    between atoms: C10_11  and  O11_12 
REMARK    4  A    between atoms: C16_18  and  O17_19 
REMARK    5  A    between atoms: C19_22  and  O20_23 
ROOT
HETATM    1  O1          0       4.041  80.494 -12.274  1.00  0.00    -0.286 OA
HETATM    2  C2          0       3.527  80.550 -13.425  1.00  0.00     0.201 C 
HETATM    3  C3          0       3.519  79.475 -14.297  1.00  0.00     0.067 C 
HETATM    4  C4          0       3.038  79.594 -15.596  1.00  0.00     0.103 C 
HETATM    5  O13         0       2.560  80.760 -15.991  1.00  0.00    -0.307 OA
HETATM    6  C14         0       2.578  81.822 -15.216  1.00  0.00     0.107 C 
HETATM    7  C15         0       2.461  83.105 -15.731  1.00  0.00     0.049 C 
HETATM    8  C16         0       2.734  84.223 -14.952  1.00  0.00     0.093 C 
HETATM    9  C18         0       2.597  84.032 -13.583  1.00  0.00     0.048 C 
HETATM   10  C19         0       2.662  82.756 -13.039  1.00  0.00     0.096 C 
HETATM   11  C21         0       2.845  81.677 -13.859  1.00  0.00     0.084 C 
ENDROOT
BRANCH  10  12
HETATM   12  O20         0       2.961  82.607 -11.688  1.00  0.00    -0.359 OA
HETATM   13  H20         0       2.418  83.067 -11.059  1.00  0.00     0.218 HD
ENDBRANCH  10  12
BRANCH   4  14
HETATM   14  C5          0       3.587  78.680 -16.599  1.00  0.00     0.025 C 
HETATM   15  C6          0       3.011  78.501 -17.849  1.00  0.00     0.004 C 
HETATM   16  C7          0       3.865  78.344 -18.936  1.00  0.00     0.026 C 
HETATM   17  C8          0       5.241  78.232 -18.772  1.00  0.00     0.112 C 
HETATM   18  C10         0       5.642  77.792 -17.517  1.00  0.00     0.112 C 
HETATM   19  C12         0       4.807  78.038 -16.434  1.00  0.00     0.028 C 
BRANCH  17  20
HETATM   20  O9          0       6.111  78.730 -19.725  1.00  0.00    -0.357 OA
HETATM   21  H9          0       6.283  79.657 -19.851  1.00  0.00     0.218 HD
ENDBRANCH  17  20
BRANCH  18  22
HETATM   22  O11         0       6.985  77.483 -17.359  1.00  0.00    -0.357 OA
HETATM   23  H11         0       7.224  76.987 -16.585  1.00  0.00     0.218 HD
ENDBRANCH  18  22
ENDBRANCH   4  14
BRANCH   8  24
HETATM   24  O17         0       3.411  85.330 -15.477  1.00  0.00    -0.359 OA
HETATM   25  H17         0       3.005  86.187 -15.525  1.00  0.00     0.218 HD
ENDBRANCH   8  24
TORSDOF 5
ENDMDL
MODEL 7
REMARK VINA RESULT:      -5.7      2.781      7.395
REMARK  5 active torsions:
REMARK  status: ('A' for Active; 'I' for Inactive)
REMARK    1  A    between atoms: C4_4  and  C5_5 
REMARK    2  A    between atoms: C8_8  and  O9_9 
REMARK    3  A    between atoms: C10_11  and  O11_12 
REMARK    4  A    between atoms: C16_18  and  O17_19 
REMARK    5  A    between atoms: C19_22  and  O20_23 
ROOT
HETATM    1  O1          0       4.474  79.226 -15.885  1.00  0.00    -0.286 OA
HETATM    2  C2          0       3.459  79.618 -15.247  1.00  0.00     0.201 C 
HETATM    3  C3          0       2.875  80.856 -15.452  1.00  0.00     0.067 C 
HETATM    4  C4          0       1.819  81.303 -14.665  1.00  0.00     0.103 C 
HETATM    5  O13         0       1.357  80.512 -13.714  1.00  0.00    -0.307 OA
HETATM    6  C14         0       1.899  79.343 -13.452  1.00  0.00     0.107 C 
HETATM    7  C15         0       1.699  78.699 -12.240  1.00  0.00     0.049 C 
HETATM    8  C16         0       2.468  77.602 -11.869  1.00  0.00     0.093 C 
HETATM    9  C18         0       3.023  76.891 -12.926  1.00  0.00     0.048 C 
HETATM   10  C19         0       3.194  77.490 -14.167  1.00  0.00     0.096 C 
HETATM   11  C21         0       2.798  78.786 -14.355  1.00  0.00     0.084 C 
ENDROOT
BRANCH  10  12
HETATM   12  O20         0       4.116  76.953 -15.060  1.00  0.00    -0.359 OA
HETATM   13  H20         0       3.923  76.106 -15.444  1.00  0.00     0.218 HD
ENDBRANCH  10  12
BRANCH   4  14
HETATM   14  C5          0       1.663  82.751 -14.516  1.00  0.00     0.025 C 
HETATM   15  C6          0       0.618  83.325 -13.806  1.00  0.00     0.004 C 
HETATM   16  C7          0       0.900  84.453 -13.043  1.00  0.00     0.026 C 
HETATM   17  C8          0       2.145  85.071 -13.087  1.00  0.00     0.112 C 
HETATM   18  C10         0       2.871  84.830 -14.245  1.00  0.00     0.112 C 
HETATM   19  C12         0       2.629  83.653 -14.943  1.00  0.00     0.028 C 
BRANCH  17  20
HETATM   20  O9          0       2.670  85.689 -11.965  1.00  0.00    -0.357 OA
HETATM   21  H9          0       2.141  86.025 -11.251  1.00  0.00     0.218 HD
ENDBRANCH  17  20
BRANCH  18  22
HETATM   22  O11         0       4.032  85.569 -14.425  1.00  0.00    -0.357 OA
HETATM   23  H11         0       4.136  86.344 -13.885  1.00  0.00     0.218 HD
ENDBRANCH  18  22
ENDBRANCH   4  14
BRANCH   8  24
HETATM   24  O17         0       2.917  77.437 -10.555  1.00  0.00    -0.359 OA
HETATM   25  H17         0       2.313  77.323  -9.831  1.00  0.00     0.218 HD
ENDBRANCH   8  24
TORSDOF 5
ENDMDL
MODEL 8
REMARK VINA RESULT:      -5.7      3.142      4.720
REMARK  5 active torsions:
REMARK  status: ('A' for Active; 'I' for Inactive)
REMARK    1  A    between atoms: C4_4  and  C5_5 
REMARK    2  A    between atoms: C8_8  and  O9_9 
REMARK    3  A    between atoms: C10_11  and  O11_12 
REMARK    4  A    between atoms: C16_18  and  O17_19 
REMARK    5  A    between atoms: C19_22  and  O20_23 
ROOT
HETATM    1  O1          0       6.380  77.382 -17.121  1.00  0.00    -0.286 OA
HETATM    2  C2          0       5.467  78.137 -16.687  1.00  0.00     0.201 C 
HETATM    3  C3          0       5.157  78.243 -15.342  1.00  0.00     0.067 C 
HETATM    4  C4          0       4.080  79.003 -14.900  1.00  0.00     0.103 C 
HETATM    5  O13         0       3.353  79.652 -15.792  1.00  0.00    -0.307 OA
HETATM    6  C14         0       3.581  79.556 -17.084  1.00  0.00     0.107 C 
HETATM    7  C15         0       2.616  79.890 -18.023  1.00  0.00     0.049 C 
HETATM    8  C16         0       2.765  79.549 -19.363  1.00  0.00     0.093 C 
HETATM    9  C18         0       4.078  79.369 -19.780  1.00  0.00     0.048 C 
HETATM   10  C19         0       5.077  79.080 -18.860  1.00  0.00     0.096 C 
HETATM   11  C21         0       4.770  78.989 -17.530  1.00  0.00     0.084 C 
ENDROOT
BRANCH  10  12
HETATM   12  O20         0       6.255  78.484 -19.300  1.00  0.00    -0.359 OA
HETATM   13  H20         0       6.287  78.170 -20.195  1.00  0.00     0.218 HD
ENDBRANCH  10  12
BRANCH   4  14
HETATM   14  C5          0       3.457  78.610 -13.635  1.00  0.00     0.025 C 
HETATM   15  C6          0       2.493  79.379 -13.000  1.00  0.00     0.004 C 
HETATM   16  C7          0       1.442  78.712 -12.378  1.00  0.00     0.026 C 
HETATM   17  C8          0       1.419  77.326 -12.272  1.00  0.00     0.112 C 
HETATM   18  C10         0       2.665  76.718 -12.351  1.00  0.00     0.112 C 
HETATM   19  C12         0       3.674  77.368 -13.053  1.00  0.00     0.028 C 
BRANCH  17  20
HETATM   20  O9          0       0.222  76.632 -12.303  1.00  0.00    -0.357 OA
HETATM   21  H9          0      -0.141  76.174 -11.554  1.00  0.00     0.218 HD
ENDBRANCH  17  20
BRANCH  18  22
HETATM   22  O11         0       2.721  75.361 -12.065  1.00  0.00    -0.357 OA
HETATM   23  H11         0       3.422  74.864 -12.471  1.00  0.00     0.218 HD
ENDBRANCH  18  22
ENDBRANCH   4  14
BRANCH   8  24
HETATM   24  O17         0       1.682  79.098 -20.125  1.00  0.00    -0.359 OA
HETATM   25  H17         0       1.564  79.362 -21.030  1.00  0.00     0.218 HD
ENDBRANCH   8  24
TORSDOF 5
ENDMDL
MODEL 9
REMARK VINA RESULT:      -5.6      2.380      3.677
REMARK  5 active torsions:
REMARK  status: ('A' for Active; 'I' for Inactive)
REMARK    1  A    between atoms: C4_4  and  C5_5 
REMARK    2  A    between atoms: C8_8  and  O9_9 
REMARK    3  A    between atoms: C10_11  and  O11_12 
REMARK    4  A    between atoms: C16_18  and  O17_19 
REMARK    5  A    between atoms: C19_22  and  O20_23 
ROOT
HETATM    1  O1          0       5.863  77.644 -16.504  1.00  0.00    -0.286 OA
HETATM    2  C2          0       4.676  77.831 -16.117  1.00  0.00     0.201 C 
HETATM    3  C3          0       4.212  77.398 -14.887  1.00  0.00     0.067 C 
HETATM    4  C4          0       2.875  77.525 -14.527  1.00  0.00     0.103 C 
HETATM    5  O13         0       2.039  78.093 -15.380  1.00  0.00    -0.307 OA
HETATM    6  C14         0       2.421  78.487 -16.575  1.00  0.00     0.107 C 
HETATM    7  C15         0       1.510  78.703 -17.599  1.00  0.00     0.049 C 
HETATM    8  C16         0       1.928  78.868 -18.914  1.00  0.00     0.093 C 
HETATM    9  C18         0       3.230  79.330 -19.062  1.00  0.00     0.048 C 
HETATM   10  C19         0       4.155  79.172 -18.039  1.00  0.00     0.096 C 
HETATM   11  C21         0       3.777  78.572 -16.869  1.00  0.00     0.084 C 
ENDROOT
BRANCH  10  12
HETATM   12  O20         0       5.514  79.225 -18.336  1.00  0.00    -0.359 OA
HETATM   13  H20         0       5.908  78.468 -18.752  1.00  0.00     0.218 HD
ENDBRANCH  10  12
BRANCH   4  14
HETATM   14  C5          0       2.347  76.563 -13.558  1.00  0.00     0.025 C 
HETATM   15  C6          0       1.123  75.930 -13.718  1.00  0.00     0.004 C 
HETATM   16  C7          0       1.033  74.595 -13.334  1.00  0.00     0.026 C 
HETATM   17  C8          0       2.082  73.949 -12.689  1.00  0.00     0.112 C 
HETATM   18  C10         0       2.964  74.793 -12.028  1.00  0.00     0.112 C 
HETATM   19  C12         0       3.098  76.099 -12.486  1.00  0.00     0.028 C 
BRANCH  17  20
HETATM   20  O9          0       2.315  72.601 -12.891  1.00  0.00    -0.357 OA
HETATM   21  H9          0       2.012  72.121 -13.654  1.00  0.00     0.218 HD
ENDBRANCH  17  20
BRANCH  18  22
HETATM   22  O11         0       3.916  74.195 -11.215  1.00  0.00    -0.357 OA
HETATM   23  H11         0       4.642  74.739 -10.930  1.00  0.00     0.218 HD
ENDBRANCH  18  22
ENDBRANCH   4  14
BRANCH   8  24
HETATM   24  O17         0       1.223  78.298 -19.980  1.00  0.00    -0.359 OA
HETATM   25  H17         0       0.292  78.447 -20.099  1.00  0.00     0.218 HD
ENDBRANCH   8  24
TORSDOF 5
ENDMDL
