MODEL 1
REMARK VINA RESULT:      -6.2      0.000      0.000
REMARK  5 active torsions:
REMARK  status: ('A' for Active; 'I' for Inactive)
REMARK    1  A    between atoms: C4_4  and  C5_5 
REMARK    2  A    between atoms: C8_8  and  O9_9 
REMARK    3  A    between atoms: C10_11  and  O11_12 
REMARK    4  A    between atoms: C16_18  and  O17_19 
REMARK    5  A    between atoms: C19_22  and  O20_23 
ROOT
HETATM    1  O1          0      38.485  54.646 -24.755  1.00  0.00    -0.286 OA
HETATM    2  C2          0      37.682  54.462 -23.799  1.00  0.00     0.201 C 
HETATM    3  C3          0      37.011  55.499 -23.172  1.00  0.00     0.067 C 
HETATM    4  C4          0      36.212  55.280 -22.056  1.00  0.00     0.103 C 
HETATM    5  O13         0      36.080  54.046 -21.602  1.00  0.00    -0.307 OA
HETATM    6  C14         0      36.723  53.032 -22.137  1.00  0.00     0.107 C 
HETATM    7  C15         0      36.911  51.841 -21.450  1.00  0.00     0.049 C 
HETATM    8  C16         0      37.800  50.876 -21.908  1.00  0.00     0.093 C 
HETATM    9  C18         0      38.054  50.913 -23.273  1.00  0.00     0.048 C 
HETATM   10  C19         0      37.833  52.075 -24.001  1.00  0.00     0.096 C 
HETATM   11  C21         0      37.345  53.187 -23.371  1.00  0.00     0.084 C 
ENDROOT
BRANCH  10  12
HETATM   12  O20         0      38.478  52.246 -25.221  1.00  0.00    -0.359 OA
HETATM   13  H20         0      38.720  51.469 -25.710  1.00  0.00     0.218 HD
ENDBRANCH  10  12
BRANCH   4  14
HETATM   14  C5          0      36.044  56.396 -21.124  1.00  0.00     0.025 C 
HETATM   15  C6          0      36.973  56.700 -20.139  1.00  0.00     0.004 C 
HETATM   16  C7          0      37.219  58.044 -19.876  1.00  0.00     0.026 C 
HETATM   17  C8          0      36.471  59.052 -20.474  1.00  0.00     0.112 C 
HETATM   18  C10         0      35.213  58.659 -20.913  1.00  0.00     0.112 C 
HETATM   19  C12         0      35.019  57.325 -21.250  1.00  0.00     0.028 C 
BRANCH  17  20
HETATM   20  O9          0      37.045  60.273 -20.782  1.00  0.00    -0.357 OA
HETATM   21  H9          0      37.458  60.839 -20.140  1.00  0.00     0.218 HD
ENDBRANCH  17  20
BRANCH  18  22
HETATM   22  O11         0      34.356  59.662 -21.344  1.00  0.00    -0.357 OA
HETATM   23  H11         0      34.368  59.868 -22.271  1.00  0.00     0.218 HD
ENDBRANCH  18  22
ENDBRANCH   4  14
BRANCH   8  24
HETATM   24  O17         0      38.618  50.161 -21.026  1.00  0.00    -0.359 OA
HETATM   25  H17         0      38.564  50.283 -20.085  1.00  0.00     0.218 HD
ENDBRANCH   8  24
TORSDOF 5
ENDMDL
MODEL 2
REMARK VINA RESULT:      -6.0      1.611      6.805
REMARK  5 active torsions:
REMARK  status: ('A' for Active; 'I' for Inactive)
REMARK    1  A    between atoms: C4_4  and  C5_5 
REMARK    2  A    between atoms: C8_8  and  O9_9 
REMARK    3  A    between atoms: C10_11  and  O11_12 
REMARK    4  A    between atoms: C16_18  and  O17_19 
REMARK    5  A    between atoms: C19_22  and  O20_23 
ROOT
HETATM    1  O1          0      38.154  56.808 -19.978  1.00  0.00    -0.286 OA
HETATM    2  C2          0      37.210  56.261 -20.610  1.00  0.00     0.201 C 
HETATM    3  C3          0      37.097  54.888 -20.750  1.00  0.00     0.067 C 
HETATM    4  C4          0      36.104  54.315 -21.537  1.00  0.00     0.103 C 
HETATM    5  O13         0      35.241  55.108 -22.147  1.00  0.00    -0.307 OA
HETATM    6  C14         0      35.326  56.419 -22.078  1.00  0.00     0.107 C 
HETATM    7  C15         0      34.702  57.241 -23.005  1.00  0.00     0.049 C 
HETATM    8  C16         0      34.999  58.597 -23.082  1.00  0.00     0.093 C 
HETATM    9  C18         0      35.496  59.156 -21.911  1.00  0.00     0.048 C 
HETATM   10  C19         0      36.085  58.356 -20.941  1.00  0.00     0.096 C 
HETATM   11  C21         0      36.161  57.003 -21.132  1.00  0.00     0.084 C 
ENDROOT
BRANCH  10  12
HETATM   12  O20         0      36.946  58.934 -20.014  1.00  0.00    -0.359 OA
HETATM   13  H20         0      37.068  59.875 -20.045  1.00  0.00     0.218 HD
ENDBRANCH  10  12
BRANCH   4  14
HETATM   14  C5          0      36.385  53.001 -22.118  1.00  0.00     0.025 C 
HETATM   15  C6          0      36.371  52.764 -23.484  1.00  0.00     0.004 C 
HETATM   16  C7          0      37.333  51.900 -23.999  1.00  0.00     0.026 C 
HETATM   17  C8          0      38.195  51.191 -23.169  1.00  0.00     0.112 C 
HETATM   18  C10         0      37.730  51.004 -21.874  1.00  0.00     0.112 C 
HETATM   19  C12         0      36.834  51.931 -21.354  1.00  0.00     0.028 C 
BRANCH  17  20
HETATM   20  O9          0      39.486  50.899 -23.571  1.00  0.00    -0.357 OA
HETATM   21  H9          0      39.806  51.033 -24.456  1.00  0.00     0.218 HD
ENDBRANCH  17  20
BRANCH  18  22
HETATM   22  O11         0      38.459  50.147 -21.062  1.00  0.00    -0.357 OA
HETATM   23  H11         0      39.391  50.079 -21.235  1.00  0.00     0.218 HD
ENDBRANCH  18  22
ENDBRANCH   4  14
BRANCH   8  24
HETATM   24  O17         0      35.109  59.250 -24.314  1.00  0.00    -0.359 OA
HETATM   25  H17         0      34.788  58.858 -25.118  1.00  0.00     0.218 HD
ENDBRANCH   8  24
TORSDOF 5
ENDMDL
MODEL 3
REMARK VINA RESULT:      -5.9      1.148      1.422
REMARK  5 active torsions:
REMARK  status: ('A' for Active; 'I' for Inactive)
REMARK    1  A    between atoms: C4_4  and  C5_5 
REMARK    2  A    between atoms: C8_8  and  O9_9 
REMARK    3  A    between atoms: C10_11  and  O11_12 
REMARK    4  A    between atoms: C16_18  and  O17_19 
REMARK    5  A    between atoms: C19_22  and  O20_23 
ROOT
HETATM    1  O1          0      39.004  54.091 -25.320  1.00  0.00    -0.286 OA
HETATM    2  C2          0      38.134  54.127 -24.407  1.00  0.00     0.201 C 
HETATM    3  C3          0      37.528  55.301 -23.995  1.00  0.00     0.067 C 
HETATM    4  C4          0      36.648  55.328 -22.918  1.00  0.00     0.103 C 
HETATM    5  O13         0      36.375  54.196 -22.294  1.00  0.00    -0.307 OA
HETATM    6  C14         0      36.951  53.060 -22.621  1.00  0.00     0.107 C 
HETATM    7  C15         0      36.986  51.981 -21.750  1.00  0.00     0.049 C 
HETATM    8  C16         0      37.806  50.885 -21.992  1.00  0.00     0.093 C 
HETATM    9  C18         0      38.141  50.686 -23.326  1.00  0.00     0.048 C 
HETATM   10  C19         0      38.072  51.733 -24.234  1.00  0.00     0.096 C 
HETATM   11  C21         0      37.654  52.967 -23.817  1.00  0.00     0.084 C 
ENDROOT
BRANCH  10  12
HETATM   12  O20         0      38.800  51.656 -25.418  1.00  0.00    -0.359 OA
HETATM   13  H20         0      38.436  51.149 -26.133  1.00  0.00     0.218 HD
ENDBRANCH  10  12
BRANCH   4  14
HETATM   14  C5          0      36.531  56.586 -22.180  1.00  0.00     0.025 C 
HETATM   15  C6          0      37.080  57.778 -22.632  1.00  0.00     0.004 C 
HETATM   16  C7          0      36.348  58.943 -22.427  1.00  0.00     0.026 C 
HETATM   17  C8          0      35.176  58.946 -21.679  1.00  0.00     0.112 C 
HETATM   18  C10         0      35.062  57.899 -20.775  1.00  0.00     0.112 C 
HETATM   19  C12         0      35.736  56.714 -21.048  1.00  0.00     0.028 C 
BRANCH  17  20
HETATM   20  O9          0      34.140  59.810 -21.989  1.00  0.00    -0.357 OA
HETATM   21  H9          0      34.223  60.756 -21.984  1.00  0.00     0.218 HD
ENDBRANCH  17  20
BRANCH  18  22
HETATM   22  O11         0      34.008  57.957 -19.875  1.00  0.00    -0.357 OA
HETATM   23  H11         0      33.336  57.289 -19.955  1.00  0.00     0.218 HD
ENDBRANCH  18  22
ENDBRANCH   4  14
BRANCH   8  24
HETATM   24  O17         0      38.501  50.251 -20.956  1.00  0.00    -0.359 OA
HETATM   25  H17         0      38.885  49.389 -21.066  1.00  0.00     0.218 HD
ENDBRANCH   8  24
TORSDOF 5
ENDMDL
MODEL 4
REMARK VINA RESULT:      -5.8      1.777      3.080
REMARK  5 active torsions:
REMARK  status: ('A' for Active; 'I' for Inactive)
REMARK    1  A    between atoms: C4_4  and  C5_5 
REMARK    2  A    between atoms: C8_8  and  O9_9 
REMARK    3  A    between atoms: C10_11  and  O11_12 
REMARK    4  A    between atoms: C16_18  and  O17_19 
REMARK    5  A    between atoms: C19_22  and  O20_23 
ROOT
HETATM    1  O1          0      36.302  51.322 -20.665  1.00  0.00    -0.286 OA
HETATM    2  C2          0      36.620  52.280 -21.421  1.00  0.00     0.201 C 
HETATM    3  C3          0      36.034  53.532 -21.334  1.00  0.00     0.067 C 
HETATM    4  C4          0      36.328  54.539 -22.245  1.00  0.00     0.103 C 
HETATM    5  O13         0      37.205  54.293 -23.203  1.00  0.00    -0.307 OA
HETATM    6  C14         0      37.762  53.111 -23.353  1.00  0.00     0.107 C 
HETATM    7  C15         0      38.351  52.728 -24.549  1.00  0.00     0.049 C 
HETATM    8  C16         0      38.706  51.406 -24.788  1.00  0.00     0.093 C 
HETATM    9  C18         0      38.940  50.646 -23.648  1.00  0.00     0.048 C 
HETATM   10  C19         0      38.404  51.026 -22.425  1.00  0.00     0.096 C 
HETATM   11  C21         0      37.654  52.167 -22.337  1.00  0.00     0.084 C 
ENDROOT
BRANCH  10  12
HETATM   12  O20         0      38.266  50.076 -21.418  1.00  0.00    -0.359 OA
HETATM   13  H20         0      38.136  49.171 -21.674  1.00  0.00     0.218 HD
ENDBRANCH  10  12
BRANCH   4  14
HETATM   14  C5          0      35.299  55.555 -22.476  1.00  0.00     0.025 C 
HETATM   15  C6          0      34.166  55.671 -21.684  1.00  0.00     0.004 C 
HETATM   16  C7          0      33.711  56.953 -21.394  1.00  0.00     0.026 C 
HETATM   17  C8          0      34.280  58.079 -21.979  1.00  0.00     0.112 C 
HETATM   18  C10         0      34.933  57.840 -23.181  1.00  0.00     0.112 C 
HETATM   19  C12         0      35.453  56.572 -23.410  1.00  0.00     0.028 C 
BRANCH  17  20
HETATM   20  O9          0      34.355  59.276 -21.289  1.00  0.00    -0.357 OA
HETATM   21  H9          0      33.763  59.518 -20.586  1.00  0.00     0.218 HD
ENDBRANCH  17  20
BRANCH  18  22
HETATM   22  O11         0      35.354  58.951 -23.900  1.00  0.00    -0.357 OA
HETATM   23  H11         0      36.257  59.222 -23.782  1.00  0.00     0.218 HD
ENDBRANCH  18  22
ENDBRANCH   4  14
BRANCH   8  24
HETATM   24  O17         0      38.511  50.812 -26.040  1.00  0.00    -0.359 OA
HETATM   25  H17         0      38.030  49.999 -26.138  1.00  0.00     0.218 HD
ENDBRANCH   8  24
TORSDOF 5
ENDMDL
MODEL 5
REMARK VINA RESULT:      -5.8      2.245      3.638
REMARK  5 active torsions:
REMARK  status: ('A' for Active; 'I' for Inactive)
REMARK    1  A    between atoms: C4_4  and  C5_5 
REMARK    2  A    between atoms: C8_8  and  O9_9 
REMARK    3  A    between atoms: C10_11  and  O11_12 
REMARK    4  A    between atoms: C16_18  and  O17_19 
REMARK    5  A    between atoms: C19_22  and  O20_23 
ROOT
HETATM    1  O1          0      38.215  50.607 -21.448  1.00  0.00    -0.286 OA
HETATM    2  C2          0      37.736  51.701 -21.854  1.00  0.00     0.201 C 
HETATM    3  C3          0      37.180  52.639 -21.000  1.00  0.00     0.067 C 
HETATM    4  C4          0      36.566  53.789 -21.482  1.00  0.00     0.103 C 
HETATM    5  O13         0      36.535  53.993 -22.788  1.00  0.00    -0.307 OA
HETATM    6  C14         0      37.015  53.117 -23.643  1.00  0.00     0.107 C 
HETATM    7  C15         0      36.641  53.121 -24.980  1.00  0.00     0.049 C 
HETATM    8  C16         0      36.944  52.053 -25.816  1.00  0.00     0.093 C 
HETATM    9  C18         0      38.040  51.293 -25.425  1.00  0.00     0.048 C 
HETATM   10  C19         0      38.469  51.303 -24.105  1.00  0.00     0.096 C 
HETATM   11  C21         0      37.820  52.080 -23.185  1.00  0.00     0.084 C 
ENDROOT
BRANCH  10  12
HETATM   12  O20         0      39.248  50.250 -23.635  1.00  0.00    -0.359 OA
HETATM   13  H20         0      39.597  49.636 -24.271  1.00  0.00     0.218 HD
ENDBRANCH  10  12
BRANCH   4  14
HETATM   14  C5          0      35.522  54.390 -20.651  1.00  0.00     0.025 C 
HETATM   15  C6          0      35.707  55.572 -19.948  1.00  0.00     0.004 C 
HETATM   16  C7          0      34.637  56.458 -19.884  1.00  0.00     0.026 C 
HETATM   17  C8          0      33.383  56.125 -20.385  1.00  0.00     0.112 C 
HETATM   18  C10         0      33.137  54.761 -20.473  1.00  0.00     0.112 C 
HETATM   19  C12         0      34.221  53.904 -20.623  1.00  0.00     0.028 C 
BRANCH  17  20
HETATM   20  O9          0      32.561  57.091 -20.937  1.00  0.00    -0.357 OA
HETATM   21  H9          0      31.787  57.436 -20.506  1.00  0.00     0.218 HD
ENDBRANCH  17  20
BRANCH  18  22
HETATM   22  O11         0      31.842  54.375 -20.786  1.00  0.00    -0.357 OA
HETATM   23  H11         0      31.145  54.977 -20.550  1.00  0.00     0.218 HD
ENDBRANCH  18  22
ENDBRANCH   4  14
BRANCH   8  24
HETATM   24  O17         0      36.028  51.589 -26.767  1.00  0.00    -0.359 OA
HETATM   25  H17         0      35.107  51.816 -26.725  1.00  0.00     0.218 HD
ENDBRANCH   8  24
TORSDOF 5
ENDMDL
MODEL 6
REMARK VINA RESULT:      -5.7      1.767      6.672
REMARK  5 active torsions:
REMARK  status: ('A' for Active; 'I' for Inactive)
REMARK    1  A    between atoms: C4_4  and  C5_5 
REMARK    2  A    between atoms: C8_8  and  O9_9 
REMARK    3  A    between atoms: C10_11  and  O11_12 
REMARK    4  A    between atoms: C16_18  and  O17_19 
REMARK    5  A    between atoms: C19_22  and  O20_23 
ROOT
HETATM    1  O1          0      37.429  57.435 -24.379  1.00  0.00    -0.286 OA
HETATM    2  C2          0      36.944  56.656 -23.513  1.00  0.00     0.201 C 
HETATM    3  C3          0      37.397  55.360 -23.331  1.00  0.00     0.067 C 
HETATM    4  C4          0      36.777  54.490 -22.442  1.00  0.00     0.103 C 
HETATM    5  O13         0      35.744  54.926 -21.743  1.00  0.00    -0.307 OA
HETATM    6  C14         0      35.251  56.135 -21.904  1.00  0.00     0.107 C 
HETATM    7  C15         0      33.967  56.461 -21.493  1.00  0.00     0.049 C 
HETATM    8  C16         0      33.362  57.647 -21.890  1.00  0.00     0.093 C 
HETATM    9  C18         0      34.240  58.669 -22.230  1.00  0.00     0.048 C 
HETATM   10  C19         0      35.547  58.382 -22.600  1.00  0.00     0.096 C 
HETATM   11  C21         0      35.978  57.083 -22.615  1.00  0.00     0.084 C 
ENDROOT
BRANCH  10  12
HETATM   12  O20         0      36.266  59.316 -23.339  1.00  0.00    -0.359 OA
HETATM   13  H20         0      35.792  60.051 -23.709  1.00  0.00     0.218 HD
ENDBRANCH  10  12
BRANCH   4  14
HETATM   14  C5          0      36.884  53.057 -22.722  1.00  0.00     0.025 C 
HETATM   15  C6          0      36.782  52.532 -24.003  1.00  0.00     0.004 C 
HETATM   16  C7          0      37.618  51.470 -24.332  1.00  0.00     0.026 C 
HETATM   17  C8          0      38.432  50.861 -23.382  1.00  0.00     0.112 C 
HETATM   18  C10         0      38.007  51.016 -22.069  1.00  0.00     0.112 C 
HETATM   19  C12         0      37.244  52.133 -21.750  1.00  0.00     0.028 C 
BRANCH  17  20
HETATM   20  O9          0      39.663  50.338 -23.735  1.00  0.00    -0.357 OA
HETATM   21  H9          0      40.493  50.735 -23.498  1.00  0.00     0.218 HD
ENDBRANCH  17  20
BRANCH  18  22
HETATM   22  O11         0      38.671  50.275 -21.102  1.00  0.00    -0.357 OA
HETATM   23  H11         0      38.838  49.361 -21.300  1.00  0.00     0.218 HD
ENDBRANCH  18  22
ENDBRANCH   4  14
BRANCH   8  24
HETATM   24  O17         0      32.008  57.694 -22.240  1.00  0.00    -0.359 OA
HETATM   25  H17         0      31.329  57.386 -21.651  1.00  0.00     0.218 HD
ENDBRANCH   8  24
TORSDOF 5
ENDMDL
MODEL 7
REMARK VINA RESULT:      -5.6      2.541      3.680
REMARK  5 active torsions:
REMARK  status: ('A' for Active; 'I' for Inactive)
REMARK    1  A    between atoms: C4_4  and  C5_5 
REMARK    2  A    between atoms: C8_8  and  O9_9 
REMARK    3  A    between atoms: C10_11  and  O11_12 
REMARK    4  A    between atoms: C16_18  and  O17_19 
REMARK    5  A    between atoms: C19_22  and  O20_23 
ROOT
HETATM    1  O1          0      36.131  53.182 -26.240  1.00  0.00    -0.286 OA
HETATM    2  C2          0      36.586  52.655 -25.188  1.00  0.00     0.201 C 
HETATM    3  C3          0      36.018  52.857 -23.941  1.00  0.00     0.067 C 
HETATM    4  C4          0      36.598  52.348 -22.785  1.00  0.00     0.103 C 
HETATM    5  O13         0      37.709  51.639 -22.891  1.00  0.00    -0.307 OA
HETATM    6  C14         0      38.309  51.450 -24.045  1.00  0.00     0.107 C 
HETATM    7  C15         0      39.642  51.070 -24.122  1.00  0.00     0.049 C 
HETATM    8  C16         0      40.338  51.119 -25.324  1.00  0.00     0.093 C 
HETATM    9  C18         0      39.547  51.038 -26.464  1.00  0.00     0.048 C 
HETATM   10  C19         0      38.199  51.366 -26.412  1.00  0.00     0.096 C 
HETATM   11  C21         0      37.640  51.755 -25.226  1.00  0.00     0.084 C 
ENDROOT
BRANCH  10  12
HETATM   12  O20         0      37.535  51.703 -27.588  1.00  0.00    -0.359 OA
HETATM   13  H20         0      36.832  52.339 -27.535  1.00  0.00     0.218 HD
ENDBRANCH  10  12
BRANCH   4  14
HETATM   14  C5          0      36.334  53.060 -21.534  1.00  0.00     0.025 C 
HETATM   15  C6          0      37.235  53.951 -20.970  1.00  0.00     0.004 C 
HETATM   16  C7          0      36.721  55.095 -20.368  1.00  0.00     0.026 C 
HETATM   17  C8          0      35.352  55.284 -20.212  1.00  0.00     0.112 C 
HETATM   18  C10         0      34.601  54.115 -20.215  1.00  0.00     0.112 C 
HETATM   19  C12         0      35.100  53.012 -20.896  1.00  0.00     0.028 C 
BRANCH  17  20
HETATM   20  O9          0      34.800  56.551 -20.267  1.00  0.00    -0.357 OA
HETATM   21  H9          0      34.864  57.122 -21.024  1.00  0.00     0.218 HD
ENDBRANCH  17  20
BRANCH  18  22
HETATM   22  O11         0      33.261  54.229 -19.875  1.00  0.00    -0.357 OA
HETATM   23  H11         0      33.016  54.968 -19.330  1.00  0.00     0.218 HD
ENDBRANCH  18  22
ENDBRANCH   4  14
BRANCH   8  24
HETATM   24  O17         0      41.667  51.553 -25.380  1.00  0.00    -0.359 OA
HETATM   25  H17         0      42.332  51.064 -25.849  1.00  0.00     0.218 HD
ENDBRANCH   8  24
TORSDOF 5
ENDMDL
MODEL 8
REMARK VINA RESULT:      -5.3      1.884      2.005
REMARK  5 active torsions:
REMARK  status: ('A' for Active; 'I' for Inactive)
REMARK    1  A    between atoms: C4_4  and  C5_5 
REMARK    2  A    between atoms: C8_8  and  O9_9 
REMARK    3  A    between atoms: C10_11  and  O11_12 
REMARK    4  A    between atoms: C16_18  and  O17_19 
REMARK    5  A    between atoms: C19_22  and  O20_23 
ROOT
HETATM    1  O1          0      39.543  54.107 -26.005  1.00  0.00    -0.286 OA
HETATM    2  C2          0      38.656  54.195 -25.111  1.00  0.00     0.201 C 
HETATM    3  C3          0      38.005  55.380 -24.814  1.00  0.00     0.067 C 
HETATM    4  C4          0      37.107  55.472 -23.757  1.00  0.00     0.103 C 
HETATM    5  O13         0      36.861  54.392 -23.037  1.00  0.00    -0.307 OA
HETATM    6  C14         0      37.480  53.252 -23.253  1.00  0.00     0.107 C 
HETATM    7  C15         0      37.537  52.256 -22.288  1.00  0.00     0.049 C 
HETATM    8  C16         0      38.396  51.172 -22.419  1.00  0.00     0.093 C 
HETATM    9  C18         0      38.761  50.867 -23.725  1.00  0.00     0.048 C 
HETATM   10  C19         0      38.672  51.825 -24.725  1.00  0.00     0.096 C 
HETATM   11  C21         0      38.206  53.077 -24.426  1.00  0.00     0.084 C 
ENDROOT
BRANCH  10  12
HETATM   12  O20         0      39.422  51.668 -25.886  1.00  0.00    -0.359 OA
HETATM   13  H20         0      39.093  51.076 -26.551  1.00  0.00     0.218 HD
ENDBRANCH  10  12
BRANCH   4  14
HETATM   14  C5          0      36.936  56.787 -23.136  1.00  0.00     0.025 C 
HETATM   15  C6          0      37.875  57.341 -22.278  1.00  0.00     0.004 C 
HETATM   16  C7          0      38.104  58.710 -22.371  1.00  0.00     0.026 C 
HETATM   17  C8          0      37.331  59.525 -23.192  1.00  0.00     0.112 C 
HETATM   18  C10         0      36.074  59.019 -23.493  1.00  0.00     0.112 C 
HETATM   19  C12         0      35.895  57.641 -23.475  1.00  0.00     0.028 C 
BRANCH  17  20
HETATM   20  O9          0      37.882  60.633 -23.811  1.00  0.00    -0.357 OA
HETATM   21  H9          0      37.368  61.307 -24.241  1.00  0.00     0.218 HD
ENDBRANCH  17  20
BRANCH  18  22
HETATM   22  O11         0      35.195  59.869 -24.148  1.00  0.00    -0.357 OA
HETATM   23  H11         0      34.395  60.099 -23.689  1.00  0.00     0.218 HD
ENDBRANCH  18  22
ENDBRANCH   4  14
BRANCH   8  24
HETATM   24  O17         0      39.095  50.659 -21.321  1.00  0.00    -0.359 OA
HETATM   25  H17         0      38.991  49.757 -21.040  1.00  0.00     0.218 HD
ENDBRANCH   8  24
TORSDOF 5
ENDMDL
MODEL 9
REMARK VINA RESULT:      -5.2      6.561      9.686
REMARK  5 active torsions:
REMARK  status: ('A' for Active; 'I' for Inactive)
REMARK    1  A    between atoms: C4_4  and  C5_5 
REMARK    2  A    between atoms: C8_8  and  O9_9 
REMARK    3  A    between atoms: C10_11  and  O11_12 
REMARK    4  A    between atoms: C16_18  and  O17_19 
REMARK    5  A    between atoms: C19_22  and  O20_23 
ROOT
HETATM    1  O1          0      38.256  61.566 -20.047  1.00  0.00    -0.286 OA
HETATM    2  C2          0      39.054  61.986 -20.929  1.00  0.00     0.201 C 
HETATM    3  C3          0      39.965  63.002 -20.696  1.00  0.00     0.067 C 
HETATM    4  C4          0      40.761  63.515 -21.713  1.00  0.00     0.103 C 
HETATM    5  O13         0      40.653  63.000 -22.925  1.00  0.00    -0.307 OA
HETATM    6  C14         0      39.779  62.059 -23.209  1.00  0.00     0.107 C 
HETATM    7  C15         0      39.381  61.801 -24.513  1.00  0.00     0.049 C 
HETATM    8  C16         0      38.283  60.994 -24.786  1.00  0.00     0.093 C 
HETATM    9  C18         0      37.965  60.078 -23.791  1.00  0.00     0.048 C 
HETATM   10  C19         0      38.387  60.282 -22.484  1.00  0.00     0.096 C 
HETATM   11  C21         0      39.136  61.385 -22.176  1.00  0.00     0.084 C 
ENDROOT
BRANCH  10  12
HETATM   12  O20         0      37.725  59.633 -21.446  1.00  0.00    -0.359 OA
HETATM   13  H20         0      37.549  60.126 -20.654  1.00  0.00     0.218 HD
ENDBRANCH  10  12
BRANCH   4  14
HETATM   14  C5          0      41.215  64.900 -21.575  1.00  0.00     0.025 C 
HETATM   15  C6          0      42.457  65.332 -22.018  1.00  0.00     0.004 C 
HETATM   16  C7          0      42.531  66.596 -22.595  1.00  0.00     0.026 C 
HETATM   17  C8          0      41.438  67.456 -22.611  1.00  0.00     0.112 C 
HETATM   18  C10         0      40.491  67.208 -21.626  1.00  0.00     0.112 C 
HETATM   19  C12         0      40.381  65.916 -21.127  1.00  0.00     0.028 C 
BRANCH  17  20
HETATM   20  O9          0      41.242  68.333 -23.663  1.00  0.00    -0.357 OA
HETATM   21  H9          0      40.891  68.075 -24.507  1.00  0.00     0.218 HD
ENDBRANCH  17  20
BRANCH  18  22
HETATM   22  O11         0      39.480  68.147 -21.476  1.00  0.00    -0.357 OA
HETATM   23  H11         0      39.222  68.363 -20.588  1.00  0.00     0.218 HD
ENDBRANCH  18  22
ENDBRANCH   4  14
BRANCH   8  24
HETATM   24  O17         0      37.383  61.311 -25.809  1.00  0.00    -0.359 OA
HETATM   25  H17         0      36.604  61.829 -25.646  1.00  0.00     0.218 HD
ENDBRANCH   8  24
TORSDOF 5
ENDMDL
