MODEL 1
REMARK VINA RESULT:      -0.2      0.000      0.000
REMARK  5 active torsions:
REMARK  status: ('A' for Active; 'I' for Inactive)
REMARK    1  A    between atoms: C4_4  and  C5_5 
REMARK    2  A    between atoms: C8_8  and  O9_9 
REMARK    3  A    between atoms: C10_11  and  O11_12 
REMARK    4  A    between atoms: C16_18  and  O17_19 
REMARK    5  A    between atoms: C19_22  and  O20_23 
ROOT
HETATM    1  O1          0      27.831   4.601   4.989  1.00  0.00    -0.286 OA
HETATM    2  C2          0      26.965   5.377   5.479  1.00  0.00     0.201 C 
HETATM    3  C3          0      27.170   6.739   5.617  1.00  0.00     0.067 C 
HETATM    4  C4          0      26.241   7.555   6.253  1.00  0.00     0.103 C 
HETATM    5  O13         0      25.129   7.010   6.716  1.00  0.00    -0.307 OA
HETATM    6  C14         0      24.902   5.717   6.644  1.00  0.00     0.107 C 
HETATM    7  C15         0      23.966   5.093   7.456  1.00  0.00     0.049 C 
HETATM    8  C16         0      23.908   3.708   7.559  1.00  0.00     0.093 C 
HETATM    9  C18         0      24.423   3.017   6.470  1.00  0.00     0.048 C 
HETATM   10  C19         0      25.327   3.626   5.610  1.00  0.00     0.096 C 
HETATM   11  C21         0      25.701   4.924   5.828  1.00  0.00     0.084 C 
ENDROOT
BRANCH  10  12
HETATM   12  O20         0      26.150   2.834   4.815  1.00  0.00    -0.359 OA
HETATM   13  H20         0      25.749   2.349   4.105  1.00  0.00     0.218 HD
ENDBRANCH  10  12
BRANCH   4  14
HETATM   14  C5          0      26.744   8.776   6.886  1.00  0.00     0.025 C 
HETATM   15  C6          0      26.056   9.440   7.891  1.00  0.00     0.004 C 
HETATM   16  C7          0      26.803   9.991   8.928  1.00  0.00     0.026 C 
HETATM   17  C8          0      28.193  10.000   8.900  1.00  0.00     0.112 C 
HETATM   18  C10         0      28.748   9.907   7.630  1.00  0.00     0.112 C 
HETATM   19  C12         0      28.015   9.276   6.633  1.00  0.00     0.028 C 
BRANCH  17  20
HETATM   20  O9          0      28.927   9.895  10.068  1.00  0.00    -0.357 OA
HETATM   21  H9          0      29.876   9.911  10.099  1.00  0.00     0.218 HD
ENDBRANCH  17  20
BRANCH  18  22
HETATM   22  O11         0      30.119  10.102   7.528  1.00  0.00    -0.357 OA
HETATM   23  H11         0      30.608   9.456   7.031  1.00  0.00     0.218 HD
ENDBRANCH  18  22
ENDBRANCH   4  14
BRANCH   8  24
HETATM   24  O17         0      23.672   3.078   8.786  1.00  0.00    -0.359 OA
HETATM   25  H17         0      22.815   3.089   9.196  1.00  0.00     0.218 HD
ENDBRANCH   8  24
TORSDOF 5
ENDMDL
MODEL 2
REMARK VINA RESULT:      -0.1      2.976      6.472
REMARK  5 active torsions:
REMARK  status: ('A' for Active; 'I' for Inactive)
REMARK    1  A    between atoms: C4_4  and  C5_5 
REMARK    2  A    between atoms: C8_8  and  O9_9 
REMARK    3  A    between atoms: C10_11  and  O11_12 
REMARK    4  A    between atoms: C16_18  and  O17_19 
REMARK    5  A    between atoms: C19_22  and  O20_23 
ROOT
HETATM    1  O1          0      27.606   6.343   9.306  1.00  0.00    -0.286 OA
HETATM    2  C2          0      27.049   7.328   8.750  1.00  0.00     0.201 C 
HETATM    3  C3          0      25.681   7.400   8.546  1.00  0.00     0.067 C 
HETATM    4  C4          0      25.104   8.449   7.840  1.00  0.00     0.103 C 
HETATM    5  O13         0      25.886   9.407   7.374  1.00  0.00    -0.307 OA
HETATM    6  C14         0      27.194   9.368   7.507  1.00  0.00     0.107 C 
HETATM    7  C15         0      28.033  10.124   6.702  1.00  0.00     0.049 C 
HETATM    8  C16         0      29.403   9.894   6.670  1.00  0.00     0.093 C 
HETATM    9  C18         0      29.924   9.293   7.810  1.00  0.00     0.048 C 
HETATM   10  C19         0      29.103   8.568   8.663  1.00  0.00     0.096 C 
HETATM   11  C21         0      27.767   8.458   8.388  1.00  0.00     0.084 C 
ENDROOT
BRANCH  10  12
HETATM   12  O20         0      29.671   7.633   9.523  1.00  0.00    -0.359 OA
HETATM   13  H20         0      29.886   6.778   9.172  1.00  0.00     0.218 HD
ENDBRANCH  10  12
BRANCH   4  14
HETATM   14  C5          0      23.836   8.181   7.159  1.00  0.00     0.025 C 
HETATM   15  C6          0      23.503   8.749   5.938  1.00  0.00     0.004 C 
HETATM   16  C7          0      22.819   7.955   5.023  1.00  0.00     0.026 C 
HETATM   17  C8          0      22.362   6.685   5.357  1.00  0.00     0.112 C 
HETATM   18  C10         0      22.178   6.474   6.717  1.00  0.00     0.112 C 
HETATM   19  C12         0      22.937   7.222   7.609  1.00  0.00     0.028 C 
BRANCH  17  20
HETATM   20  O9          0      22.311   5.678   4.410  1.00  0.00    -0.357 OA
HETATM   21  H9          0      22.651   4.802   4.552  1.00  0.00     0.218 HD
ENDBRANCH  17  20
BRANCH  18  22
HETATM   22  O11         0      21.548   5.296   7.091  1.00  0.00    -0.357 OA
HETATM   23  H11         0      21.199   5.257   7.974  1.00  0.00     0.218 HD
ENDBRANCH  18  22
ENDBRANCH   4  14
BRANCH   8  24
HETATM   24  O17         0      30.124   9.948   5.472  1.00  0.00    -0.359 OA
HETATM   25  H17         0      30.732  10.654   5.287  1.00  0.00     0.218 HD
ENDBRANCH   8  24
TORSDOF 5
ENDMDL
MODEL 3
REMARK VINA RESULT:      -0.1      2.427      4.157
REMARK  5 active torsions:
REMARK  status: ('A' for Active; 'I' for Inactive)
REMARK    1  A    between atoms: C4_4  and  C5_5 
REMARK    2  A    between atoms: C8_8  and  O9_9 
REMARK    3  A    between atoms: C10_11  and  O11_12 
REMARK    4  A    between atoms: C16_18  and  O17_19 
REMARK    5  A    between atoms: C19_22  and  O20_23 
ROOT
HETATM    1  O1          0      24.672   5.261   5.339  1.00  0.00    -0.286 OA
HETATM    2  C2          0      25.908   5.118   5.551  1.00  0.00     0.201 C 
HETATM    3  C3          0      26.497   5.395   6.773  1.00  0.00     0.067 C 
HETATM    4  C4          0      27.874   5.328   6.950  1.00  0.00     0.103 C 
HETATM    5  O13         0      28.629   4.970   5.926  1.00  0.00    -0.307 OA
HETATM    6  C14         0      28.124   4.732   4.735  1.00  0.00     0.107 C 
HETATM    7  C15         0      28.909   4.753   3.591  1.00  0.00     0.049 C 
HETATM    8  C16         0      28.339   4.756   2.324  1.00  0.00     0.093 C 
HETATM    9  C18         0      27.061   4.215   2.254  1.00  0.00     0.048 C 
HETATM   10  C19         0      26.265   4.136   3.389  1.00  0.00     0.096 C 
HETATM   11  C21         0      26.750   4.579   4.590  1.00  0.00     0.084 C 
ENDROOT
BRANCH  10  12
HETATM   12  O20         0      24.887   4.015   3.247  1.00  0.00    -0.359 OA
HETATM   13  H20         0      24.364   3.922   4.034  1.00  0.00     0.218 HD
ENDBRANCH  10  12
BRANCH   4  14
HETATM   14  C5          0      28.457   6.172   7.994  1.00  0.00     0.025 C 
HETATM   15  C6          0      29.800   6.520   8.017  1.00  0.00     0.004 C 
HETATM   16  C7          0      30.124   7.810   8.425  1.00  0.00     0.026 C 
HETATM   17  C8          0      29.161   8.682   8.921  1.00  0.00     0.112 C 
HETATM   18  C10         0      28.032   8.063   9.442  1.00  0.00     0.112 C 
HETATM   19  C12         0      27.683   6.809   8.955  1.00  0.00     0.028 C 
BRANCH  17  20
HETATM   20  O9          0      29.259  10.045   8.703  1.00  0.00    -0.357 OA
HETATM   21  H9          0      28.634  10.678   9.035  1.00  0.00     0.218 HD
ENDBRANCH  17  20
BRANCH  18  22
HETATM   22  O11         0      27.129   8.871  10.118  1.00  0.00    -0.357 OA
HETATM   23  H11         0      26.387   9.195   9.621  1.00  0.00     0.218 HD
ENDBRANCH  18  22
ENDBRANCH   4  14
BRANCH   8  24
HETATM   24  O17         0      28.863   5.540   1.290  1.00  0.00    -0.359 OA
HETATM   25  H17         0      29.704   5.346   0.894  1.00  0.00     0.218 HD
ENDBRANCH   8  24
TORSDOF 5
ENDMDL
MODEL 4
REMARK VINA RESULT:      -0.1      1.761      3.191
REMARK  5 active torsions:
REMARK  status: ('A' for Active; 'I' for Inactive)
REMARK    1  A    between atoms: C4_4  and  C5_5 
REMARK    2  A    between atoms: C8_8  and  O9_9 
REMARK    3  A    between atoms: C10_11  and  O11_12 
REMARK    4  A    between atoms: C16_18  and  O17_19 
REMARK    5  A    between atoms: C19_22  and  O20_23 
ROOT
HETATM    1  O1          0      24.203   3.739   5.790  1.00  0.00    -0.286 OA
HETATM    2  C2          0      25.341   4.202   6.079  1.00  0.00     0.201 C 
HETATM    3  C3          0      25.515   5.358   6.821  1.00  0.00     0.067 C 
HETATM    4  C4          0      26.776   5.902   7.037  1.00  0.00     0.103 C 
HETATM    5  O13         0      27.829   5.282   6.535  1.00  0.00    -0.307 OA
HETATM    6  C14         0      27.717   4.203   5.792  1.00  0.00     0.107 C 
HETATM    7  C15         0      28.737   3.787   4.949  1.00  0.00     0.049 C 
HETATM    8  C16         0      28.524   2.807   3.987  1.00  0.00     0.093 C 
HETATM    9  C18         0      27.477   1.935   4.260  1.00  0.00     0.048 C 
HETATM   10  C19         0      26.463   2.301   5.135  1.00  0.00     0.096 C 
HETATM   11  C21         0      26.504   3.524   5.747  1.00  0.00     0.084 C 
ENDROOT
BRANCH  10  12
HETATM   12  O20         0      25.238   1.644   5.070  1.00  0.00    -0.359 OA
HETATM   13  H20         0      25.027   1.174   4.273  1.00  0.00     0.218 HD
ENDBRANCH  10  12
BRANCH   4  14
HETATM   14  C5          0      26.851   7.346   7.269  1.00  0.00     0.025 C 
HETATM   15  C6          0      25.947   8.027   8.071  1.00  0.00     0.004 C 
HETATM   16  C7          0      26.441   9.053   8.871  1.00  0.00     0.026 C 
HETATM   17  C8          0      27.761   9.478   8.779  1.00  0.00     0.112 C 
HETATM   18  C10         0      28.377   9.200   7.566  1.00  0.00     0.112 C 
HETATM   19  C12         0      27.919   8.116   6.826  1.00  0.00     0.028 C 
BRANCH  17  20
HETATM   20  O9          0      28.436   9.942   9.894  1.00  0.00    -0.357 OA
HETATM   21  H9          0      28.013  10.388  10.619  1.00  0.00     0.218 HD
ENDBRANCH  17  20
BRANCH  18  22
HETATM   22  O11         0      29.626   9.765   7.350  1.00  0.00    -0.357 OA
HETATM   23  H11         0      30.325   9.177   7.089  1.00  0.00     0.218 HD
ENDBRANCH  18  22
ENDBRANCH   4  14
BRANCH   8  24
HETATM   24  O17         0      29.087   2.904   2.710  1.00  0.00    -0.359 OA
HETATM   25  H17         0      29.942   3.294   2.570  1.00  0.00     0.218 HD
ENDBRANCH   8  24
TORSDOF 5
ENDMDL
MODEL 5
REMARK VINA RESULT:      -0.0      3.289      6.636
REMARK  5 active torsions:
REMARK  status: ('A' for Active; 'I' for Inactive)
REMARK    1  A    between atoms: C4_4  and  C5_5 
REMARK    2  A    between atoms: C8_8  and  O9_9 
REMARK    3  A    between atoms: C10_11  and  O11_12 
REMARK    4  A    between atoms: C16_18  and  O17_19 
REMARK    5  A    between atoms: C19_22  and  O20_23 
ROOT
HETATM    1  O1          0      26.398   6.388   8.763  1.00  0.00    -0.286 OA
HETATM    2  C2          0      25.901   7.341   8.104  1.00  0.00     0.201 C 
HETATM    3  C3          0      24.578   7.361   7.696  1.00  0.00     0.067 C 
HETATM    4  C4          0      24.081   8.373   6.883  1.00  0.00     0.103 C 
HETATM    5  O13         0      24.895   9.347   6.513  1.00  0.00    -0.307 OA
HETATM    6  C14         0      26.168   9.356   6.841  1.00  0.00     0.107 C 
HETATM    7  C15         0      27.095  10.123   6.150  1.00  0.00     0.049 C 
HETATM    8  C16         0      28.461   9.939   6.329  1.00  0.00     0.093 C 
HETATM    9  C18         0      28.823   9.382   7.550  1.00  0.00     0.048 C 
HETATM   10  C19         0      27.906   8.648   8.290  1.00  0.00     0.096 C 
HETATM   11  C21         0      26.630   8.486   7.822  1.00  0.00     0.084 C 
ENDROOT
BRANCH  10  12
HETATM   12  O20         0      28.367   7.753   9.250  1.00  0.00    -0.359 OA
HETATM   13  H20         0      28.142   6.836   9.149  1.00  0.00     0.218 HD
ENDBRANCH  10  12
BRANCH   4  14
HETATM   14  C5          0      22.938   8.046   6.028  1.00  0.00     0.025 C 
HETATM   15  C6          0      22.251   6.845   6.118  1.00  0.00     0.004 C 
HETATM   16  C7          0      20.870   6.879   5.959  1.00  0.00     0.026 C 
HETATM   17  C8          0      20.206   8.044   5.589  1.00  0.00     0.112 C 
HETATM   18  C10         0      20.995   8.973   4.924  1.00  0.00     0.112 C 
HETATM   19  C12         0      22.364   8.973   5.167  1.00  0.00     0.028 C 
BRANCH  17  20
HETATM   20  O9          0      18.929   8.309   6.049  1.00  0.00    -0.357 OA
HETATM   21  H9          0      18.241   8.683   5.511  1.00  0.00     0.218 HD
ENDBRANCH  17  20
BRANCH  18  22
HETATM   22  O11         0      20.345  10.066   4.368  1.00  0.00    -0.357 OA
HETATM   23  H11         0      20.175  10.804   4.943  1.00  0.00     0.218 HD
ENDBRANCH  18  22
ENDBRANCH   4  14
BRANCH   8  24
HETATM   24  O17         0      29.352   9.990   5.251  1.00  0.00    -0.359 OA
HETATM   25  H17         0      29.903   9.251   5.023  1.00  0.00     0.218 HD
ENDBRANCH   8  24
TORSDOF 5
ENDMDL
MODEL 6
REMARK VINA RESULT:      -0.0      2.022      2.428
REMARK  5 active torsions:
REMARK  status: ('A' for Active; 'I' for Inactive)
REMARK    1  A    between atoms: C4_4  and  C5_5 
REMARK    2  A    between atoms: C8_8  and  O9_9 
REMARK    3  A    between atoms: C10_11  and  O11_12 
REMARK    4  A    between atoms: C16_18  and  O17_19 
REMARK    5  A    between atoms: C19_22  and  O20_23 
ROOT
HETATM    1  O1          0      28.860   4.206   3.345  1.00  0.00    -0.286 OA
HETATM    2  C2          0      27.834   4.615   3.955  1.00  0.00     0.201 C 
HETATM    3  C3          0      27.789   5.831   4.616  1.00  0.00     0.067 C 
HETATM    4  C4          0      26.682   6.212   5.366  1.00  0.00     0.103 C 
HETATM    5  O13         0      25.645   5.395   5.426  1.00  0.00    -0.307 OA
HETATM    6  C14         0      25.650   4.214   4.849  1.00  0.00     0.107 C 
HETATM    7  C15         0      24.768   3.212   5.225  1.00  0.00     0.049 C 
HETATM    8  C16         0      24.941   1.900   4.800  1.00  0.00     0.093 C 
HETATM    9  C18         0      25.660   1.756   3.619  1.00  0.00     0.048 C 
HETATM   10  C19         0      26.517   2.760   3.188  1.00  0.00     0.096 C 
HETATM   11  C21         0      26.642   3.908   3.923  1.00  0.00     0.084 C 
ENDROOT
BRANCH  10  12
HETATM   12  O20         0      27.530   2.449   2.286  1.00  0.00    -0.359 OA
HETATM   13  H20         0      27.735   1.533   2.145  1.00  0.00     0.218 HD
ENDBRANCH  10  12
BRANCH   4  14
HETATM   14  C5          0      26.910   7.144   6.471  1.00  0.00     0.025 C 
HETATM   15  C6          0      26.345   6.975   7.727  1.00  0.00     0.004 C 
HETATM   16  C7          0      27.123   7.299   8.833  1.00  0.00     0.026 C 
HETATM   17  C8          0      28.371   7.898   8.697  1.00  0.00     0.112 C 
HETATM   18  C10         0      28.558   8.583   7.505  1.00  0.00     0.112 C 
HETATM   19  C12         0      27.828   8.183   6.391  1.00  0.00     0.028 C 
BRANCH  17  20
HETATM   20  O9          0      29.387   7.631   9.598  1.00  0.00    -0.357 OA
HETATM   21  H9          0      29.349   7.860  10.520  1.00  0.00     0.218 HD
ENDBRANCH  17  20
BRANCH  18  22
HETATM   22  O11         0      29.707   9.354   7.396  1.00  0.00    -0.357 OA
HETATM   23  H11         0      29.694  10.206   7.816  1.00  0.00     0.218 HD
ENDBRANCH  18  22
ENDBRANCH   4  14
BRANCH   8  24
HETATM   24  O17         0      24.711   0.819   5.657  1.00  0.00    -0.359 OA
HETATM   25  H17         0      23.948   0.261   5.563  1.00  0.00     0.218 HD
ENDBRANCH   8  24
TORSDOF 5
ENDMDL
MODEL 7
REMARK VINA RESULT:      -0.0      4.381      6.967
REMARK  5 active torsions:
REMARK  status: ('A' for Active; 'I' for Inactive)
REMARK    1  A    between atoms: C4_4  and  C5_5 
REMARK    2  A    between atoms: C8_8  and  O9_9 
REMARK    3  A    between atoms: C10_11  and  O11_12 
REMARK    4  A    between atoms: C16_18  and  O17_19 
REMARK    5  A    between atoms: C19_22  and  O20_23 
ROOT
HETATM    1  O1          0      22.322   6.955   4.740  1.00  0.00    -0.286 OA
HETATM    2  C2          0      23.106   7.863   4.349  1.00  0.00     0.201 C 
HETATM    3  C3          0      23.451   8.034   3.019  1.00  0.00     0.067 C 
HETATM    4  C4          0      24.395   8.977   2.628  1.00  0.00     0.103 C 
HETATM    5  O13         0      24.955   9.737   3.552  1.00  0.00    -0.307 OA
HETATM    6  C14         0      24.691   9.590   4.832  1.00  0.00     0.107 C 
HETATM    7  C15         0      25.539  10.080   5.815  1.00  0.00     0.049 C 
HETATM    8  C16         0      25.393   9.706   7.146  1.00  0.00     0.093 C 
HETATM    9  C18         0      24.116   9.293   7.503  1.00  0.00     0.048 C 
HETATM   10  C19         0      23.225   8.840   6.538  1.00  0.00     0.096 C 
HETATM   11  C21         0      23.602   8.817   5.223  1.00  0.00     0.084 C 
ENDROOT
BRANCH  10  12
HETATM   12  O20         0      22.153   8.041   6.924  1.00  0.00    -0.359 OA
HETATM   13  H20         0      21.692   8.269   7.722  1.00  0.00     0.218 HD
ENDBRANCH  10  12
BRANCH   4  14
HETATM   14  C5          0      25.133   8.712   1.391  1.00  0.00     0.025 C 
HETATM   15  C6          0      26.473   9.036   1.231  1.00  0.00     0.004 C 
HETATM   16  C7          0      27.271   8.146   0.520  1.00  0.00     0.026 C 
HETATM   17  C8          0      26.731   7.038  -0.125  1.00  0.00     0.112 C 
HETATM   18  C10         0      25.383   7.149  -0.438  1.00  0.00     0.112 C 
HETATM   19  C12         0      24.590   7.982   0.342  1.00  0.00     0.028 C 
BRANCH  17  20
HETATM   20  O9          0      27.452   5.862  -0.235  1.00  0.00    -0.357 OA
HETATM   21  H9          0      27.729   5.488  -1.064  1.00  0.00     0.218 HD
ENDBRANCH  17  20
BRANCH  18  22
HETATM   22  O11         0      24.842   6.158  -1.246  1.00  0.00    -0.357 OA
HETATM   23  H11         0      25.228   5.292  -1.181  1.00  0.00     0.218 HD
ENDBRANCH  18  22
ENDBRANCH   4  14
BRANCH   8  24
HETATM   24  O17         0      26.504   9.446   7.956  1.00  0.00    -0.359 OA
HETATM   25  H17         0      27.380   9.380   7.595  1.00  0.00     0.218 HD
ENDBRANCH   8  24
TORSDOF 5
ENDMDL
MODEL 8
REMARK VINA RESULT:      -0.0      9.988     12.319
REMARK  5 active torsions:
REMARK  status: ('A' for Active; 'I' for Inactive)
REMARK    1  A    between atoms: C4_4  and  C5_5 
REMARK    2  A    between atoms: C8_8  and  O9_9 
REMARK    3  A    between atoms: C10_11  and  O11_12 
REMARK    4  A    between atoms: C16_18  and  O17_19 
REMARK    5  A    between atoms: C19_22  and  O20_23 
ROOT
HETATM    1  O1          0      16.920   7.816  -0.030  1.00  0.00    -0.286 OA
HETATM    2  C2          0      17.415   6.974   0.768  1.00  0.00     0.201 C 
HETATM    3  C3          0      17.951   5.767   0.350  1.00  0.00     0.067 C 
HETATM    4  C4          0      18.396   4.814   1.259  1.00  0.00     0.103 C 
HETATM    5  O13         0      18.321   5.084   2.550  1.00  0.00    -0.307 OA
HETATM    6  C14         0      17.787   6.198   3.001  1.00  0.00     0.107 C 
HETATM    7  C15         0      17.343   6.318   4.310  1.00  0.00     0.049 C 
HETATM    8  C16         0      16.557   7.391   4.711  1.00  0.00     0.093 C 
HETATM    9  C18         0      16.692   8.538   3.937  1.00  0.00     0.048 C 
HETATM   10  C19         0      17.177   8.460   2.639  1.00  0.00     0.096 C 
HETATM   11  C21         0      17.541   7.247   2.122  1.00  0.00     0.084 C 
ENDROOT
BRANCH  10  12
HETATM   12  O20         0      16.906   9.494   1.748  1.00  0.00    -0.359 OA
HETATM   13  H20         0      17.529  10.207   1.690  1.00  0.00     0.218 HD
ENDBRANCH  10  12
BRANCH   4  14
HETATM   14  C5          0      18.369   3.415   0.828  1.00  0.00     0.025 C 
HETATM   15  C6          0      18.252   2.357   1.718  1.00  0.00     0.004 C 
HETATM   16  C7          0      17.470   1.273   1.330  1.00  0.00     0.026 C 
HETATM   17  C8          0      16.933   1.182   0.051  1.00  0.00     0.112 C 
HETATM   18  C10         0      17.604   1.921  -0.914  1.00  0.00     0.112 C 
HETATM   19  C12         0      18.308   3.049  -0.510  1.00  0.00     0.028 C 
BRANCH  17  20
HETATM   20  O9          0      15.710   0.570  -0.163  1.00  0.00    -0.357 OA
HETATM   21  H9          0      15.036   0.923  -0.732  1.00  0.00     0.218 HD
ENDBRANCH  17  20
BRANCH  18  22
HETATM   22  O11         0      17.228   1.719  -2.234  1.00  0.00    -0.357 OA
HETATM   23  H11         0      16.995   2.490  -2.738  1.00  0.00     0.218 HD
ENDBRANCH  18  22
ENDBRANCH   4  14
BRANCH   8  24
HETATM   24  O17         0      15.484   7.221   5.593  1.00  0.00    -0.359 OA
HETATM   25  H17         0      15.354   6.410   6.070  1.00  0.00     0.218 HD
ENDBRANCH   8  24
TORSDOF 5
ENDMDL
MODEL 9
REMARK VINA RESULT:      -0.0      7.685      9.325
REMARK  5 active torsions:
REMARK  status: ('A' for Active; 'I' for Inactive)
REMARK    1  A    between atoms: C4_4  and  C5_5 
REMARK    2  A    between atoms: C8_8  and  O9_9 
REMARK    3  A    between atoms: C10_11  and  O11_12 
REMARK    4  A    between atoms: C16_18  and  O17_19 
REMARK    5  A    between atoms: C19_22  and  O20_23 
ROOT
HETATM    1  O1          0      19.765   1.341  -0.673  1.00  0.00    -0.286 OA
HETATM    2  C2          0      20.672   1.437   0.198  1.00  0.00     0.201 C 
HETATM    3  C3          0      21.356   2.616   0.443  1.00  0.00     0.067 C 
HETATM    4  C4          0      22.420   2.669   1.336  1.00  0.00     0.103 C 
HETATM    5  O13         0      22.767   1.567   1.976  1.00  0.00    -0.307 OA
HETATM    6  C14         0      22.176   0.413   1.753  1.00  0.00     0.107 C 
HETATM    7  C15         0      22.770  -0.792   2.099  1.00  0.00     0.049 C 
HETATM    8  C16         0      22.269  -2.003   1.638  1.00  0.00     0.093 C 
HETATM    9  C18         0      20.921  -1.989   1.299  1.00  0.00     0.048 C 
HETATM   10  C19         0      20.283  -0.794   0.993  1.00  0.00     0.096 C 
HETATM   11  C21         0      20.982   0.381   1.041  1.00  0.00     0.084 C 
ENDROOT
BRANCH  10  12
HETATM   12  O20         0      19.105  -0.823   0.253  1.00  0.00    -0.359 OA
HETATM   13  H20         0      18.828  -0.022  -0.175  1.00  0.00     0.218 HD
ENDBRANCH  10  12
BRANCH   4  14
HETATM   14  C5          0      23.434   3.701   1.109  1.00  0.00     0.025 C 
HETATM   15  C6          0      24.751   3.565   1.524  1.00  0.00     0.004 C 
HETATM   16  C7          0      25.745   4.055   0.682  1.00  0.00     0.026 C 
HETATM   17  C8          0      25.438   4.775  -0.467  1.00  0.00     0.112 C 
HETATM   18  C10         0      24.191   5.386  -0.454  1.00  0.00     0.112 C 
HETATM   19  C12         0      23.190   4.825   0.331  1.00  0.00     0.028 C 
BRANCH  17  20
HETATM   20  O9          0      26.240   4.690  -1.592  1.00  0.00    -0.357 OA
HETATM   21  H9          0      25.923   4.828  -2.477  1.00  0.00     0.218 HD
ENDBRANCH  17  20
BRANCH  18  22
HETATM   22  O11         0      23.912   6.267  -1.488  1.00  0.00    -0.357 OA
HETATM   23  H11         0      23.201   6.883  -1.349  1.00  0.00     0.218 HD
ENDBRANCH  18  22
ENDBRANCH   4  14
BRANCH   8  24
HETATM   24  O17         0      23.119  -3.037   1.230  1.00  0.00    -0.359 OA
HETATM   25  H17         0      23.825  -3.350   1.784  1.00  0.00     0.218 HD
ENDBRANCH   8  24
TORSDOF 5
ENDMDL
