MODEL 1
REMARK VINA RESULT:      -5.2      0.000      0.000
REMARK  5 active torsions:
REMARK  status: ('A' for Active; 'I' for Inactive)
REMARK    1  A    between atoms: C4_4  and  C5_5 
REMARK    2  A    between atoms: C8_8  and  O9_9 
REMARK    3  A    between atoms: C10_11  and  O11_12 
REMARK    4  A    between atoms: C16_18  and  O17_19 
REMARK    5  A    between atoms: C19_22  and  O20_23 
ROOT
HETATM    1  O1          0      67.305   4.114  -0.090  1.00  0.00    -0.286 OA
HETATM    2  C2          0      66.807   4.125   1.069  1.00  0.00     0.201 C 
HETATM    3  C3          0      65.496   3.759   1.327  1.00  0.00     0.067 C 
HETATM    4  C4          0      64.943   3.878   2.596  1.00  0.00     0.103 C 
HETATM    5  O13         0      65.700   4.333   3.579  1.00  0.00    -0.307 OA
HETATM    6  C14         0      66.938   4.730   3.381  1.00  0.00     0.107 C 
HETATM    7  C15         0      67.592   5.561   4.279  1.00  0.00     0.049 C 
HETATM    8  C16         0      68.792   6.179   3.949  1.00  0.00     0.093 C 
HETATM    9  C18         0      69.532   5.535   2.965  1.00  0.00     0.048 C 
HETATM   10  C19         0      68.918   4.661   2.079  1.00  0.00     0.096 C 
HETATM   11  C21         0      67.576   4.418   2.185  1.00  0.00     0.084 C 
ENDROOT
BRANCH  10  12
HETATM   12  O20         0      69.539   4.372   0.868  1.00  0.00    -0.359 OA
HETATM   13  H20         0      69.033   4.477   0.071  1.00  0.00     0.218 HD
ENDBRANCH  10  12
BRANCH   4  14
HETATM   14  C5          0      63.493   4.062   2.680  1.00  0.00     0.025 C 
HETATM   15  C6          0      62.873   5.277   2.423  1.00  0.00     0.004 C 
HETATM   16  C7          0      61.656   5.250   1.750  1.00  0.00     0.026 C 
HETATM   17  C8          0      61.009   4.054   1.461  1.00  0.00     0.112 C 
HETATM   18  C10         0      61.360   2.991   2.282  1.00  0.00     0.112 C 
HETATM   19  C12         0      62.617   3.002   2.875  1.00  0.00     0.028 C 
BRANCH  17  20
HETATM   20  O9          0      60.250   3.918   0.312  1.00  0.00    -0.357 OA
HETATM   21  H9          0      59.627   3.215   0.170  1.00  0.00     0.218 HD
ENDBRANCH  17  20
BRANCH  18  22
HETATM   22  O11         0      60.612   1.829   2.161  1.00  0.00    -0.357 OA
HETATM   23  H11         0      61.053   1.010   2.357  1.00  0.00     0.218 HD
ENDBRANCH  18  22
ENDBRANCH   4  14
BRANCH   8  24
HETATM   24  O17         0      69.059   7.500   4.325  1.00  0.00    -0.359 OA
HETATM   25  H17         0      68.544   8.227   3.996  1.00  0.00     0.218 HD
ENDBRANCH   8  24
TORSDOF 5
ENDMDL
MODEL 2
REMARK VINA RESULT:      -5.0      1.329      6.943
REMARK  5 active torsions:
REMARK  status: ('A' for Active; 'I' for Inactive)
REMARK    1  A    between atoms: C4_4  and  C5_5 
REMARK    2  A    between atoms: C8_8  and  O9_9 
REMARK    3  A    between atoms: C10_11  and  O11_12 
REMARK    4  A    between atoms: C16_18  and  O17_19 
REMARK    5  A    between atoms: C19_22  and  O20_23 
ROOT
HETATM    1  O1          0      62.239   6.007   0.495  1.00  0.00    -0.286 OA
HETATM    2  C2          0      62.680   5.237   1.392  1.00  0.00     0.201 C 
HETATM    3  C3          0      63.973   5.316   1.879  1.00  0.00     0.067 C 
HETATM    4  C4          0      64.465   4.390   2.793  1.00  0.00     0.103 C 
HETATM    5  O13         0      63.664   3.428   3.215  1.00  0.00    -0.307 OA
HETATM    6  C14         0      62.440   3.285   2.756  1.00  0.00     0.107 C 
HETATM    7  C15         0      61.749   2.088   2.875  1.00  0.00     0.049 C 
HETATM    8  C16         0      60.572   1.861   2.173  1.00  0.00     0.093 C 
HETATM    9  C18         0      59.875   3.007   1.809  1.00  0.00     0.048 C 
HETATM   10  C19         0      60.526   4.231   1.725  1.00  0.00     0.096 C 
HETATM   11  C21         0      61.859   4.313   2.020  1.00  0.00     0.084 C 
ENDROOT
BRANCH  10  12
HETATM   12  O20         0      59.962   5.250   0.963  1.00  0.00    -0.359 OA
HETATM   13  H20         0      59.102   5.102   0.589  1.00  0.00     0.218 HD
ENDBRANCH  10  12
BRANCH   4  14
HETATM   14  C5          0      65.910   4.158   2.798  1.00  0.00     0.025 C 
HETATM   15  C6          0      66.542   3.330   1.881  1.00  0.00     0.004 C 
HETATM   16  C7          0      67.787   3.729   1.404  1.00  0.00     0.026 C 
HETATM   17  C8          0      68.443   4.842   1.919  1.00  0.00     0.112 C 
HETATM   18  C10         0      68.056   5.201   3.203  1.00  0.00     0.112 C 
HETATM   19  C12         0      66.775   4.864   3.625  1.00  0.00     0.028 C 
BRANCH  17  20
HETATM   20  O9          0      69.250   5.625   1.113  1.00  0.00    -0.357 OA
HETATM   21  H9          0      69.033   5.860   0.218  1.00  0.00     0.218 HD
ENDBRANCH  17  20
BRANCH  18  22
HETATM   22  O11         0      68.807   6.181   3.835  1.00  0.00    -0.357 OA
HETATM   23  H11         0      69.328   6.749   3.279  1.00  0.00     0.218 HD
ENDBRANCH  18  22
ENDBRANCH   4  14
BRANCH   8  24
HETATM   24  O17         0      60.296   0.617   1.594  1.00  0.00    -0.359 OA
HETATM   25  H17         0      60.167  -0.161   2.122  1.00  0.00     0.218 HD
ENDBRANCH   8  24
TORSDOF 5
ENDMDL
MODEL 3
REMARK VINA RESULT:      -4.6      2.236      6.806
REMARK  5 active torsions:
REMARK  status: ('A' for Active; 'I' for Inactive)
REMARK    1  A    between atoms: C4_4  and  C5_5 
REMARK    2  A    between atoms: C8_8  and  O9_9 
REMARK    3  A    between atoms: C10_11  and  O11_12 
REMARK    4  A    between atoms: C16_18  and  O17_19 
REMARK    5  A    between atoms: C19_22  and  O20_23 
ROOT
HETATM    1  O1          0      67.585   2.928   5.454  1.00  0.00    -0.286 OA
HETATM    2  C2          0      67.523   3.397   4.284  1.00  0.00     0.201 C 
HETATM    3  C3          0      68.630   3.891   3.614  1.00  0.00     0.067 C 
HETATM    4  C4          0      68.517   4.495   2.367  1.00  0.00     0.103 C 
HETATM    5  O13         0      67.323   4.577   1.807  1.00  0.00    -0.307 OA
HETATM    6  C14         0      66.235   4.158   2.416  1.00  0.00     0.107 C 
HETATM    7  C15         0      64.973   4.588   2.035  1.00  0.00     0.049 C 
HETATM    8  C16         0      63.858   4.349   2.830  1.00  0.00     0.093 C 
HETATM    9  C18         0      63.969   3.258   3.684  1.00  0.00     0.048 C 
HETATM   10  C19         0      65.217   2.772   4.048  1.00  0.00     0.096 C 
HETATM   11  C21         0      66.348   3.361   3.550  1.00  0.00     0.084 C 
ENDROOT
BRANCH  10  12
HETATM   12  O20         0      65.337   2.001   5.200  1.00  0.00    -0.359 OA
HETATM   13  H20         0      66.210   1.824   5.529  1.00  0.00     0.218 HD
ENDBRANCH  10  12
BRANCH   4  14
HETATM   14  C5          0      69.533   5.487   2.009  1.00  0.00     0.025 C 
HETATM   15  C6          0      70.180   5.490   0.782  1.00  0.00     0.004 C 
HETATM   16  C7          0      70.447   6.724   0.198  1.00  0.00     0.026 C 
HETATM   17  C8          0      70.201   7.918   0.868  1.00  0.00     0.112 C 
HETATM   18  C10         0      70.168   7.809   2.252  1.00  0.00     0.112 C 
HETATM   19  C12         0      69.815   6.586   2.810  1.00  0.00     0.028 C 
BRANCH  17  20
HETATM   20  O9          0      69.814   9.052   0.178  1.00  0.00    -0.357 OA
HETATM   21  H9          0      69.439   9.821   0.592  1.00  0.00     0.218 HD
ENDBRANCH  17  20
BRANCH  18  22
HETATM   22  O11         0      70.115   8.992   2.975  1.00  0.00    -0.357 OA
HETATM   23  H11         0      70.233   9.799   2.487  1.00  0.00     0.218 HD
ENDBRANCH  18  22
ENDBRANCH   4  14
BRANCH   8  24
HETATM   24  O17         0      62.862   5.317   2.999  1.00  0.00    -0.359 OA
HETATM   25  H17         0      62.820   6.092   2.451  1.00  0.00     0.218 HD
ENDBRANCH   8  24
TORSDOF 5
ENDMDL
MODEL 4
REMARK VINA RESULT:      -4.6      1.648      6.730
REMARK  5 active torsions:
REMARK  status: ('A' for Active; 'I' for Inactive)
REMARK    1  A    between atoms: C4_4  and  C5_5 
REMARK    2  A    between atoms: C8_8  and  O9_9 
REMARK    3  A    between atoms: C10_11  and  O11_12 
REMARK    4  A    between atoms: C16_18  and  O17_19 
REMARK    5  A    between atoms: C19_22  and  O20_23 
ROOT
HETATM    1  O1          0      64.413   2.409   5.261  1.00  0.00    -0.286 OA
HETATM    2  C2          0      65.013   2.972   4.305  1.00  0.00     0.201 C 
HETATM    3  C3          0      66.366   3.261   4.335  1.00  0.00     0.067 C 
HETATM    4  C4          0      66.982   3.974   3.312  1.00  0.00     0.103 C 
HETATM    5  O13         0      66.252   4.362   2.281  1.00  0.00    -0.307 OA
HETATM    6  C14         0      64.956   4.146   2.221  1.00  0.00     0.107 C 
HETATM    7  C15         0      64.133   4.875   1.375  1.00  0.00     0.049 C 
HETATM    8  C16         0      62.749   4.825   1.496  1.00  0.00     0.093 C 
HETATM    9  C18         0      62.253   3.671   2.091  1.00  0.00     0.048 C 
HETATM   10  C19         0      63.064   2.893   2.906  1.00  0.00     0.096 C 
HETATM   11  C21         0      64.367   3.256   3.112  1.00  0.00     0.084 C 
ENDROOT
BRANCH  10  12
HETATM   12  O20         0      62.476   2.025   3.820  1.00  0.00    -0.359 OA
HETATM   13  H20         0      62.807   1.136   3.865  1.00  0.00     0.218 HD
ENDBRANCH  10  12
BRANCH   4  14
HETATM   14  C5          0      68.180   4.742   3.657  1.00  0.00     0.025 C 
HETATM   15  C6          0      69.301   4.791   2.843  1.00  0.00     0.004 C 
HETATM   16  C7          0      69.974   6.006   2.745  1.00  0.00     0.026 C 
HETATM   17  C8          0      69.625   7.098   3.532  1.00  0.00     0.112 C 
HETATM   18  C10         0      68.961   6.776   4.708  1.00  0.00     0.112 C 
HETATM   19  C12         0      68.226   5.597   4.750  1.00  0.00     0.028 C 
BRANCH  17  20
HETATM   20  O9          0      69.754   8.388   3.051  1.00  0.00    -0.357 OA
HETATM   21  H9          0      69.016   8.955   2.855  1.00  0.00     0.218 HD
ENDBRANCH  17  20
BRANCH  18  22
HETATM   22  O11         0      68.758   7.805   5.617  1.00  0.00    -0.357 OA
HETATM   23  H11         0      69.423   8.483   5.654  1.00  0.00     0.218 HD
ENDBRANCH  18  22
ENDBRANCH   4  14
BRANCH   8  24
HETATM   24  O17         0      61.962   5.973   1.347  1.00  0.00    -0.359 OA
HETATM   25  H17         0      61.013   5.932   1.355  1.00  0.00     0.218 HD
ENDBRANCH   8  24
TORSDOF 5
ENDMDL
MODEL 5
REMARK VINA RESULT:      -4.4      1.988      6.586
REMARK  5 active torsions:
REMARK  status: ('A' for Active; 'I' for Inactive)
REMARK    1  A    between atoms: C4_4  and  C5_5 
REMARK    2  A    between atoms: C8_8  and  O9_9 
REMARK    3  A    between atoms: C10_11  and  O11_12 
REMARK    4  A    between atoms: C16_18  and  O17_19 
REMARK    5  A    between atoms: C19_22  and  O20_23 
ROOT
HETATM    1  O1          0      64.727   2.992  -0.006  1.00  0.00    -0.286 OA
HETATM    2  C2          0      64.908   3.331   1.196  1.00  0.00     0.201 C 
HETATM    3  C3          0      65.898   4.217   1.585  1.00  0.00     0.067 C 
HETATM    4  C4          0      66.142   4.494   2.925  1.00  0.00     0.103 C 
HETATM    5  O13         0      65.392   3.909   3.842  1.00  0.00    -0.307 OA
HETATM    6  C14         0      64.463   3.031   3.529  1.00  0.00     0.107 C 
HETATM    7  C15         0      63.961   2.135   4.461  1.00  0.00     0.049 C 
HETATM    8  C16         0      63.178   1.054   4.073  1.00  0.00     0.093 C 
HETATM    9  C18         0      62.509   1.217   2.866  1.00  0.00     0.048 C 
HETATM   10  C19         0      62.957   2.139   1.930  1.00  0.00     0.096 C 
HETATM   11  C21         0      64.056   2.906   2.205  1.00  0.00     0.084 C 
ENDROOT
BRANCH  10  12
HETATM   12  O20         0      62.577   1.997   0.599  1.00  0.00    -0.359 OA
HETATM   13  H20         0      62.445   2.785   0.087  1.00  0.00     0.218 HD
ENDBRANCH  10  12
BRANCH   4  14
HETATM   14  C5          0      67.498   4.913   3.286  1.00  0.00     0.025 C 
HETATM   15  C6          0      68.580   4.778   2.429  1.00  0.00     0.004 C 
HETATM   16  C7          0      69.525   5.799   2.418  1.00  0.00     0.026 C 
HETATM   17  C8          0      69.469   6.854   3.322  1.00  0.00     0.112 C 
HETATM   18  C10         0      68.773   6.579   4.491  1.00  0.00     0.112 C 
HETATM   19  C12         0      67.775   5.612   4.454  1.00  0.00     0.028 C 
BRANCH  17  20
HETATM   20  O9          0      69.897   8.120   2.962  1.00  0.00    -0.357 OA
HETATM   21  H9          0      70.795   8.328   2.733  1.00  0.00     0.218 HD
ENDBRANCH  17  20
BRANCH  18  22
HETATM   22  O11         0      68.846   7.525   5.504  1.00  0.00    -0.357 OA
HETATM   23  H11         0      68.471   8.379   5.322  1.00  0.00     0.218 HD
ENDBRANCH  18  22
ENDBRANCH   4  14
BRANCH   8  24
HETATM   24  O17         0      63.324  -0.203   4.670  1.00  0.00    -0.359 OA
HETATM   25  H17         0      63.597  -0.298   5.575  1.00  0.00     0.218 HD
ENDBRANCH   8  24
TORSDOF 5
ENDMDL
MODEL 6
REMARK VINA RESULT:      -4.2      1.459      2.892
REMARK  5 active torsions:
REMARK  status: ('A' for Active; 'I' for Inactive)
REMARK    1  A    between atoms: C4_4  and  C5_5 
REMARK    2  A    between atoms: C8_8  and  O9_9 
REMARK    3  A    between atoms: C10_11  and  O11_12 
REMARK    4  A    between atoms: C16_18  and  O17_19 
REMARK    5  A    between atoms: C19_22  and  O20_23 
ROOT
HETATM    1  O1          0      67.774   4.735   4.253  1.00  0.00    -0.286 OA
HETATM    2  C2          0      67.052   4.577   3.231  1.00  0.00     0.201 C 
HETATM    3  C3          0      65.692   4.836   3.226  1.00  0.00     0.067 C 
HETATM    4  C4          0      64.900   4.556   2.118  1.00  0.00     0.103 C 
HETATM    5  O13         0      65.474   4.049   1.040  1.00  0.00    -0.307 OA
HETATM    6  C14         0      66.754   3.750   1.005  1.00  0.00     0.107 C 
HETATM    7  C15         0      67.273   2.873   0.063  1.00  0.00     0.049 C 
HETATM    8  C16         0      68.561   2.365   0.184  1.00  0.00     0.093 C 
HETATM    9  C18         0      69.434   3.149   0.929  1.00  0.00     0.048 C 
HETATM   10  C19         0      68.947   4.070   1.847  1.00  0.00     0.096 C 
HETATM   11  C21         0      67.596   4.219   2.007  1.00  0.00     0.084 C 
ENDROOT
BRANCH  10  12
HETATM   12  O20         0      69.778   4.516   2.869  1.00  0.00    -0.359 OA
HETATM   13  H20         0      69.393   5.047   3.556  1.00  0.00     0.218 HD
ENDBRANCH  10  12
BRANCH   4  14
HETATM   14  C5          0      63.484   4.277   2.360  1.00  0.00     0.025 C 
HETATM   15  C6          0      62.505   5.258   2.309  1.00  0.00     0.004 C 
HETATM   16  C7          0      61.275   4.915   1.756  1.00  0.00     0.026 C 
HETATM   17  C8          0      60.981   3.607   1.388  1.00  0.00     0.112 C 
HETATM   18  C10         0      61.733   2.638   2.039  1.00  0.00     0.112 C 
HETATM   19  C12         0      62.994   2.985   2.508  1.00  0.00     0.028 C 
BRANCH  17  20
HETATM   20  O9          0      60.158   3.342   0.308  1.00  0.00    -0.357 OA
HETATM   21  H9          0      59.499   3.947  -0.014  1.00  0.00     0.218 HD
ENDBRANCH  17  20
BRANCH  18  22
HETATM   22  O11         0      61.353   1.317   1.852  1.00  0.00    -0.357 OA
HETATM   23  H11         0      61.640   0.896   1.050  1.00  0.00     0.218 HD
ENDBRANCH  18  22
ENDBRANCH   4  14
BRANCH   8  24
HETATM   24  O17         0      68.851   1.031  -0.125  1.00  0.00    -0.359 OA
HETATM   25  H17         0      68.199   0.346  -0.036  1.00  0.00     0.218 HD
ENDBRANCH   8  24
TORSDOF 5
ENDMDL
MODEL 7
REMARK VINA RESULT:      -4.2      7.892      9.585
REMARK  5 active torsions:
REMARK  status: ('A' for Active; 'I' for Inactive)
REMARK    1  A    between atoms: C4_4  and  C5_5 
REMARK    2  A    between atoms: C8_8  and  O9_9 
REMARK    3  A    between atoms: C10_11  and  O11_12 
REMARK    4  A    between atoms: C16_18  and  O17_19 
REMARK    5  A    between atoms: C19_22  and  O20_23 
ROOT
HETATM    1  O1          0      68.918   3.626   9.682  1.00  0.00    -0.286 OA
HETATM    2  C2          0      68.263   4.603  10.138  1.00  0.00     0.201 C 
HETATM    3  C3          0      67.309   4.469  11.131  1.00  0.00     0.067 C 
HETATM    4  C4          0      66.529   5.544  11.543  1.00  0.00     0.103 C 
HETATM    5  O13         0      66.726   6.723  10.980  1.00  0.00    -0.307 OA
HETATM    6  C14         0      67.593   6.897  10.007  1.00  0.00     0.107 C 
HETATM    7  C15         0      67.528   7.992   9.157  1.00  0.00     0.049 C 
HETATM    8  C16         0      68.276   8.042   7.987  1.00  0.00     0.093 C 
HETATM    9  C18         0      69.423   7.258   7.989  1.00  0.00     0.048 C 
HETATM   10  C19         0      69.541   6.183   8.859  1.00  0.00     0.096 C 
HETATM   11  C21         0      68.527   5.903   9.734  1.00  0.00     0.084 C 
ENDROOT
BRANCH  10  12
HETATM   12  O20         0      70.452   5.172   8.572  1.00  0.00    -0.359 OA
HETATM   13  H20         0      71.365   5.320   8.789  1.00  0.00     0.218 HD
ENDBRANCH  10  12
BRANCH   4  14
HETATM   14  C5          0      65.210   5.240  12.100  1.00  0.00     0.025 C 
HETATM   15  C6          0      64.757   3.944  12.297  1.00  0.00     0.004 C 
HETATM   16  C7          0      64.007   3.690  13.441  1.00  0.00     0.026 C 
HETATM   17  C8          0      63.605   4.714  14.292  1.00  0.00     0.112 C 
HETATM   18  C10         0      63.550   5.970  13.702  1.00  0.00     0.112 C 
HETATM   19  C12         0      64.373   6.224  12.612  1.00  0.00     0.028 C 
BRANCH  17  20
HETATM   20  O9          0      63.487   4.499  15.653  1.00  0.00    -0.357 OA
HETATM   21  H9          0      62.916   3.843  16.037  1.00  0.00     0.218 HD
ENDBRANCH  17  20
BRANCH  18  22
HETATM   22  O11         0      62.978   6.990  14.449  1.00  0.00    -0.357 OA
HETATM   23  H11         0      62.253   7.460  14.051  1.00  0.00     0.218 HD
ENDBRANCH  18  22
ENDBRANCH   4  14
BRANCH   8  24
HETATM   24  O17         0      67.742   8.562   6.802  1.00  0.00    -0.359 OA
HETATM   25  H17         0      66.806   8.578   6.641  1.00  0.00     0.218 HD
ENDBRANCH   8  24
TORSDOF 5
ENDMDL
MODEL 8
REMARK VINA RESULT:      -4.1     11.462     11.887
REMARK  5 active torsions:
REMARK  status: ('A' for Active; 'I' for Inactive)
REMARK    1  A    between atoms: C4_4  and  C5_5 
REMARK    2  A    between atoms: C8_8  and  O9_9 
REMARK    3  A    between atoms: C10_11  and  O11_12 
REMARK    4  A    between atoms: C16_18  and  O17_19 
REMARK    5  A    between atoms: C19_22  and  O20_23 
ROOT
HETATM    1  O1          0      68.697   4.101  13.312  1.00  0.00    -0.286 OA
HETATM    2  C2          0      67.944   5.066  13.616  1.00  0.00     0.201 C 
HETATM    3  C3          0      66.605   4.904  13.927  1.00  0.00     0.067 C 
HETATM    4  C4          0      65.774   5.994  14.159  1.00  0.00     0.103 C 
HETATM    5  O13         0      66.289   7.209  14.098  1.00  0.00    -0.307 OA
HETATM    6  C14         0      67.544   7.421  13.770  1.00  0.00     0.107 C 
HETATM    7  C15         0      67.984   8.657  13.319  1.00  0.00     0.049 C 
HETATM    8  C16         0      69.237   8.809  12.737  1.00  0.00     0.093 C 
HETATM    9  C18         0      70.176   7.854  13.108  1.00  0.00     0.048 C 
HETATM   10  C19         0      69.771   6.624  13.607  1.00  0.00     0.096 C 
HETATM   11  C21         0      68.438   6.355  13.752  1.00  0.00     0.084 C 
ENDROOT
BRANCH  10  12
HETATM   12  O20         0      70.652   5.548  13.561  1.00  0.00    -0.359 OA
HETATM   13  H20         0      70.641   4.932  14.284  1.00  0.00     0.218 HD
ENDBRANCH  10  12
BRANCH   4  14
HETATM   14  C5          0      64.347   5.818  13.882  1.00  0.00     0.025 C 
HETATM   15  C6          0      63.659   4.652  14.188  1.00  0.00     0.004 C 
HETATM   16  C7          0      62.358   4.777  14.663  1.00  0.00     0.026 C 
HETATM   17  C8          0      61.712   6.008  14.707  1.00  0.00     0.112 C 
HETATM   18  C10         0      62.213   6.957  13.826  1.00  0.00     0.112 C 
HETATM   19  C12         0      63.542   6.858  13.433  1.00  0.00     0.028 C 
BRANCH  17  20
HETATM   20  O9          0      60.797   6.293  15.705  1.00  0.00    -0.357 OA
HETATM   21  H9          0      59.973   6.741  15.554  1.00  0.00     0.218 HD
ENDBRANCH  17  20
BRANCH  18  22
HETATM   22  O11         0      61.490   8.134  13.693  1.00  0.00    -0.357 OA
HETATM   23  H11         0      61.910   8.846  13.224  1.00  0.00     0.218 HD
ENDBRANCH  18  22
ENDBRANCH   4  14
BRANCH   8  24
HETATM   24  O17         0      69.429   9.638  11.626  1.00  0.00    -0.359 OA
HETATM   25  H17         0      69.269  10.573  11.668  1.00  0.00     0.218 HD
ENDBRANCH   8  24
TORSDOF 5
ENDMDL
MODEL 9
REMARK VINA RESULT:      -4.0      7.293      9.794
REMARK  5 active torsions:
REMARK  status: ('A' for Active; 'I' for Inactive)
REMARK    1  A    between atoms: C4_4  and  C5_5 
REMARK    2  A    between atoms: C8_8  and  O9_9 
REMARK    3  A    between atoms: C10_11  and  O11_12 
REMARK    4  A    between atoms: C16_18  and  O17_19 
REMARK    5  A    between atoms: C19_22  and  O20_23 
ROOT
HETATM    1  O1          0      70.974   6.346  10.600  1.00  0.00    -0.286 OA
HETATM    2  C2          0      69.832   6.866  10.475  1.00  0.00     0.201 C 
HETATM    3  C3          0      68.837   6.729  11.427  1.00  0.00     0.067 C 
HETATM    4  C4          0      67.555   7.225  11.219  1.00  0.00     0.103 C 
HETATM    5  O13         0      67.296   7.860  10.089  1.00  0.00    -0.307 OA
HETATM    6  C14         0      68.194   7.986   9.136  1.00  0.00     0.107 C 
HETATM    7  C15         0      67.836   8.278   7.828  1.00  0.00     0.049 C 
HETATM    8  C16         0      68.748   8.159   6.786  1.00  0.00     0.093 C 
HETATM    9  C18         0      70.082   8.265   7.160  1.00  0.00     0.048 C 
HETATM   10  C19         0      70.469   8.024   8.471  1.00  0.00     0.096 C 
HETATM   11  C21         0      69.527   7.697   9.408  1.00  0.00     0.084 C 
ENDROOT
BRANCH  10  12
HETATM   12  O20         0      71.796   7.704   8.741  1.00  0.00    -0.359 OA
HETATM   13  H20         0      72.450   7.929   8.090  1.00  0.00     0.218 HD
ENDBRANCH  10  12
BRANCH   4  14
HETATM   14  C5          0      66.456   6.559  11.920  1.00  0.00     0.025 C 
HETATM   15  C6          0      65.601   5.662  11.298  1.00  0.00     0.004 C 
HETATM   16  C7          0      65.190   4.551  12.028  1.00  0.00     0.026 C 
HETATM   17  C8          0      65.507   4.404  13.374  1.00  0.00     0.112 C 
HETATM   18  C10         0      65.790   5.592  14.035  1.00  0.00     0.112 C 
HETATM   19  C12         0      66.280   6.660  13.294  1.00  0.00     0.028 C 
BRANCH  17  20
HETATM   20  O9          0      65.724   3.151  13.919  1.00  0.00    -0.357 OA
HETATM   21  H9          0      66.114   3.007  14.773  1.00  0.00     0.218 HD
ENDBRANCH  17  20
BRANCH  18  22
HETATM   22  O11         0      65.927   5.526  15.415  1.00  0.00    -0.357 OA
HETATM   23  H11         0      66.794   5.330  15.752  1.00  0.00     0.218 HD
ENDBRANCH  18  22
ENDBRANCH   4  14
BRANCH   8  24
HETATM   24  O17         0      68.371   7.641   5.543  1.00  0.00    -0.359 OA
HETATM   25  H17         0      67.459   7.491   5.320  1.00  0.00     0.218 HD
ENDBRANCH   8  24
TORSDOF 5
ENDMDL
