MODEL 1
REMARK VINA RESULT:      -2.5      0.000      0.000
REMARK  5 active torsions:
REMARK  status: ('A' for Active; 'I' for Inactive)
REMARK    1  A    between atoms: C4_4  and  C5_5 
REMARK    2  A    between atoms: C8_8  and  O9_9 
REMARK    3  A    between atoms: C10_11  and  O11_12 
REMARK    4  A    between atoms: C16_18  and  O17_19 
REMARK    5  A    between atoms: C19_22  and  O20_23 
ROOT
HETATM    1  O1          0      41.015 112.112  -2.879  1.00  0.00    -0.286 OA
HETATM    2  C2          0      42.034 112.489  -2.238  1.00  0.00     0.201 C 
HETATM    3  C3          0      42.081 113.684  -1.539  1.00  0.00     0.067 C 
HETATM    4  C4          0      43.249 114.124  -0.928  1.00  0.00     0.103 C 
HETATM    5  O13         0      44.330 113.367  -1.004  1.00  0.00    -0.307 OA
HETATM    6  C14         0      44.349 112.243  -1.686  1.00  0.00     0.107 C 
HETATM    7  C15         0      45.538 111.661  -2.102  1.00  0.00     0.049 C 
HETATM    8  C16         0      45.549 110.626  -3.030  1.00  0.00     0.093 C 
HETATM    9  C18         0      44.376 109.883  -3.093  1.00  0.00     0.048 C 
HETATM   10  C19         0      43.177 110.417  -2.642  1.00  0.00     0.096 C 
HETATM   11  C21         0      43.152 111.679  -2.114  1.00  0.00     0.084 C 
ENDROOT
BRANCH  10  12
HETATM   12  O20         0      41.978 109.875  -3.093  1.00  0.00    -0.359 OA
HETATM   13  H20         0      41.845 109.807  -4.031  1.00  0.00     0.218 HD
ENDBRANCH  10  12
BRANCH   4  14
HETATM   14  C5          0      43.412 115.568  -0.755  1.00  0.00     0.025 C 
HETATM   15  C6          0      44.383 116.301  -1.422  1.00  0.00     0.004 C 
HETATM   16  C7          0      44.038 117.572  -1.869  1.00  0.00     0.026 C 
HETATM   17  C8          0      42.815 118.151  -1.549  1.00  0.00     0.112 C 
HETATM   18  C10         0      42.214 117.641  -0.406  1.00  0.00     0.112 C 
HETATM   19  C12         0      42.512 116.337  -0.029  1.00  0.00     0.028 C 
BRANCH  17  20
HETATM   20  O9          0      42.182 119.006  -2.434  1.00  0.00    -0.357 OA
HETATM   21  H9          0      41.570 119.683  -2.168  1.00  0.00     0.218 HD
ENDBRANCH  17  20
BRANCH  18  22
HETATM   22  O11         0      41.091 118.308   0.064  1.00  0.00    -0.357 OA
HETATM   23  H11         0      40.287 117.805   0.124  1.00  0.00     0.218 HD
ENDBRANCH  18  22
ENDBRANCH   4  14
BRANCH   8  24
HETATM   24  O17         0      46.518 110.559  -4.037  1.00  0.00    -0.359 OA
HETATM   25  H17         0      47.231 111.184  -4.086  1.00  0.00     0.218 HD
ENDBRANCH   8  24
TORSDOF 5
ENDMDL
MODEL 2
REMARK VINA RESULT:      -2.4      1.683      6.929
REMARK  5 active torsions:
REMARK  status: ('A' for Active; 'I' for Inactive)
REMARK    1  A    between atoms: C4_4  and  C5_5 
REMARK    2  A    between atoms: C8_8  and  O9_9 
REMARK    3  A    between atoms: C10_11  and  O11_12 
REMARK    4  A    between atoms: C16_18  and  O17_19 
REMARK    5  A    between atoms: C19_22  and  O20_23 
ROOT
HETATM    1  O1          0      45.128 118.213  -3.333  1.00  0.00    -0.286 OA
HETATM    2  C2          0      44.705 117.343  -2.522  1.00  0.00     0.201 C 
HETATM    3  C3          0      44.930 115.987  -2.691  1.00  0.00     0.067 C 
HETATM    4  C4          0      44.366 115.044  -1.840  1.00  0.00     0.103 C 
HETATM    5  O13         0      43.616 115.462  -0.836  1.00  0.00    -0.307 OA
HETATM    6  C14         0      43.340 116.735  -0.653  1.00  0.00     0.107 C 
HETATM    7  C15         0      42.265 117.146   0.121  1.00  0.00     0.049 C 
HETATM    8  C16         0      41.826 118.464   0.106  1.00  0.00     0.093 C 
HETATM    9  C18         0      42.788 119.398  -0.261  1.00  0.00     0.048 C 
HETATM   10  C19         0      43.901 119.013  -0.996  1.00  0.00     0.096 C 
HETATM   11  C21         0      44.061 117.700  -1.347  1.00  0.00     0.084 C 
ENDROOT
BRANCH  10  12
HETATM   12  O20         0      44.605 119.972  -1.718  1.00  0.00    -0.359 OA
HETATM   13  H20         0      44.109 120.583  -2.249  1.00  0.00     0.218 HD
ENDBRANCH  10  12
BRANCH   4  14
HETATM   14  C5          0      44.131 113.705  -2.385  1.00  0.00     0.025 C 
HETATM   15  C6          0      45.098 112.710  -2.378  1.00  0.00     0.004 C 
HETATM   16  C7          0      44.680 111.408  -2.125  1.00  0.00     0.026 C 
HETATM   17  C8          0      43.332 111.082  -2.017  1.00  0.00     0.112 C 
HETATM   18  C10         0      42.469 111.967  -2.650  1.00  0.00     0.112 C 
HETATM   19  C12         0      42.879 113.285  -2.814  1.00  0.00     0.028 C 
BRANCH  17  20
HETATM   20  O9          0      42.911 110.077  -1.165  1.00  0.00    -0.357 OA
HETATM   21  H9          0      43.441 109.321  -0.938  1.00  0.00     0.218 HD
ENDBRANCH  17  20
BRANCH  18  22
HETATM   22  O11         0      41.136 111.593  -2.735  1.00  0.00    -0.357 OA
HETATM   23  H11         0      40.923 110.702  -2.483  1.00  0.00     0.218 HD
ENDBRANCH  18  22
ENDBRANCH   4  14
BRANCH   8  24
HETATM   24  O17         0      40.463 118.780   0.125  1.00  0.00    -0.359 OA
HETATM   25  H17         0      39.936 118.762  -0.665  1.00  0.00     0.218 HD
ENDBRANCH   8  24
TORSDOF 5
ENDMDL
MODEL 3
REMARK VINA RESULT:      -2.4      3.014      5.891
REMARK  5 active torsions:
REMARK  status: ('A' for Active; 'I' for Inactive)
REMARK    1  A    between atoms: C4_4  and  C5_5 
REMARK    2  A    between atoms: C8_8  and  O9_9 
REMARK    3  A    between atoms: C10_11  and  O11_12 
REMARK    4  A    between atoms: C16_18  and  O17_19 
REMARK    5  A    between atoms: C19_22  and  O20_23 
ROOT
HETATM    1  O1          0      43.619 114.344  -1.891  1.00  0.00    -0.286 OA
HETATM    2  C2          0      43.864 113.126  -1.669  1.00  0.00     0.201 C 
HETATM    3  C3          0      44.958 112.703  -0.934  1.00  0.00     0.067 C 
HETATM    4  C4          0      45.261 111.354  -0.790  1.00  0.00     0.103 C 
HETATM    5  O13         0      44.468 110.461  -1.356  1.00  0.00    -0.307 OA
HETATM    6  C14         0      43.438 110.810  -2.095  1.00  0.00     0.107 C 
HETATM    7  C15         0      42.856 109.933  -2.998  1.00  0.00     0.049 C 
HETATM    8  C16         0      41.945 110.376  -3.950  1.00  0.00     0.093 C 
HETATM    9  C18         0      41.274 111.546  -3.619  1.00  0.00     0.048 C 
HETATM   10  C19         0      41.805 112.425  -2.685  1.00  0.00     0.096 C 
HETATM   11  C21         0      42.991 112.127  -2.071  1.00  0.00     0.084 C 
ENDROOT
BRANCH  10  12
HETATM   12  O20         0      41.383 113.750  -2.680  1.00  0.00    -0.359 OA
HETATM   13  H20         0      40.543 113.948  -2.284  1.00  0.00     0.218 HD
ENDBRANCH  10  12
BRANCH   4  14
HETATM   14  C5          0      46.664 111.003  -0.557  1.00  0.00     0.025 C 
HETATM   15  C6          0      47.258 109.875  -1.104  1.00  0.00     0.004 C 
HETATM   16  C7          0      48.573 109.987  -1.542  1.00  0.00     0.026 C 
HETATM   17  C8          0      49.319 111.141  -1.324  1.00  0.00     0.112 C 
HETATM   18  C10         0      48.883 111.920  -0.260  1.00  0.00     0.112 C 
HETATM   19  C12         0      47.543 111.852   0.103  1.00  0.00     0.028 C 
BRANCH  17  20
HETATM   20  O9          0      50.272 111.553  -2.238  1.00  0.00    -0.357 OA
HETATM   21  H9          0      50.081 111.745  -3.149  1.00  0.00     0.218 HD
ENDBRANCH  17  20
BRANCH  18  22
HETATM   22  O11         0      49.698 112.977   0.119  1.00  0.00    -0.357 OA
HETATM   23  H11         0      49.970 113.005   1.030  1.00  0.00     0.218 HD
ENDBRANCH  18  22
ENDBRANCH   4  14
BRANCH   8  24
HETATM   24  O17         0      41.957 109.878  -5.258  1.00  0.00    -0.359 OA
HETATM   25  H17         0      42.630 109.279  -5.558  1.00  0.00     0.218 HD
ENDBRANCH   8  24
TORSDOF 5
ENDMDL
MODEL 4
REMARK VINA RESULT:      -2.1      4.905      7.061
REMARK  5 active torsions:
REMARK  status: ('A' for Active; 'I' for Inactive)
REMARK    1  A    between atoms: C4_4  and  C5_5 
REMARK    2  A    between atoms: C8_8  and  O9_9 
REMARK    3  A    between atoms: C10_11  and  O11_12 
REMARK    4  A    between atoms: C16_18  and  O17_19 
REMARK    5  A    between atoms: C19_22  and  O20_23 
ROOT
HETATM    1  O1          0      47.496 113.765  -6.489  1.00  0.00    -0.286 OA
HETATM    2  C2          0      46.475 113.037  -6.351  1.00  0.00     0.201 C 
HETATM    3  C3          0      46.094 112.502  -5.132  1.00  0.00     0.067 C 
HETATM    4  C4          0      45.025 111.620  -5.026  1.00  0.00     0.103 C 
HETATM    5  O13         0      44.350 111.306  -6.117  1.00  0.00    -0.307 OA
HETATM    6  C14         0      44.692 111.756  -7.304  1.00  0.00     0.107 C 
HETATM    7  C15         0      44.264 111.140  -8.471  1.00  0.00     0.049 C 
HETATM    8  C16         0      44.826 111.456  -9.702  1.00  0.00     0.093 C 
HETATM    9  C18         0      45.399 112.719  -9.779  1.00  0.00     0.048 C 
HETATM   10  C19         0      45.796 113.385  -8.627  1.00  0.00     0.096 C 
HETATM   11  C21         0      45.606 112.799  -7.405  1.00  0.00     0.084 C 
ENDROOT
BRANCH  10  12
HETATM   12  O20         0      46.735 114.407  -8.722  1.00  0.00    -0.359 OA
HETATM   13  H20         0      47.622 114.176  -8.970  1.00  0.00     0.218 HD
ENDBRANCH  10  12
BRANCH   4  14
HETATM   14  C5          0      45.051 110.666  -3.915  1.00  0.00     0.025 C 
HETATM   15  C6          0      46.230 110.170  -3.378  1.00  0.00     0.004 C 
HETATM   16  C7          0      46.285 109.990  -2.000  1.00  0.00     0.026 C 
HETATM   17  C8          0      45.165 110.169  -1.195  1.00  0.00     0.112 C 
HETATM   18  C10         0      43.951 110.035  -1.855  1.00  0.00     0.112 C 
HETATM   19  C12         0      43.906 110.303  -3.218  1.00  0.00     0.028 C 
BRANCH  17  20
HETATM   20  O9          0      45.289 110.649   0.096  1.00  0.00    -0.357 OA
HETATM   21  H9          0      45.465 110.098   0.850  1.00  0.00     0.218 HD
ENDBRANCH  17  20
BRANCH  18  22
HETATM   22  O11         0      42.807 110.015  -1.069  1.00  0.00    -0.357 OA
HETATM   23  H11         0      41.982 110.195  -1.505  1.00  0.00     0.218 HD
ENDBRANCH  18  22
ENDBRANCH   4  14
BRANCH   8  24
HETATM   24  O17         0      45.090 110.468 -10.658  1.00  0.00    -0.359 OA
HETATM   25  H17         0      44.883 109.555 -10.502  1.00  0.00     0.218 HD
ENDBRANCH   8  24
TORSDOF 5
ENDMDL
MODEL 5
REMARK VINA RESULT:      -2.0      4.348      6.288
REMARK  5 active torsions:
REMARK  status: ('A' for Active; 'I' for Inactive)
REMARK    1  A    between atoms: C4_4  and  C5_5 
REMARK    2  A    between atoms: C8_8  and  O9_9 
REMARK    3  A    between atoms: C10_11  and  O11_12 
REMARK    4  A    between atoms: C16_18  and  O17_19 
REMARK    5  A    between atoms: C19_22  and  O20_23 
ROOT
HETATM    1  O1          0      46.753 110.298  -5.242  1.00  0.00    -0.286 OA
HETATM    2  C2          0      45.608 110.134  -4.738  1.00  0.00     0.201 C 
HETATM    3  C3          0      44.470 109.951  -5.505  1.00  0.00     0.067 C 
HETATM    4  C4          0      43.207 109.875  -4.928  1.00  0.00     0.103 C 
HETATM    5  O13         0      43.104 109.960  -3.613  1.00  0.00    -0.307 OA
HETATM    6  C14         0      44.148 110.171  -2.842  1.00  0.00     0.107 C 
HETATM    7  C15         0      44.015 110.653  -1.548  1.00  0.00     0.049 C 
HETATM    8  C16         0      45.114 111.112  -0.833  1.00  0.00     0.093 C 
HETATM    9  C18         0      46.337 110.588  -1.235  1.00  0.00     0.048 C 
HETATM   10  C19         0      46.492 110.056  -2.507  1.00  0.00     0.096 C 
HETATM   11  C21         0      45.428 110.031  -3.367  1.00  0.00     0.084 C 
ENDROOT
BRANCH  10  12
HETATM   12  O20         0      47.770 109.944  -3.047  1.00  0.00    -0.359 OA
HETATM   13  H20         0      48.282 109.177  -2.822  1.00  0.00     0.218 HD
ENDBRANCH  10  12
BRANCH   4  14
HETATM   14  C5          0      42.069 110.284  -5.753  1.00  0.00     0.025 C 
HETATM   15  C6          0      40.760 110.263  -5.291  1.00  0.00     0.004 C 
HETATM   16  C7          0      39.922 111.301  -5.685  1.00  0.00     0.026 C 
HETATM   17  C8          0      40.327 112.254  -6.612  1.00  0.00     0.112 C 
HETATM   18  C10         0      41.350 111.844  -7.456  1.00  0.00     0.112 C 
HETATM   19  C12         0      42.226 110.864  -7.004  1.00  0.00     0.028 C 
BRANCH  17  20
HETATM   20  O9          0      39.876 113.560  -6.530  1.00  0.00    -0.357 OA
HETATM   21  H9          0      40.417 114.289  -6.251  1.00  0.00     0.218 HD
ENDBRANCH  17  20
BRANCH  18  22
HETATM   22  O11         0      41.663 112.681  -8.518  1.00  0.00    -0.357 OA
HETATM   23  H11         0      41.173 113.493  -8.585  1.00  0.00     0.218 HD
ENDBRANCH  18  22
ENDBRANCH   4  14
BRANCH   8  24
HETATM   24  O17         0      45.032 112.248  -0.020  1.00  0.00    -0.359 OA
HETATM   25  H17         0      45.801 112.759   0.203  1.00  0.00     0.218 HD
ENDBRANCH   8  24
TORSDOF 5
ENDMDL
MODEL 6
REMARK VINA RESULT:      -2.0      4.683      7.910
REMARK  5 active torsions:
REMARK  status: ('A' for Active; 'I' for Inactive)
REMARK    1  A    between atoms: C4_4  and  C5_5 
REMARK    2  A    between atoms: C8_8  and  O9_9 
REMARK    3  A    between atoms: C10_11  and  O11_12 
REMARK    4  A    between atoms: C16_18  and  O17_19 
REMARK    5  A    between atoms: C19_22  and  O20_23 
ROOT
HETATM    1  O1          0      45.639 111.605  -5.065  1.00  0.00    -0.286 OA
HETATM    2  C2          0      44.493 111.105  -5.232  1.00  0.00     0.201 C 
HETATM    3  C3          0      44.123 110.450  -6.394  1.00  0.00     0.067 C 
HETATM    4  C4          0      42.824 109.998  -6.594  1.00  0.00     0.103 C 
HETATM    5  O13         0      41.932 110.187  -5.637  1.00  0.00    -0.307 OA
HETATM    6  C14         0      42.221 110.837  -4.531  1.00  0.00     0.107 C 
HETATM    7  C15         0      41.233 111.382  -3.724  1.00  0.00     0.049 C 
HETATM    8  C16         0      41.543 112.275  -2.706  1.00  0.00     0.093 C 
HETATM    9  C18         0      42.838 112.174  -2.211  1.00  0.00     0.048 C 
HETATM   10  C19         0      43.841 111.592  -2.974  1.00  0.00     0.096 C 
HETATM   11  C21         0      43.550 111.099  -4.216  1.00  0.00     0.084 C 
ENDROOT
BRANCH  10  12
HETATM   12  O20         0      45.171 111.878  -2.681  1.00  0.00    -0.359 OA
HETATM   13  H20         0      45.402 112.780  -2.494  1.00  0.00     0.218 HD
ENDBRANCH  10  12
BRANCH   4  14
HETATM   14  C5          0      42.359 109.886  -7.978  1.00  0.00     0.025 C 
HETATM   15  C6          0      41.017 109.920  -8.326  1.00  0.00     0.004 C 
HETATM   16  C7          0      40.671 110.589  -9.495  1.00  0.00     0.026 C 
HETATM   17  C8          0      41.636 111.092 -10.361  1.00  0.00     0.112 C 
HETATM   18  C10         0      42.877 110.475 -10.267  1.00  0.00     0.112 C 
HETATM   19  C12         0      43.232 109.887  -9.059  1.00  0.00     0.028 C 
BRANCH  17  20
HETATM   20  O9          0      41.405 112.247 -11.086  1.00  0.00    -0.357 OA
HETATM   21  H9          0      42.013 112.977 -11.123  1.00  0.00     0.218 HD
ENDBRANCH  17  20
BRANCH  18  22
HETATM   22  O11         0      43.817 110.805 -11.232  1.00  0.00    -0.357 OA
HETATM   23  H11         0      44.103 111.711 -11.261  1.00  0.00     0.218 HD
ENDBRANCH  18  22
ENDBRANCH   4  14
BRANCH   8  24
HETATM   24  O17         0      40.742 113.393  -2.447  1.00  0.00    -0.359 OA
HETATM   25  H17         0      40.085 113.387  -1.761  1.00  0.00     0.218 HD
ENDBRANCH   8  24
TORSDOF 5
ENDMDL
MODEL 7
REMARK VINA RESULT:      -2.0      3.883      6.657
REMARK  5 active torsions:
REMARK  status: ('A' for Active; 'I' for Inactive)
REMARK    1  A    between atoms: C4_4  and  C5_5 
REMARK    2  A    between atoms: C8_8  and  O9_9 
REMARK    3  A    between atoms: C10_11  and  O11_12 
REMARK    4  A    between atoms: C16_18  and  O17_19 
REMARK    5  A    between atoms: C19_22  and  O20_23 
ROOT
HETATM    1  O1          0      44.255 112.778  -8.273  1.00  0.00    -0.286 OA
HETATM    2  C2          0      44.239 113.051  -7.042  1.00  0.00     0.201 C 
HETATM    3  C3          0      44.877 112.271  -6.092  1.00  0.00     0.067 C 
HETATM    4  C4          0      44.758 112.536  -4.733  1.00  0.00     0.103 C 
HETATM    5  O13         0      44.032 113.572  -4.349  1.00  0.00    -0.307 OA
HETATM    6  C14         0      43.375 114.321  -5.206  1.00  0.00     0.107 C 
HETATM    7  C15         0      42.321 115.132  -4.811  1.00  0.00     0.049 C 
HETATM    8  C16         0      41.474 115.720  -5.743  1.00  0.00     0.093 C 
HETATM    9  C18         0      42.024 115.898  -7.006  1.00  0.00     0.048 C 
HETATM   10  C19         0      43.110 115.136  -7.417  1.00  0.00     0.096 C 
HETATM   11  C21         0      43.653 114.214  -6.565  1.00  0.00     0.084 C 
ENDROOT
BRANCH  10  12
HETATM   12  O20         0      43.370 115.001  -8.777  1.00  0.00    -0.359 OA
HETATM   13  H20         0      43.256 114.144  -9.169  1.00  0.00     0.218 HD
ENDBRANCH  10  12
BRANCH   4  14
HETATM   14  C5          0      44.917 111.407  -3.814  1.00  0.00     0.025 C 
HETATM   15  C6          0      46.157 110.951  -3.391  1.00  0.00     0.004 C 
HETATM   16  C7          0      46.273 110.534  -2.069  1.00  0.00     0.026 C 
HETATM   17  C8          0      45.166 110.446  -1.231  1.00  0.00     0.112 C 
HETATM   18  C10         0      43.952 110.304  -1.889  1.00  0.00     0.112 C 
HETATM   19  C12         0      43.837 110.806  -3.180  1.00  0.00     0.028 C 
BRANCH  17  20
HETATM   20  O9          0      45.282 110.698   0.124  1.00  0.00    -0.357 OA
HETATM   21  H9          0      44.795 111.376   0.578  1.00  0.00     0.218 HD
ENDBRANCH  17  20
BRANCH  18  22
HETATM   22  O11         0      42.842 110.023  -1.105  1.00  0.00    -0.357 OA
HETATM   23  H11         0      42.784 109.148  -0.740  1.00  0.00     0.218 HD
ENDBRANCH  18  22
ENDBRANCH   4  14
BRANCH   8  24
HETATM   24  O17         0      40.095 115.805  -5.522  1.00  0.00    -0.359 OA
HETATM   25  H17         0      39.734 115.903  -4.649  1.00  0.00     0.218 HD
ENDBRANCH   8  24
TORSDOF 5
ENDMDL
MODEL 8
REMARK VINA RESULT:      -2.0      4.494      7.049
REMARK  5 active torsions:
REMARK  status: ('A' for Active; 'I' for Inactive)
REMARK    1  A    between atoms: C4_4  and  C5_5 
REMARK    2  A    between atoms: C8_8  and  O9_9 
REMARK    3  A    between atoms: C10_11  and  O11_12 
REMARK    4  A    between atoms: C16_18  and  O17_19 
REMARK    5  A    between atoms: C19_22  and  O20_23 
ROOT
HETATM    1  O1          0      47.121 115.013  -5.032  1.00  0.00    -0.286 OA
HETATM    2  C2          0      46.726 113.871  -5.395  1.00  0.00     0.201 C 
HETATM    3  C3          0      45.990 113.035  -4.573  1.00  0.00     0.067 C 
HETATM    4  C4          0      45.656 111.742  -4.960  1.00  0.00     0.103 C 
HETATM    5  O13         0      46.038 111.318  -6.152  1.00  0.00    -0.307 OA
HETATM    6  C14         0      46.770 112.057  -6.955  1.00  0.00     0.107 C 
HETATM    7  C15         0      47.498 111.503  -7.998  1.00  0.00     0.049 C 
HETATM    8  C16         0      48.460 112.239  -8.679  1.00  0.00     0.093 C 
HETATM    9  C18         0      48.281 113.617  -8.640  1.00  0.00     0.048 C 
HETATM   10  C19         0      47.519 114.201  -7.637  1.00  0.00     0.096 C 
HETATM   11  C21         0      46.927 113.413  -6.688  1.00  0.00     0.084 C 
ENDROOT
BRANCH  10  12
HETATM   12  O20         0      47.697 115.550  -7.346  1.00  0.00    -0.359 OA
HETATM   13  H20         0      47.124 116.176  -7.771  1.00  0.00     0.218 HD
ENDBRANCH  10  12
BRANCH   4  14
HETATM   14  C5          0      45.442 110.759  -3.897  1.00  0.00     0.025 C 
HETATM   15  C6          0      46.484 110.103  -3.258  1.00  0.00     0.004 C 
HETATM   16  C7          0      46.361 109.876  -1.891  1.00  0.00     0.026 C 
HETATM   17  C8          0      45.187 110.167  -1.206  1.00  0.00     0.112 C 
HETATM   18  C10         0      44.048 110.206  -1.998  1.00  0.00     0.112 C 
HETATM   19  C12         0      44.190 110.520  -3.345  1.00  0.00     0.028 C 
BRANCH  17  20
HETATM   20  O9          0      45.221 110.589   0.112  1.00  0.00    -0.357 OA
HETATM   21  H9          0      44.881 110.079   0.838  1.00  0.00     0.218 HD
ENDBRANCH  17  20
BRANCH  18  22
HETATM   22  O11         0      42.829 110.305  -1.342  1.00  0.00    -0.357 OA
HETATM   23  H11         0      42.830 110.142  -0.406  1.00  0.00     0.218 HD
ENDBRANCH  18  22
ENDBRANCH   4  14
BRANCH   8  24
HETATM   24  O17         0      49.675 111.666  -9.070  1.00  0.00    -0.359 OA
HETATM   25  H17         0      50.501 112.123  -8.960  1.00  0.00     0.218 HD
ENDBRANCH   8  24
TORSDOF 5
ENDMDL
MODEL 9
REMARK VINA RESULT:      -2.0      3.700      6.342
REMARK  5 active torsions:
REMARK  status: ('A' for Active; 'I' for Inactive)
REMARK    1  A    between atoms: C4_4  and  C5_5 
REMARK    2  A    between atoms: C8_8  and  O9_9 
REMARK    3  A    between atoms: C10_11  and  O11_12 
REMARK    4  A    between atoms: C16_18  and  O17_19 
REMARK    5  A    between atoms: C19_22  and  O20_23 
ROOT
HETATM    1  O1          0      46.922 116.713  -3.540  1.00  0.00    -0.286 OA
HETATM    2  C2          0      47.005 115.454  -3.528  1.00  0.00     0.201 C 
HETATM    3  C3          0      45.966 114.630  -3.925  1.00  0.00     0.067 C 
HETATM    4  C4          0      46.046 113.247  -3.806  1.00  0.00     0.103 C 
HETATM    5  O13         0      47.154 112.715  -3.319  1.00  0.00    -0.307 OA
HETATM    6  C14         0      48.155 113.453  -2.894  1.00  0.00     0.107 C 
HETATM    7  C15         0      49.122 112.949  -2.036  1.00  0.00     0.049 C 
HETATM    8  C16         0      50.023 113.788  -1.391  1.00  0.00     0.093 C 
HETATM    9  C18         0      50.254 115.001  -2.027  1.00  0.00     0.048 C 
HETATM   10  C19         0      49.329 115.513  -2.927  1.00  0.00     0.096 C 
HETATM   11  C21         0      48.189 114.809  -3.203  1.00  0.00     0.084 C 
ENDROOT
BRANCH  10  12
HETATM   12  O20         0      49.340 116.875  -3.214  1.00  0.00    -0.359 OA
HETATM   13  H20         0      50.091 117.226  -3.676  1.00  0.00     0.218 HD
ENDBRANCH  10  12
BRANCH   4  14
HETATM   14  C5          0      44.788 112.513  -3.657  1.00  0.00     0.025 C 
HETATM   15  C6          0      44.635 111.193  -4.058  1.00  0.00     0.004 C 
HETATM   16  C7          0      43.861 110.362  -3.255  1.00  0.00     0.026 C 
HETATM   17  C8          0      43.151 110.854  -2.165  1.00  0.00     0.112 C 
HETATM   18  C10         0      42.859 112.210  -2.228  1.00  0.00     0.112 C 
HETATM   19  C12         0      43.700 113.033  -2.969  1.00  0.00     0.028 C 
BRANCH  17  20
HETATM   20  O9          0      42.959 110.079  -1.036  1.00  0.00    -0.357 OA
HETATM   21  H9          0      42.942 110.428  -0.152  1.00  0.00     0.218 HD
ENDBRANCH  17  20
BRANCH  18  22
HETATM   22  O11         0      41.996 112.713  -1.265  1.00  0.00    -0.357 OA
HETATM   23  H11         0      41.888 113.656  -1.234  1.00  0.00     0.218 HD
ENDBRANCH  18  22
ENDBRANCH   4  14
BRANCH   8  24
HETATM   24  O17         0      50.395 113.572  -0.059  1.00  0.00    -0.359 OA
HETATM   25  H17         0      51.306 113.493   0.198  1.00  0.00     0.218 HD
ENDBRANCH   8  24
TORSDOF 5
ENDMDL
