MODEL 1
REMARK VINA RESULT:      -6.9      0.000      0.000
REMARK  5 active torsions:
REMARK  status: ('A' for Active; 'I' for Inactive)
REMARK    1  A    between atoms: C4_4  and  C5_5 
REMARK    2  A    between atoms: C8_8  and  O9_9 
REMARK    3  A    between atoms: C10_11  and  O11_12 
REMARK    4  A    between atoms: C16_18  and  O17_19 
REMARK    5  A    between atoms: C19_22  and  O20_23 
ROOT
HETATM    1  O1          0      34.283  83.175 -30.345  1.00  0.00    -0.286 OA
HETATM    2  C2          0      35.414  83.521 -29.904  1.00  0.00     0.201 C 
HETATM    3  C3          0      36.556  83.519 -30.685  1.00  0.00     0.067 C 
HETATM    4  C4          0      37.807  83.805 -30.149  1.00  0.00     0.103 C 
HETATM    5  O13         0      37.893  84.105 -28.865  1.00  0.00    -0.307 OA
HETATM    6  C14         0      36.845  84.085 -28.070  1.00  0.00     0.107 C 
HETATM    7  C15         0      36.974  84.000 -26.692  1.00  0.00     0.049 C 
HETATM    8  C16         0      35.881  83.724 -25.880  1.00  0.00     0.093 C 
HETATM    9  C18         0      34.647  84.063 -26.421  1.00  0.00     0.048 C 
HETATM   10  C19         0      34.493  84.202 -27.794  1.00  0.00     0.096 C 
HETATM   11  C21         0      35.569  84.020 -28.619  1.00  0.00     0.084 C 
ENDROOT
BRANCH  10  12
HETATM   12  O20         0      33.221  84.106 -28.349  1.00  0.00    -0.359 OA
HETATM   13  H20         0      33.128  84.268 -29.280  1.00  0.00     0.218 HD
ENDBRANCH  10  12
BRANCH   4  14
HETATM   14  C5          0      38.971  83.221 -30.816  1.00  0.00     0.025 C 
HETATM   15  C6          0      39.656  82.125 -30.310  1.00  0.00     0.004 C 
HETATM   16  C7          0      40.125  81.182 -31.220  1.00  0.00     0.026 C 
HETATM   17  C8          0      40.036  81.386 -32.592  1.00  0.00     0.112 C 
HETATM   18  C10         0      39.938  82.717 -32.976  1.00  0.00     0.112 C 
HETATM   19  C12         0      39.386  83.624 -32.078  1.00  0.00     0.028 C 
BRANCH  17  20
HETATM   20  O9          0      39.848  80.322 -33.456  1.00  0.00    -0.357 OA
HETATM   21  H9          0      39.226  79.620 -33.302  1.00  0.00     0.218 HD
ENDBRANCH  17  20
BRANCH  18  22
HETATM   22  O11         0      40.036  82.989 -34.333  1.00  0.00    -0.357 OA
HETATM   23  H11         0      39.230  83.202 -34.789  1.00  0.00     0.218 HD
ENDBRANCH  18  22
ENDBRANCH   4  14
BRANCH   8  24
HETATM   24  O17         0      35.990  82.873 -24.774  1.00  0.00    -0.359 OA
HETATM   25  H17         0      36.633  83.022 -24.091  1.00  0.00     0.218 HD
ENDBRANCH   8  24
TORSDOF 5
ENDMDL
MODEL 2
REMARK VINA RESULT:      -6.6      4.586      7.853
REMARK  5 active torsions:
REMARK  status: ('A' for Active; 'I' for Inactive)
REMARK    1  A    between atoms: C4_4  and  C5_5 
REMARK    2  A    between atoms: C8_8  and  O9_9 
REMARK    3  A    between atoms: C10_11  and  O11_12 
REMARK    4  A    between atoms: C16_18  and  O17_19 
REMARK    5  A    between atoms: C19_22  and  O20_23 
ROOT
HETATM    1  O1          0      36.418  87.795 -29.285  1.00  0.00    -0.286 OA
HETATM    2  C2          0      35.403  87.132 -29.634  1.00  0.00     0.201 C 
HETATM    3  C3          0      34.403  87.657 -30.434  1.00  0.00     0.067 C 
HETATM    4  C4          0      33.246  86.940 -30.719  1.00  0.00     0.103 C 
HETATM    5  O13         0      33.117  85.721 -30.226  1.00  0.00    -0.307 OA
HETATM    6  C14         0      34.020  85.190 -29.430  1.00  0.00     0.107 C 
HETATM    7  C15         0      33.725  84.114 -28.605  1.00  0.00     0.049 C 
HETATM    8  C16         0      34.591  83.722 -27.592  1.00  0.00     0.093 C 
HETATM    9  C18         0      35.921  84.077 -27.788  1.00  0.00     0.048 C 
HETATM   10  C19         0      36.255  85.118 -28.643  1.00  0.00     0.096 C 
HETATM   11  C21         0      35.269  85.790 -29.312  1.00  0.00     0.084 C 
ENDROOT
BRANCH  10  12
HETATM   12  O20         0      37.491  85.741 -28.505  1.00  0.00    -0.359 OA
HETATM   13  H20         0      38.268  85.195 -28.503  1.00  0.00     0.218 HD
ENDBRANCH  10  12
BRANCH   4  14
HETATM   14  C5          0      32.038  87.710 -31.019  1.00  0.00     0.025 C 
HETATM   15  C6          0      30.807  87.116 -31.259  1.00  0.00     0.004 C 
HETATM   16  C7          0      29.676  87.749 -30.755  1.00  0.00     0.026 C 
HETATM   17  C8          0      29.749  88.999 -30.150  1.00  0.00     0.112 C 
HETATM   18  C10         0      30.851  89.759 -30.518  1.00  0.00     0.112 C 
HETATM   19  C12         0      31.999  89.096 -30.938  1.00  0.00     0.028 C 
BRANCH  17  20
HETATM   20  O9          0      28.895  89.336 -29.114  1.00  0.00    -0.357 OA
HETATM   21  H9          0      28.740  88.783 -28.357  1.00  0.00     0.218 HD
ENDBRANCH  17  20
BRANCH  18  22
HETATM   22  O11         0      30.875  91.080 -30.094  1.00  0.00    -0.357 OA
HETATM   23  H11         0      30.070  91.576 -30.189  1.00  0.00     0.218 HD
ENDBRANCH  18  22
ENDBRANCH   4  14
BRANCH   8  24
HETATM   24  O17         0      34.115  83.316 -26.341  1.00  0.00    -0.359 OA
HETATM   25  H17         0      33.602  83.895 -25.790  1.00  0.00     0.218 HD
ENDBRANCH   8  24
TORSDOF 5
ENDMDL
MODEL 3
REMARK VINA RESULT:      -6.4      1.763      2.132
REMARK  5 active torsions:
REMARK  status: ('A' for Active; 'I' for Inactive)
REMARK    1  A    between atoms: C4_4  and  C5_5 
REMARK    2  A    between atoms: C8_8  and  O9_9 
REMARK    3  A    between atoms: C10_11  and  O11_12 
REMARK    4  A    between atoms: C16_18  and  O17_19 
REMARK    5  A    between atoms: C19_22  and  O20_23 
ROOT
HETATM    1  O1          0      33.123  83.382 -29.401  1.00  0.00    -0.286 OA
HETATM    2  C2          0      34.290  83.836 -29.559  1.00  0.00     0.201 C 
HETATM    3  C3          0      34.864  84.013 -30.807  1.00  0.00     0.067 C 
HETATM    4  C4          0      36.186  84.418 -30.950  1.00  0.00     0.103 C 
HETATM    5  O13         0      36.898  84.655 -29.862  1.00  0.00    -0.307 OA
HETATM    6  C14         0      36.414  84.467 -28.654  1.00  0.00     0.107 C 
HETATM    7  C15         0      37.241  84.323 -27.550  1.00  0.00     0.049 C 
HETATM    8  C16         0      36.746  83.874 -26.331  1.00  0.00     0.093 C 
HETATM    9  C18         0      35.388  84.092 -26.133  1.00  0.00     0.048 C 
HETATM   10  C19         0      34.539  84.286 -27.214  1.00  0.00     0.096 C 
HETATM   11  C21         0      35.046  84.279 -28.485  1.00  0.00     0.084 C 
ENDROOT
BRANCH  10  12
HETATM   12  O20         0      33.174  84.069 -27.056  1.00  0.00    -0.359 OA
HETATM   13  H20         0      32.839  83.969 -26.173  1.00  0.00     0.218 HD
ENDBRANCH  10  12
BRANCH   4  14
HETATM   14  C5          0      36.881  84.014 -32.173  1.00  0.00     0.025 C 
HETATM   15  C6          0      38.260  83.877 -32.244  1.00  0.00     0.004 C 
HETATM   16  C7          0      38.765  82.826 -33.003  1.00  0.00     0.026 C 
HETATM   17  C8          0      37.935  82.019 -33.775  1.00  0.00     0.112 C 
HETATM   18  C10         0      36.728  82.604 -34.133  1.00  0.00     0.112 C 
HETATM   19  C12         0      36.204  83.594 -33.310  1.00  0.00     0.028 C 
BRANCH  17  20
HETATM   20  O9          0      38.228  80.681 -33.968  1.00  0.00    -0.357 OA
HETATM   21  H9          0      37.788  80.131 -34.606  1.00  0.00     0.218 HD
ENDBRANCH  17  20
BRANCH  18  22
HETATM   22  O11         0      35.948  81.920 -35.055  1.00  0.00    -0.357 OA
HETATM   23  H11         0      35.400  81.220 -34.719  1.00  0.00     0.218 HD
ENDBRANCH  18  22
ENDBRANCH   4  14
BRANCH   8  24
HETATM   24  O17         0      37.472  82.984 -25.533  1.00  0.00    -0.359 OA
HETATM   25  H17         0      37.149  82.693 -24.688  1.00  0.00     0.218 HD
ENDBRANCH   8  24
TORSDOF 5
ENDMDL
MODEL 4
REMARK VINA RESULT:      -6.3      3.318      4.136
REMARK  5 active torsions:
REMARK  status: ('A' for Active; 'I' for Inactive)
REMARK    1  A    between atoms: C4_4  and  C5_5 
REMARK    2  A    between atoms: C8_8  and  O9_9 
REMARK    3  A    between atoms: C10_11  and  O11_12 
REMARK    4  A    between atoms: C16_18  and  O17_19 
REMARK    5  A    between atoms: C19_22  and  O20_23 
ROOT
HETATM    1  O1          0      33.044  83.286 -28.556  1.00  0.00    -0.286 OA
HETATM    2  C2          0      33.919  84.143 -28.856  1.00  0.00     0.201 C 
HETATM    3  C3          0      33.887  84.866 -30.036  1.00  0.00     0.067 C 
HETATM    4  C4          0      34.918  85.729 -30.390  1.00  0.00     0.103 C 
HETATM    5  O13         0      35.939  85.871 -29.563  1.00  0.00    -0.307 OA
HETATM    6  C14         0      36.037  85.180 -28.448  1.00  0.00     0.107 C 
HETATM    7  C15         0      37.249  85.018 -27.792  1.00  0.00     0.049 C 
HETATM    8  C16         0      37.397  84.088 -26.770  1.00  0.00     0.093 C 
HETATM    9  C18         0      36.223  83.751 -26.108  1.00  0.00     0.048 C 
HETATM   10  C19         0      34.990  83.944 -26.717  1.00  0.00     0.096 C 
HETATM   11  C21         0      34.930  84.487 -27.971  1.00  0.00     0.084 C 
ENDROOT
BRANCH  10  12
HETATM   12  O20         0      33.887  83.228 -26.262  1.00  0.00    -0.359 OA
HETATM   13  H20         0      33.127  83.175 -26.828  1.00  0.00     0.218 HD
ENDBRANCH  10  12
BRANCH   4  14
HETATM   14  C5          0      35.130  85.971 -31.818  1.00  0.00     0.025 C 
HETATM   15  C6          0      36.389  85.981 -32.401  1.00  0.00     0.004 C 
HETATM   16  C7          0      36.517  85.423 -33.669  1.00  0.00     0.026 C 
HETATM   17  C8          0      35.409  84.991 -34.391  1.00  0.00     0.112 C 
HETATM   18  C10         0      34.210  85.585 -34.022  1.00  0.00     0.112 C 
HETATM   19  C12         0      34.079  86.058 -32.722  1.00  0.00     0.028 C 
BRANCH  17  20
HETATM   20  O9          0      35.500  83.907 -35.246  1.00  0.00    -0.357 OA
HETATM   21  H9          0      35.200  83.033 -35.025  1.00  0.00     0.218 HD
ENDBRANCH  17  20
BRANCH  18  22
HETATM   22  O11         0      33.110  85.333 -34.830  1.00  0.00    -0.357 OA
HETATM   23  H11         0      33.089  84.496 -35.279  1.00  0.00     0.218 HD
ENDBRANCH  18  22
ENDBRANCH   4  14
BRANCH   8  24
HETATM   24  O17         0      38.557  83.315 -26.650  1.00  0.00    -0.359 OA
HETATM   25  H17         0      39.262  83.561 -26.062  1.00  0.00     0.218 HD
ENDBRANCH   8  24
TORSDOF 5
ENDMDL
MODEL 5
REMARK VINA RESULT:      -6.1      2.454      6.343
REMARK  5 active torsions:
REMARK  status: ('A' for Active; 'I' for Inactive)
REMARK    1  A    between atoms: C4_4  and  C5_5 
REMARK    2  A    between atoms: C8_8  and  O9_9 
REMARK    3  A    between atoms: C10_11  and  O11_12 
REMARK    4  A    between atoms: C16_18  and  O17_19 
REMARK    5  A    between atoms: C19_22  and  O20_23 
ROOT
HETATM    1  O1          0      33.461  85.954 -32.418  1.00  0.00    -0.286 OA
HETATM    2  C2          0      34.349  85.259 -31.852  1.00  0.00     0.201 C 
HETATM    3  C3          0      34.330  84.977 -30.497  1.00  0.00     0.067 C 
HETATM    4  C4          0      35.373  84.296 -29.879  1.00  0.00     0.103 C 
HETATM    5  O13         0      36.393  83.895 -30.617  1.00  0.00    -0.307 OA
HETATM    6  C14         0      36.479  84.169 -31.900  1.00  0.00     0.107 C 
HETATM    7  C15         0      37.687  84.114 -32.581  1.00  0.00     0.049 C 
HETATM    8  C16         0      37.820  84.645 -33.858  1.00  0.00     0.093 C 
HETATM    9  C18         0      36.640  84.725 -34.587  1.00  0.00     0.048 C 
HETATM   10  C19         0      35.411  84.735 -33.940  1.00  0.00     0.096 C 
HETATM   11  C21         0      35.361  84.648 -32.576  1.00  0.00     0.084 C 
ENDROOT
BRANCH  10  12
HETATM   12  O20         0      34.298  85.243 -34.602  1.00  0.00    -0.359 OA
HETATM   13  H20         0      34.257  86.180 -34.750  1.00  0.00     0.218 HD
ENDBRANCH  10  12
BRANCH   4  14
HETATM   14  C5          0      35.592  84.554 -28.455  1.00  0.00     0.025 C 
HETATM   15  C6          0      34.570  84.510 -27.517  1.00  0.00     0.004 C 
HETATM   16  C7          0      34.864  83.971 -26.269  1.00  0.00     0.026 C 
HETATM   17  C8          0      36.160  83.612 -25.916  1.00  0.00     0.112 C 
HETATM   18  C10         0      37.157  84.261 -26.634  1.00  0.00     0.112 C 
HETATM   19  C12         0      36.861  84.714 -27.914  1.00  0.00     0.028 C 
BRANCH  17  20
HETATM   20  O9          0      36.394  82.543 -25.071  1.00  0.00    -0.357 OA
HETATM   21  H9          0      35.927  81.717 -25.123  1.00  0.00     0.218 HD
ENDBRANCH  17  20
BRANCH  18  22
HETATM   22  O11         0      38.462  84.083 -26.197  1.00  0.00    -0.357 OA
HETATM   23  H11         0      39.073  84.790 -26.371  1.00  0.00     0.218 HD
ENDBRANCH  18  22
ENDBRANCH   4  14
BRANCH   8  24
HETATM   24  O17         0      38.970  85.345 -34.241  1.00  0.00    -0.359 OA
HETATM   25  H17         0      39.784  84.897 -34.438  1.00  0.00     0.218 HD
ENDBRANCH   8  24
TORSDOF 5
ENDMDL
MODEL 6
REMARK VINA RESULT:      -6.1      3.723      5.805
REMARK  5 active torsions:
REMARK  status: ('A' for Active; 'I' for Inactive)
REMARK    1  A    between atoms: C4_4  and  C5_5 
REMARK    2  A    between atoms: C8_8  and  O9_9 
REMARK    3  A    between atoms: C10_11  and  O11_12 
REMARK    4  A    between atoms: C16_18  and  O17_19 
REMARK    5  A    between atoms: C19_22  and  O20_23 
ROOT
HETATM    1  O1          0      31.726  85.895 -30.733  1.00  0.00    -0.286 OA
HETATM    2  C2          0      32.967  85.999 -30.530  1.00  0.00     0.201 C 
HETATM    3  C3          0      33.765  84.920 -30.189  1.00  0.00     0.067 C 
HETATM    4  C4          0      35.109  85.079 -29.871  1.00  0.00     0.103 C 
HETATM    5  O13         0      35.633  86.291 -29.917  1.00  0.00    -0.307 OA
HETATM    6  C14         0      34.912  87.354 -30.198  1.00  0.00     0.107 C 
HETATM    7  C15         0      35.334  88.633 -29.865  1.00  0.00     0.049 C 
HETATM    8  C16         0      34.469  89.718 -29.930  1.00  0.00     0.093 C 
HETATM    9  C18         0      33.403  89.568 -30.809  1.00  0.00     0.048 C 
HETATM   10  C19         0      32.984  88.304 -31.200  1.00  0.00     0.096 C 
HETATM   11  C21         0      33.636  87.197 -30.729  1.00  0.00     0.084 C 
ENDROOT
BRANCH  10  12
HETATM   12  O20         0      31.697  88.139 -31.702  1.00  0.00    -0.359 OA
HETATM   13  H20         0      31.536  87.404 -32.281  1.00  0.00     0.218 HD
ENDBRANCH  10  12
BRANCH   4  14
HETATM   14  C5          0      35.708  84.086 -28.977  1.00  0.00     0.025 C 
HETATM   15  C6          0      36.755  83.262 -29.363  1.00  0.00     0.004 C 
HETATM   16  C7          0      37.741  82.990 -28.420  1.00  0.00     0.026 C 
HETATM   17  C8          0      37.624  83.410 -27.099  1.00  0.00     0.112 C 
HETATM   18  C10         0      36.321  83.644 -26.679  1.00  0.00     0.112 C 
HETATM   19  C12         0      35.373  83.998 -27.632  1.00  0.00     0.028 C 
BRANCH  17  20
HETATM   20  O9          0      38.742  83.759 -26.364  1.00  0.00    -0.357 OA
HETATM   21  H9          0      39.366  84.424 -26.635  1.00  0.00     0.218 HD
ENDBRANCH  17  20
BRANCH  18  22
HETATM   22  O11         0      36.130  83.880 -25.325  1.00  0.00    -0.357 OA
HETATM   23  H11         0      35.235  83.857 -25.006  1.00  0.00     0.218 HD
ENDBRANCH  18  22
ENDBRANCH   4  14
BRANCH   8  24
HETATM   24  O17         0      34.481  90.719 -28.952  1.00  0.00    -0.359 OA
HETATM   25  H17         0      33.704  91.227 -28.748  1.00  0.00     0.218 HD
ENDBRANCH   8  24
TORSDOF 5
ENDMDL
MODEL 7
REMARK VINA RESULT:      -6.1     11.499     12.711
REMARK  5 active torsions:
REMARK  status: ('A' for Active; 'I' for Inactive)
REMARK    1  A    between atoms: C4_4  and  C5_5 
REMARK    2  A    between atoms: C8_8  and  O9_9 
REMARK    3  A    between atoms: C10_11  and  O11_12 
REMARK    4  A    between atoms: C16_18  and  O17_19 
REMARK    5  A    between atoms: C19_22  and  O20_23 
ROOT
HETATM    1  O1          0      33.003  91.905 -26.598  1.00  0.00    -0.286 OA
HETATM    2  C2          0      33.000  92.719 -25.634  1.00  0.00     0.201 C 
HETATM    3  C3          0      34.140  93.372 -25.199  1.00  0.00     0.067 C 
HETATM    4  C4          0      34.130  94.184 -24.071  1.00  0.00     0.103 C 
HETATM    5  O13         0      32.994  94.346 -23.416  1.00  0.00    -0.307 OA
HETATM    6  C14         0      31.891  93.720 -23.764  1.00  0.00     0.107 C 
HETATM    7  C15         0      30.831  93.562 -22.883  1.00  0.00     0.049 C 
HETATM    8  C16         0      29.785  92.691 -23.161  1.00  0.00     0.093 C 
HETATM    9  C18         0      29.585  92.426 -24.510  1.00  0.00     0.048 C 
HETATM   10  C19         0      30.610  92.617 -25.426  1.00  0.00     0.096 C 
HETATM   11  C21         0      31.823  93.086 -25.000  1.00  0.00     0.084 C 
ENDROOT
BRANCH  10  12
HETATM   12  O20         0      30.559  91.959 -26.651  1.00  0.00    -0.359 OA
HETATM   13  H20         0      30.252  92.446 -27.406  1.00  0.00     0.218 HD
ENDBRANCH  10  12
BRANCH   4  14
HETATM   14  C5          0      35.391  94.335 -23.343  1.00  0.00     0.025 C 
HETATM   15  C6          0      35.549  93.938 -22.023  1.00  0.00     0.004 C 
HETATM   16  C7          0      36.763  93.360 -21.665  1.00  0.00     0.026 C 
HETATM   17  C8          0      37.832  93.300 -22.553  1.00  0.00     0.112 C 
HETATM   18  C10         0      37.799  94.249 -23.566  1.00  0.00     0.112 C 
HETATM   19  C12         0      36.564  94.748 -23.962  1.00  0.00     0.028 C 
BRANCH  17  20
HETATM   20  O9          0      38.719  92.239 -22.523  1.00  0.00    -0.357 OA
HETATM   21  H9          0      39.344  92.092 -21.822  1.00  0.00     0.218 HD
ENDBRANCH  17  20
BRANCH  18  22
HETATM   22  O11         0      38.929  94.357 -24.363  1.00  0.00    -0.357 OA
HETATM   23  H11         0      39.273  93.552 -24.734  1.00  0.00     0.218 HD
ENDBRANCH  18  22
ENDBRANCH   4  14
BRANCH   8  24
HETATM   24  O17         0      29.214  91.895 -22.162  1.00  0.00    -0.359 OA
HETATM   25  H17         0      28.502  91.294 -22.348  1.00  0.00     0.218 HD
ENDBRANCH   8  24
TORSDOF 5
ENDMDL
MODEL 8
REMARK VINA RESULT:      -6.0      3.141      5.836
REMARK  5 active torsions:
REMARK  status: ('A' for Active; 'I' for Inactive)
REMARK    1  A    between atoms: C4_4  and  C5_5 
REMARK    2  A    between atoms: C8_8  and  O9_9 
REMARK    3  A    between atoms: C10_11  and  O11_12 
REMARK    4  A    between atoms: C16_18  and  O17_19 
REMARK    5  A    between atoms: C19_22  and  O20_23 
ROOT
HETATM    1  O1          0      35.262  84.510 -26.318  1.00  0.00    -0.286 OA
HETATM    2  C2          0      35.555  84.581 -27.543  1.00  0.00     0.201 C 
HETATM    3  C3          0      34.751  85.221 -28.471  1.00  0.00     0.067 C 
HETATM    4  C4          0      35.046  85.196 -29.830  1.00  0.00     0.103 C 
HETATM    5  O13         0      36.132  84.561 -30.232  1.00  0.00    -0.307 OA
HETATM    6  C14         0      36.909  83.906 -29.398  1.00  0.00     0.107 C 
HETATM    7  C15         0      37.792  82.929 -29.835  1.00  0.00     0.049 C 
HETATM    8  C16         0      38.418  82.070 -28.940  1.00  0.00     0.093 C 
HETATM    9  C18         0      38.540  82.558 -27.644  1.00  0.00     0.048 C 
HETATM   10  C19         0      37.703  83.568 -27.189  1.00  0.00     0.096 C 
HETATM   11  C21         0      36.761  84.098 -28.028  1.00  0.00     0.084 C 
ENDROOT
BRANCH  10  12
HETATM   12  O20         0      37.529  83.742 -25.820  1.00  0.00    -0.359 OA
HETATM   13  H20         0      38.299  83.915 -25.292  1.00  0.00     0.218 HD
ENDBRANCH  10  12
BRANCH   4  14
HETATM   14  C5          0      33.924  85.334 -30.760  1.00  0.00     0.025 C 
HETATM   15  C6          0      32.626  85.586 -30.341  1.00  0.00     0.004 C 
HETATM   16  C7          0      31.855  86.448 -31.115  1.00  0.00     0.026 C 
HETATM   17  C8          0      32.309  86.937 -32.334  1.00  0.00     0.112 C 
HETATM   18  C10         0      33.286  86.161 -32.943  1.00  0.00     0.112 C 
HETATM   19  C12         0      34.100  85.373 -32.137  1.00  0.00     0.028 C 
BRANCH  17  20
HETATM   20  O9          0      31.951  88.202 -32.768  1.00  0.00    -0.357 OA
HETATM   21  H9          0      32.307  88.612 -33.548  1.00  0.00     0.218 HD
ENDBRANCH  17  20
BRANCH  18  22
HETATM   22  O11         0      33.638  86.498 -34.242  1.00  0.00    -0.357 OA
HETATM   23  H11         0      33.601  87.420 -34.472  1.00  0.00     0.218 HD
ENDBRANCH  18  22
ENDBRANCH   4  14
BRANCH   8  24
HETATM   24  O17         0      38.597  80.714 -29.234  1.00  0.00    -0.359 OA
HETATM   25  H17         0      38.575  80.049 -28.557  1.00  0.00     0.218 HD
ENDBRANCH   8  24
TORSDOF 5
ENDMDL
MODEL 9
REMARK VINA RESULT:      -6.0      3.391      4.490
REMARK  5 active torsions:
REMARK  status: ('A' for Active; 'I' for Inactive)
REMARK    1  A    between atoms: C4_4  and  C5_5 
REMARK    2  A    between atoms: C8_8  and  O9_9 
REMARK    3  A    between atoms: C10_11  and  O11_12 
REMARK    4  A    between atoms: C16_18  and  O17_19 
REMARK    5  A    between atoms: C19_22  and  O20_23 
ROOT
HETATM    1  O1          0      32.330  84.478 -29.892  1.00  0.00    -0.286 OA
HETATM    2  C2          0      33.426  84.979 -30.266  1.00  0.00     0.201 C 
HETATM    3  C3          0      34.618  84.275 -30.250  1.00  0.00     0.067 C 
HETATM    4  C4          0      35.827  84.882 -30.570  1.00  0.00     0.103 C 
HETATM    5  O13         0      35.825  86.157 -30.916  1.00  0.00    -0.307 OA
HETATM    6  C14         0      34.727  86.881 -30.911  1.00  0.00     0.107 C 
HETATM    7  C15         0      34.766  88.268 -30.877  1.00  0.00     0.049 C 
HETATM    8  C16         0      33.624  89.015 -30.616  1.00  0.00     0.093 C 
HETATM    9  C18         0      32.426  88.382 -30.922  1.00  0.00     0.048 C 
HETATM   10  C19         0      32.361  86.998 -31.011  1.00  0.00     0.096 C 
HETATM   11  C21         0      33.491  86.252 -30.812  1.00  0.00     0.084 C 
ENDROOT
BRANCH  10  12
HETATM   12  O20         0      31.130  86.364 -30.880  1.00  0.00    -0.359 OA
HETATM   13  H20         0      31.056  85.662 -30.246  1.00  0.00     0.218 HD
ENDBRANCH  10  12
BRANCH   4  14
HETATM   14  C5          0      37.039  84.315 -29.976  1.00  0.00     0.025 C 
HETATM   15  C6          0      37.148  84.023 -28.624  1.00  0.00     0.004 C 
HETATM   16  C7          0      37.839  82.869 -28.268  1.00  0.00     0.026 C 
HETATM   17  C8          0      38.514  82.102 -29.211  1.00  0.00     0.112 C 
HETATM   18  C10         0      38.874  82.786 -30.364  1.00  0.00     0.112 C 
HETATM   19  C12         0      38.114  83.886 -30.744  1.00  0.00     0.028 C 
BRANCH  17  20
HETATM   20  O9          0      38.611  80.729 -29.071  1.00  0.00    -0.357 OA
HETATM   21  H9          0      39.132  80.302 -28.401  1.00  0.00     0.218 HD
ENDBRANCH  17  20
BRANCH  18  22
HETATM   22  O11         0      39.710  82.125 -31.253  1.00  0.00    -0.357 OA
HETATM   23  H11         0      39.612  82.336 -32.174  1.00  0.00     0.218 HD
ENDBRANCH  18  22
ENDBRANCH   4  14
BRANCH   8  24
HETATM   24  O17         0      33.668  90.156 -29.807  1.00  0.00    -0.359 OA
HETATM   25  H17         0      34.102  90.151 -28.961  1.00  0.00     0.218 HD
ENDBRANCH   8  24
TORSDOF 5
ENDMDL
