MODEL 1
REMARK VINA RESULT:      -3.9      0.000      0.000
REMARK  5 active torsions:
REMARK  status: ('A' for Active; 'I' for Inactive)
REMARK    1  A    between atoms: C4_4  and  C5_5 
REMARK    2  A    between atoms: C8_8  and  O9_9 
REMARK    3  A    between atoms: C10_11  and  O11_12 
REMARK    4  A    between atoms: C16_18  and  O17_19 
REMARK    5  A    between atoms: C19_22  and  O20_23 
ROOT
HETATM    1  O1          0      50.615  25.347 -12.128  1.00  0.00    -0.286 OA
HETATM    2  C2          0      50.780  26.538 -11.746  1.00  0.00     0.201 C 
HETATM    3  C3          0      49.759  27.473 -11.739  1.00  0.00     0.067 C 
HETATM    4  C4          0      49.991  28.804 -11.411  1.00  0.00     0.103 C 
HETATM    5  O13         0      51.216  29.171 -11.079  1.00  0.00    -0.307 OA
HETATM    6  C14         0      52.229  28.333 -11.106  1.00  0.00     0.107 C 
HETATM    7  C15         0      53.543  28.775 -11.156  1.00  0.00     0.049 C 
HETATM    8  C16         0      54.588  27.904 -11.440  1.00  0.00     0.093 C 
HETATM    9  C18         0      54.336  26.570 -11.142  1.00  0.00     0.048 C 
HETATM   10  C19         0      53.033  26.103 -11.038  1.00  0.00     0.096 C 
HETATM   11  C21         0      51.987  26.968 -11.214  1.00  0.00     0.084 C 
ENDROOT
BRANCH  10  12
HETATM   12  O20         0      52.784  24.741 -11.177  1.00  0.00    -0.359 OA
HETATM   13  H20         0      53.367  24.237 -11.732  1.00  0.00     0.218 HD
ENDBRANCH  10  12
BRANCH   4  14
HETATM   14  C5          0      49.086  29.802 -11.982  1.00  0.00     0.025 C 
HETATM   15  C6          0      47.856  29.474 -12.533  1.00  0.00     0.004 C 
HETATM   16  C7          0      46.796  30.348 -12.310  1.00  0.00     0.026 C 
HETATM   17  C8          0      46.981  31.572 -11.676  1.00  0.00     0.112 C 
HETATM   18  C10         0      48.275  32.069 -11.743  1.00  0.00     0.112 C 
HETATM   19  C12         0      49.323  31.167 -11.881  1.00  0.00     0.028 C 
BRANCH  17  20
HETATM   20  O9          0      45.990  32.113 -10.876  1.00  0.00    -0.357 OA
HETATM   21  H9          0      45.088  32.221 -11.154  1.00  0.00     0.218 HD
ENDBRANCH  17  20
BRANCH  18  22
HETATM   22  O11         0      48.474  33.368 -11.295  1.00  0.00    -0.357 OA
HETATM   23  H11         0      48.124  34.067 -11.835  1.00  0.00     0.218 HD
ENDBRANCH  18  22
ENDBRANCH   4  14
BRANCH   8  24
HETATM   24  O17         0      55.653  28.286 -12.262  1.00  0.00    -0.359 OA
HETATM   25  H17         0      55.569  28.313 -13.208  1.00  0.00     0.218 HD
ENDBRANCH   8  24
TORSDOF 5
ENDMDL
MODEL 2
REMARK VINA RESULT:      -3.9      1.734      6.581
REMARK  5 active torsions:
REMARK  status: ('A' for Active; 'I' for Inactive)
REMARK    1  A    between atoms: C4_4  and  C5_5 
REMARK    2  A    between atoms: C8_8  and  O9_9 
REMARK    3  A    between atoms: C10_11  and  O11_12 
REMARK    4  A    between atoms: C16_18  and  O17_19 
REMARK    5  A    between atoms: C19_22  and  O20_23 
ROOT
HETATM    1  O1          0      49.102  27.402 -10.907  1.00  0.00    -0.286 OA
HETATM    2  C2          0      50.033  28.184 -11.243  1.00  0.00     0.201 C 
HETATM    3  C3          0      51.372  27.867 -11.087  1.00  0.00     0.067 C 
HETATM    4  C4          0      52.375  28.787 -11.369  1.00  0.00     0.103 C 
HETATM    5  O13         0      52.034  29.983 -11.815  1.00  0.00    -0.307 OA
HETATM    6  C14         0      50.777  30.348 -11.945  1.00  0.00     0.107 C 
HETATM    7  C15         0      50.407  31.683 -12.019  1.00  0.00     0.049 C 
HETATM    8  C16         0      49.078  32.071 -11.899  1.00  0.00     0.093 C 
HETATM    9  C18         0      48.149  31.095 -12.237  1.00  0.00     0.048 C 
HETATM   10  C19         0      48.498  29.752 -12.219  1.00  0.00     0.096 C 
HETATM   11  C21         0      49.774  29.387 -11.883  1.00  0.00     0.084 C 
ENDROOT
BRANCH  10  12
HETATM   12  O20         0      47.498  28.789 -12.124  1.00  0.00    -0.359 OA
HETATM   13  H20         0      46.968  28.621 -12.894  1.00  0.00     0.218 HD
ENDBRANCH  10  12
BRANCH   4  14
HETATM   14  C5          0      53.641  28.639 -10.649  1.00  0.00     0.025 C 
HETATM   15  C6          0      54.138  27.407 -10.247  1.00  0.00     0.004 C 
HETATM   16  C7          0      55.511  27.206 -10.337  1.00  0.00     0.026 C 
HETATM   17  C8          0      56.378  28.235 -10.686  1.00  0.00     0.112 C 
HETATM   18  C10         0      55.888  29.512 -10.447  1.00  0.00     0.112 C 
HETATM   19  C12         0      54.512  29.702 -10.446  1.00  0.00     0.028 C 
BRANCH  17  20
HETATM   20  O9          0      57.532  27.978 -11.406  1.00  0.00    -0.357 OA
HETATM   21  H9          0      58.210  27.377 -11.119  1.00  0.00     0.218 HD
ENDBRANCH  17  20
BRANCH  18  22
HETATM   22  O11         0      56.779  30.566 -10.599  1.00  0.00    -0.357 OA
HETATM   23  H11         0      56.405  31.428 -10.738  1.00  0.00     0.218 HD
ENDBRANCH  18  22
ENDBRANCH   4  14
BRANCH   8  24
HETATM   24  O17         0      48.715  33.217 -11.182  1.00  0.00    -0.359 OA
HETATM   25  H17         0      48.717  34.078 -11.583  1.00  0.00     0.218 HD
ENDBRANCH   8  24
TORSDOF 5
ENDMDL
MODEL 3
REMARK VINA RESULT:      -3.8      7.321      9.011
REMARK  5 active torsions:
REMARK  status: ('A' for Active; 'I' for Inactive)
REMARK    1  A    between atoms: C4_4  and  C5_5 
REMARK    2  A    between atoms: C8_8  and  O9_9 
REMARK    3  A    between atoms: C10_11  and  O11_12 
REMARK    4  A    between atoms: C16_18  and  O17_19 
REMARK    5  A    between atoms: C19_22  and  O20_23 
ROOT
HETATM    1  O1          0      52.645  33.915 -10.824  1.00  0.00    -0.286 OA
HETATM    2  C2          0      53.869  34.139 -10.615  1.00  0.00     0.201 C 
HETATM    3  C3          0      54.332  35.316 -10.052  1.00  0.00     0.067 C 
HETATM    4  C4          0      55.691  35.579  -9.928  1.00  0.00     0.103 C 
HETATM    5  O13         0      56.554  34.668 -10.341  1.00  0.00    -0.307 OA
HETATM    6  C14         0      56.169  33.550 -10.917  1.00  0.00     0.107 C 
HETATM    7  C15         0      57.033  32.795 -11.697  1.00  0.00     0.049 C 
HETATM    8  C16         0      56.563  31.765 -12.503  1.00  0.00     0.093 C 
HETATM    9  C18         0      55.357  31.206 -12.097  1.00  0.00     0.048 C 
HETATM   10  C19         0      54.490  31.916 -11.278  1.00  0.00     0.096 C 
HETATM   11  C21         0      54.833  33.170 -10.853  1.00  0.00     0.084 C 
ENDROOT
BRANCH  10  12
HETATM   12  O20         0      53.146  31.558 -11.237  1.00  0.00    -0.359 OA
HETATM   13  H20         0      52.729  31.298 -12.049  1.00  0.00     0.218 HD
ENDBRANCH  10  12
BRANCH   4  14
HETATM   14  C5          0      56.102  36.984  -9.911  1.00  0.00     0.025 C 
HETATM   15  C6          0      57.432  37.378  -9.876  1.00  0.00     0.004 C 
HETATM   16  C7          0      57.794  38.493 -10.625  1.00  0.00     0.026 C 
HETATM   17  C8          0      56.846  39.272 -11.279  1.00  0.00     0.112 C 
HETATM   18  C10         0      55.564  39.188 -10.752  1.00  0.00     0.112 C 
HETATM   19  C12         0      55.200  38.026 -10.081  1.00  0.00     0.028 C 
BRANCH  17  20
HETATM   20  O9          0      57.145  39.895 -12.477  1.00  0.00    -0.357 OA
HETATM   21  H9          0      57.997  39.854 -12.895  1.00  0.00     0.218 HD
ENDBRANCH  17  20
BRANCH  18  22
HETATM   22  O11         0      54.623  40.082 -11.243  1.00  0.00    -0.357 OA
HETATM   23  H11         0      53.974  40.404 -10.628  1.00  0.00     0.218 HD
ENDBRANCH  18  22
ENDBRANCH   4  14
BRANCH   8  24
HETATM   24  O17         0      57.080  31.548 -13.785  1.00  0.00    -0.359 OA
HETATM   25  H17         0      56.930  32.162 -14.494  1.00  0.00     0.218 HD
ENDBRANCH   8  24
TORSDOF 5
ENDMDL
MODEL 4
REMARK VINA RESULT:      -3.7      6.986      8.926
REMARK  5 active torsions:
REMARK  status: ('A' for Active; 'I' for Inactive)
REMARK    1  A    between atoms: C4_4  and  C5_5 
REMARK    2  A    between atoms: C8_8  and  O9_9 
REMARK    3  A    between atoms: C10_11  and  O11_12 
REMARK    4  A    between atoms: C16_18  and  O17_19 
REMARK    5  A    between atoms: C19_22  and  O20_23 
ROOT
HETATM    1  O1          0      54.966  31.843  -9.875  1.00  0.00    -0.286 OA
HETATM    2  C2          0      54.939  32.894 -10.574  1.00  0.00     0.201 C 
HETATM    3  C3          0      55.710  34.007 -10.284  1.00  0.00     0.067 C 
HETATM    4  C4          0      55.585  35.187 -11.009  1.00  0.00     0.103 C 
HETATM    5  O13         0      54.722  35.230 -12.009  1.00  0.00    -0.307 OA
HETATM    6  C14         0      53.940  34.215 -12.301  1.00  0.00     0.107 C 
HETATM    7  C15         0      52.786  34.374 -13.055  1.00  0.00     0.049 C 
HETATM    8  C16         0      51.838  33.362 -13.146  1.00  0.00     0.093 C 
HETATM    9  C18         0      52.325  32.080 -12.922  1.00  0.00     0.048 C 
HETATM   10  C19         0      53.502  31.886 -12.212  1.00  0.00     0.096 C 
HETATM   11  C21         0      54.198  32.967 -11.743  1.00  0.00     0.084 C 
ENDROOT
BRANCH  10  12
HETATM   12  O20         0      53.747  30.648 -11.625  1.00  0.00    -0.359 OA
HETATM   13  H20         0      54.494  30.150 -11.934  1.00  0.00     0.218 HD
ENDBRANCH  10  12
BRANCH   4  14
HETATM   14  C5          0      55.933  36.433 -10.324  1.00  0.00     0.025 C 
HETATM   15  C6          0      57.220  36.719  -9.891  1.00  0.00     0.004 C 
HETATM   16  C7          0      57.666  38.031 -10.017  1.00  0.00     0.026 C 
HETATM   17  C8          0      56.818  39.053 -10.433  1.00  0.00     0.112 C 
HETATM   18  C10         0      55.468  38.806 -10.227  1.00  0.00     0.112 C 
HETATM   19  C12         0      55.036  37.485 -10.190  1.00  0.00     0.028 C 
BRANCH  17  20
HETATM   20  O9          0      57.300  40.114 -11.179  1.00  0.00    -0.357 OA
HETATM   21  H9          0      56.988  41.007 -11.089  1.00  0.00     0.218 HD
ENDBRANCH  17  20
BRANCH  18  22
HETATM   22  O11         0      54.595  39.862 -10.448  1.00  0.00    -0.357 OA
HETATM   23  H11         0      54.042  39.808 -11.219  1.00  0.00     0.218 HD
ENDBRANCH  18  22
ENDBRANCH   4  14
BRANCH   8  24
HETATM   24  O17         0      50.468  33.643 -13.125  1.00  0.00    -0.359 OA
HETATM   25  H17         0      49.851  33.162 -13.664  1.00  0.00     0.218 HD
ENDBRANCH   8  24
TORSDOF 5
ENDMDL
MODEL 5
REMARK VINA RESULT:      -3.7      2.084      7.081
REMARK  5 active torsions:
REMARK  status: ('A' for Active; 'I' for Inactive)
REMARK    1  A    between atoms: C4_4  and  C5_5 
REMARK    2  A    between atoms: C8_8  and  O9_9 
REMARK    3  A    between atoms: C10_11  and  O11_12 
REMARK    4  A    between atoms: C16_18  and  O17_19 
REMARK    5  A    between atoms: C19_22  and  O20_23 
ROOT
HETATM    1  O1          0      52.746  30.189 -11.749  1.00  0.00    -0.286 OA
HETATM    2  C2          0      52.010  29.179 -11.578  1.00  0.00     0.201 C 
HETATM    3  C3          0      52.516  27.904 -11.392  1.00  0.00     0.067 C 
HETATM    4  C4          0      51.683  26.794 -11.309  1.00  0.00     0.103 C 
HETATM    5  O13         0      50.377  26.973 -11.392  1.00  0.00    -0.307 OA
HETATM    6  C14         0      49.846  28.157 -11.606  1.00  0.00     0.107 C 
HETATM    7  C15         0      48.552  28.302 -12.085  1.00  0.00     0.049 C 
HETATM    8  C16         0      48.087  29.527 -12.548  1.00  0.00     0.093 C 
HETATM    9  C18         0      48.742  30.638 -12.030  1.00  0.00     0.048 C 
HETATM   10  C19         0      50.020  30.519 -11.500  1.00  0.00     0.096 C 
HETATM   11  C21         0      50.633  29.296 -11.472  1.00  0.00     0.084 C 
ENDROOT
BRANCH  10  12
HETATM   12  O20         0      50.820  31.653 -11.395  1.00  0.00    -0.359 OA
HETATM   13  H20         0      51.216  31.841 -10.553  1.00  0.00     0.218 HD
ENDBRANCH  10  12
BRANCH   4  14
HETATM   14  C5          0      52.245  25.504 -11.714  1.00  0.00     0.025 C 
HETATM   15  C6          0      53.538  25.114 -11.399  1.00  0.00     0.004 C 
HETATM   16  C7          0      53.746  23.779 -11.066  1.00  0.00     0.026 C 
HETATM   17  C8          0      52.731  22.834 -11.172  1.00  0.00     0.112 C 
HETATM   18  C10         0      51.720  23.168 -12.063  1.00  0.00     0.112 C 
HETATM   19  C12         0      51.477  24.513 -12.313  1.00  0.00     0.028 C 
BRANCH  17  20
HETATM   20  O9          0      52.660  21.768 -10.293  1.00  0.00    -0.357 OA
HETATM   21  H9          0      53.136  21.729  -9.472  1.00  0.00     0.218 HD
ENDBRANCH  17  20
BRANCH  18  22
HETATM   22  O11         0      50.785  22.183 -12.349  1.00  0.00    -0.357 OA
HETATM   23  H11         0      49.993  22.177 -11.824  1.00  0.00     0.218 HD
ENDBRANCH  18  22
ENDBRANCH   4  14
BRANCH   8  24
HETATM   24  O17         0      47.272  29.616 -13.682  1.00  0.00    -0.359 OA
HETATM   25  H17         0      47.481  30.199 -14.402  1.00  0.00     0.218 HD
ENDBRANCH   8  24
TORSDOF 5
ENDMDL
MODEL 6
REMARK VINA RESULT:      -3.5      2.513      7.153
REMARK  5 active torsions:
REMARK  status: ('A' for Active; 'I' for Inactive)
REMARK    1  A    between atoms: C4_4  and  C5_5 
REMARK    2  A    between atoms: C8_8  and  O9_9 
REMARK    3  A    between atoms: C10_11  and  O11_12 
REMARK    4  A    between atoms: C16_18  and  O17_19 
REMARK    5  A    between atoms: C19_22  and  O20_23 
ROOT
HETATM    1  O1          0      50.404  31.670 -11.667  1.00  0.00    -0.286 OA
HETATM    2  C2          0      49.496  30.799 -11.759  1.00  0.00     0.201 C 
HETATM    3  C3          0      49.750  29.439 -11.696  1.00  0.00     0.067 C 
HETATM    4  C4          0      48.747  28.500 -11.904  1.00  0.00     0.103 C 
HETATM    5  O13         0      47.520  28.925 -12.146  1.00  0.00    -0.307 OA
HETATM    6  C14         0      47.231  30.203 -12.253  1.00  0.00     0.107 C 
HETATM    7  C15         0      46.077  30.641 -12.887  1.00  0.00     0.049 C 
HETATM    8  C16         0      45.901  31.979 -13.222  1.00  0.00     0.093 C 
HETATM    9  C18         0      46.630  32.877 -12.453  1.00  0.00     0.048 C 
HETATM   10  C19         0      47.764  32.462 -11.768  1.00  0.00     0.096 C 
HETATM   11  C21         0      48.157  31.153 -11.837  1.00  0.00     0.084 C 
ENDROOT
BRANCH  10  12
HETATM   12  O20         0      48.708  33.407 -11.378  1.00  0.00    -0.359 OA
HETATM   13  H20         0      48.505  33.957 -10.631  1.00  0.00     0.218 HD
ENDBRANCH  10  12
BRANCH   4  14
HETATM   14  C5          0      49.152  27.189 -12.414  1.00  0.00     0.025 C 
HETATM   15  C6          0      50.207  27.019 -13.299  1.00  0.00     0.004 C 
HETATM   16  C7          0      51.021  25.904 -13.126  1.00  0.00     0.026 C 
HETATM   17  C8          0      50.720  24.919 -12.191  1.00  0.00     0.112 C 
HETATM   18  C10         0      49.381  24.851 -11.832  1.00  0.00     0.112 C 
HETATM   19  C12         0      48.610  26.003 -11.934  1.00  0.00     0.028 C 
BRANCH  17  20
HETATM   20  O9          0      51.727  24.230 -11.539  1.00  0.00    -0.357 OA
HETATM   21  H9          0      51.589  23.419 -11.064  1.00  0.00     0.218 HD
ENDBRANCH  17  20
BRANCH  18  22
HETATM   22  O11         0      48.994  23.771 -11.051  1.00  0.00    -0.357 OA
HETATM   23  H11         0      49.229  23.800 -10.130  1.00  0.00     0.218 HD
ENDBRANCH  18  22
ENDBRANCH   4  14
BRANCH   8  24
HETATM   24  O17         0      45.314  32.355 -14.435  1.00  0.00    -0.359 OA
HETATM   25  H17         0      45.778  32.274 -15.260  1.00  0.00     0.218 HD
ENDBRANCH   8  24
TORSDOF 5
ENDMDL
MODEL 7
REMARK VINA RESULT:      -3.3      4.121      5.539
REMARK  5 active torsions:
REMARK  status: ('A' for Active; 'I' for Inactive)
REMARK    1  A    between atoms: C4_4  and  C5_5 
REMARK    2  A    between atoms: C8_8  and  O9_9 
REMARK    3  A    between atoms: C10_11  and  O11_12 
REMARK    4  A    between atoms: C16_18  and  O17_19 
REMARK    5  A    between atoms: C19_22  and  O20_23 
ROOT
HETATM    1  O1          0      54.816  30.854 -12.258  1.00  0.00    -0.286 OA
HETATM    2  C2          0      53.950  31.671 -11.839  1.00  0.00     0.201 C 
HETATM    3  C3          0      52.591  31.486 -12.027  1.00  0.00     0.067 C 
HETATM    4  C4          0      51.665  32.451 -11.647  1.00  0.00     0.103 C 
HETATM    5  O13         0      52.102  33.559 -11.075  1.00  0.00    -0.307 OA
HETATM    6  C14         0      53.383  33.801 -10.907  1.00  0.00     0.107 C 
HETATM    7  C15         0      53.862  35.085 -10.690  1.00  0.00     0.049 C 
HETATM    8  C16         0      55.220  35.371 -10.768  1.00  0.00     0.093 C 
HETATM    9  C18         0      56.062  34.290 -10.538  1.00  0.00     0.048 C 
HETATM   10  C19         0      55.601  32.990 -10.701  1.00  0.00     0.096 C 
HETATM   11  C21         0      54.303  32.772 -11.074  1.00  0.00     0.084 C 
ENDROOT
BRANCH  10  12
HETATM   12  O20         0      56.519  31.963 -10.900  1.00  0.00    -0.359 OA
HETATM   13  H20         0      56.394  31.155 -10.417  1.00  0.00     0.218 HD
ENDBRANCH  10  12
BRANCH   4  14
HETATM   14  C5          0      50.397  32.488 -12.379  1.00  0.00     0.025 C 
HETATM   15  C6          0      49.197  32.065 -11.826  1.00  0.00     0.004 C 
HETATM   16  C7          0      48.053  32.793 -12.135  1.00  0.00     0.026 C 
HETATM   17  C8          0      48.074  33.824 -13.067  1.00  0.00     0.112 C 
HETATM   18  C10         0      49.108  33.749 -13.992  1.00  0.00     0.112 C 
HETATM   19  C12         0      50.274  33.088 -13.625  1.00  0.00     0.028 C 
BRANCH  17  20
HETATM   20  O9          0      47.251  34.927 -12.924  1.00  0.00    -0.357 OA
HETATM   21  H9          0      46.755  35.116 -12.136  1.00  0.00     0.218 HD
ENDBRANCH  17  20
BRANCH  18  22
HETATM   22  O11         0      49.067  34.641 -15.054  1.00  0.00    -0.357 OA
HETATM   23  H11         0      48.307  35.208 -15.110  1.00  0.00     0.218 HD
ENDBRANCH  18  22
ENDBRANCH   4  14
BRANCH   8  24
HETATM   24  O17         0      55.684  36.553 -11.357  1.00  0.00    -0.359 OA
HETATM   25  H17         0      55.526  36.748 -12.273  1.00  0.00     0.218 HD
ENDBRANCH   8  24
TORSDOF 5
ENDMDL
MODEL 8
REMARK VINA RESULT:      -3.2      5.096      7.051
REMARK  5 active torsions:
REMARK  status: ('A' for Active; 'I' for Inactive)
REMARK    1  A    between atoms: C4_4  and  C5_5 
REMARK    2  A    between atoms: C8_8  and  O9_9 
REMARK    3  A    between atoms: C10_11  and  O11_12 
REMARK    4  A    between atoms: C16_18  and  O17_19 
REMARK    5  A    between atoms: C19_22  and  O20_23 
ROOT
HETATM    1  O1          0      57.435  32.694 -11.647  1.00  0.00    -0.286 OA
HETATM    2  C2          0      56.255  32.909 -11.257  1.00  0.00     0.201 C 
HETATM    3  C3          0      55.215  32.026 -11.493  1.00  0.00     0.067 C 
HETATM    4  C4          0      53.905  32.334 -11.142  1.00  0.00     0.103 C 
HETATM    5  O13         0      53.661  33.491 -10.552  1.00  0.00    -0.307 OA
HETATM    6  C14         0      54.606  34.380 -10.339  1.00  0.00     0.107 C 
HETATM    7  C15         0      54.313  35.715 -10.101  1.00  0.00     0.049 C 
HETATM    8  C16         0      55.305  36.688 -10.131  1.00  0.00     0.093 C 
HETATM    9  C18         0      56.590  36.224  -9.875  1.00  0.00     0.048 C 
HETATM   10  C19         0      56.905  34.884 -10.057  1.00  0.00     0.096 C 
HETATM   11  C21         0      55.939  34.010 -10.476  1.00  0.00     0.084 C 
ENDROOT
BRANCH  10  12
HETATM   12  O20         0      58.236  34.515 -10.227  1.00  0.00    -0.359 OA
HETATM   13  H20         0      58.710  34.884 -10.963  1.00  0.00     0.218 HD
ENDBRANCH  10  12
BRANCH   4  14
HETATM   14  C5          0      52.837  31.700 -11.918  1.00  0.00     0.025 C 
HETATM   15  C6          0      52.889  30.374 -12.323  1.00  0.00     0.004 C 
HETATM   16  C7          0      51.705  29.644 -12.293  1.00  0.00     0.026 C 
HETATM   17  C8          0      50.485  30.245 -11.999  1.00  0.00     0.112 C 
HETATM   18  C10         0      50.440  31.612 -12.235  1.00  0.00     0.112 C 
HETATM   19  C12         0      51.628  32.332 -12.175  1.00  0.00     0.028 C 
BRANCH  17  20
HETATM   20  O9          0      49.495  29.548 -11.329  1.00  0.00    -0.357 OA
HETATM   21  H9          0      49.665  28.810 -10.754  1.00  0.00     0.218 HD
ENDBRANCH  17  20
BRANCH  18  22
HETATM   22  O11         0      49.200  32.226 -12.140  1.00  0.00    -0.357 OA
HETATM   23  H11         0      49.194  33.169 -12.024  1.00  0.00     0.218 HD
ENDBRANCH  18  22
ENDBRANCH   4  14
BRANCH   8  24
HETATM   24  O17         0      55.077  37.945 -10.700  1.00  0.00    -0.359 OA
HETATM   25  H17         0      54.586  38.046 -11.507  1.00  0.00     0.218 HD
ENDBRANCH   8  24
TORSDOF 5
ENDMDL
MODEL 9
REMARK VINA RESULT:      -3.2      1.884      6.563
REMARK  5 active torsions:
REMARK  status: ('A' for Active; 'I' for Inactive)
REMARK    1  A    between atoms: C4_4  and  C5_5 
REMARK    2  A    between atoms: C8_8  and  O9_9 
REMARK    3  A    between atoms: C10_11  and  O11_12 
REMARK    4  A    between atoms: C16_18  and  O17_19 
REMARK    5  A    between atoms: C19_22  and  O20_23 
ROOT
HETATM    1  O1          0      48.069  28.614 -11.738  1.00  0.00    -0.286 OA
HETATM    2  C2          0      49.309  28.763 -11.913  1.00  0.00     0.201 C 
HETATM    3  C3          0      50.198  27.702 -11.930  1.00  0.00     0.067 C 
HETATM    4  C4          0      51.571  27.902 -12.021  1.00  0.00     0.103 C 
HETATM    5  O13         0      52.027  29.138 -12.114  1.00  0.00    -0.307 OA
HETATM    6  C14         0      51.230  30.183 -12.065  1.00  0.00     0.107 C 
HETATM    7  C15         0      51.705  31.451 -11.762  1.00  0.00     0.049 C 
HETATM    8  C16         0      50.837  32.494 -11.462  1.00  0.00     0.093 C 
HETATM    9  C18         0      49.557  32.361 -11.986  1.00  0.00     0.048 C 
HETATM   10  C19         0      49.067  31.113 -12.344  1.00  0.00     0.096 C 
HETATM   11  C21         0      49.857  30.005 -12.196  1.00  0.00     0.084 C 
ENDROOT
BRANCH  10  12
HETATM   12  O20         0      47.692  30.924 -12.444  1.00  0.00    -0.359 OA
HETATM   13  H20         0      47.129  31.680 -12.324  1.00  0.00     0.218 HD
ENDBRANCH  10  12
BRANCH   4  14
HETATM   14  C5          0      52.437  26.872 -11.445  1.00  0.00     0.025 C 
HETATM   15  C6          0      52.212  25.515 -11.621  1.00  0.00     0.004 C 
HETATM   16  C7          0      53.322  24.695 -11.799  1.00  0.00     0.026 C 
HETATM   17  C8          0      54.618  25.183 -11.673  1.00  0.00     0.112 C 
HETATM   18  C10         0      54.731  26.331 -10.899  1.00  0.00     0.112 C 
HETATM   19  C12         0      53.633  27.177 -10.807  1.00  0.00     0.028 C 
BRANCH  17  20
HETATM   20  O9          0      55.647  24.670 -12.440  1.00  0.00    -0.357 OA
HETATM   21  H9          0      56.567  24.755 -12.216  1.00  0.00     0.218 HD
ENDBRANCH  17  20
BRANCH  18  22
HETATM   22  O11         0      56.016  26.751 -10.584  1.00  0.00    -0.357 OA
HETATM   23  H11         0      56.451  26.305  -9.866  1.00  0.00     0.218 HD
ENDBRANCH  18  22
ENDBRANCH   4  14
BRANCH   8  24
HETATM   24  O17         0      51.125  33.413 -10.447  1.00  0.00    -0.359 OA
HETATM   25  H17         0      51.249  33.140  -9.546  1.00  0.00     0.218 HD
ENDBRANCH   8  24
TORSDOF 5
ENDMDL
