MODEL 1
REMARK VINA RESULT:      -6.1      0.000      0.000
REMARK  5 active torsions:
REMARK  status: ('A' for Active; 'I' for Inactive)
REMARK    1  A    between atoms: C4_4  and  C5_5 
REMARK    2  A    between atoms: C8_8  and  O9_9 
REMARK    3  A    between atoms: C10_11  and  O11_12 
REMARK    4  A    between atoms: C16_18  and  O17_19 
REMARK    5  A    between atoms: C19_22  and  O20_23 
ROOT
HETATM    1  O1          0      38.322  54.653 -24.805  1.00  0.00    -0.286 OA
HETATM    2  C2          0      37.552  54.464 -23.824  1.00  0.00     0.201 C 
HETATM    3  C3          0      36.879  55.494 -23.189  1.00  0.00     0.067 C 
HETATM    4  C4          0      36.117  55.272 -22.047  1.00  0.00     0.103 C 
HETATM    5  O13         0      36.024  54.041 -21.576  1.00  0.00    -0.307 OA
HETATM    6  C14         0      36.672  53.034 -22.118  1.00  0.00     0.107 C 
HETATM    7  C15         0      36.905  51.855 -21.424  1.00  0.00     0.049 C 
HETATM    8  C16         0      37.799  50.903 -21.898  1.00  0.00     0.093 C 
HETATM    9  C18         0      38.012  50.929 -23.271  1.00  0.00     0.048 C 
HETATM   10  C19         0      37.746  52.078 -24.004  1.00  0.00     0.096 C 
HETATM   11  C21         0      37.254  53.187 -23.372  1.00  0.00     0.084 C 
ENDROOT
BRANCH  10  12
HETATM   12  O20         0      38.352  52.248 -25.245  1.00  0.00    -0.359 OA
HETATM   13  H20         0      39.034  52.904 -25.321  1.00  0.00     0.218 HD
ENDBRANCH  10  12
BRANCH   4  14
HETATM   14  C5          0      35.954  56.395 -21.122  1.00  0.00     0.025 C 
HETATM   15  C6          0      36.879  56.694 -20.133  1.00  0.00     0.004 C 
HETATM   16  C7          0      37.136  58.037 -19.876  1.00  0.00     0.026 C 
HETATM   17  C8          0      36.403  59.050 -20.485  1.00  0.00     0.112 C 
HETATM   18  C10         0      35.145  58.667 -20.931  1.00  0.00     0.112 C 
HETATM   19  C12         0      34.939  57.333 -21.262  1.00  0.00     0.028 C 
BRANCH  17  20
HETATM   20  O9          0      36.992  60.263 -20.795  1.00  0.00    -0.357 OA
HETATM   21  H9          0      37.285  60.889 -20.144  1.00  0.00     0.218 HD
ENDBRANCH  17  20
BRANCH  18  22
HETATM   22  O11         0      34.301  59.676 -21.374  1.00  0.00    -0.357 OA
HETATM   23  H11         0      34.106  60.374 -20.760  1.00  0.00     0.218 HD
ENDBRANCH  18  22
ENDBRANCH   4  14
BRANCH   8  24
HETATM   24  O17         0      38.657  50.215 -21.033  1.00  0.00    -0.359 OA
HETATM   25  H17         0      39.135  50.662 -20.344  1.00  0.00     0.218 HD
ENDBRANCH   8  24
TORSDOF 5
ENDMDL
MODEL 2
REMARK VINA RESULT:      -5.9      9.255     11.755
REMARK  5 active torsions:
REMARK  status: ('A' for Active; 'I' for Inactive)
REMARK    1  A    between atoms: C4_4  and  C5_5 
REMARK    2  A    between atoms: C8_8  and  O9_9 
REMARK    3  A    between atoms: C10_11  and  O11_12 
REMARK    4  A    between atoms: C16_18  and  O17_19 
REMARK    5  A    between atoms: C19_22  and  O20_23 
ROOT
HETATM    1  O1          0      26.333  60.709 -21.296  1.00  0.00    -0.286 OA
HETATM    2  C2          0      26.401  59.579 -21.852  1.00  0.00     0.201 C 
HETATM    3  C3          0      26.040  58.405 -21.214  1.00  0.00     0.067 C 
HETATM    4  C4          0      26.222  57.164 -21.813  1.00  0.00     0.103 C 
HETATM    5  O13         0      26.733  57.116 -23.031  1.00  0.00    -0.307 OA
HETATM    6  C14         0      27.127  58.198 -23.667  1.00  0.00     0.107 C 
HETATM    7  C15         0      28.009  58.136 -24.736  1.00  0.00     0.049 C 
HETATM    8  C16         0      28.617  59.281 -25.237  1.00  0.00     0.093 C 
HETATM    9  C18         0      27.927  60.464 -24.999  1.00  0.00     0.048 C 
HETATM   10  C19         0      27.004  60.546 -23.966  1.00  0.00     0.096 C 
HETATM   11  C21         0      26.757  59.449 -23.186  1.00  0.00     0.084 C 
ENDROOT
BRANCH  10  12
HETATM   12  O20         0      26.656  61.796 -23.462  1.00  0.00    -0.359 OA
HETATM   13  H20         0      27.254  62.213 -22.854  1.00  0.00     0.218 HD
ENDBRANCH  10  12
BRANCH   4  14
HETATM   14  C5          0      26.400  56.012 -20.928  1.00  0.00     0.025 C 
HETATM   15  C6          0      25.342  55.230 -20.488  1.00  0.00     0.004 C 
HETATM   16  C7          0      25.551  53.858 -20.391  1.00  0.00     0.026 C 
HETATM   17  C8          0      26.806  53.295 -20.595  1.00  0.00     0.112 C 
HETATM   18  C10         0      27.870  54.165 -20.397  1.00  0.00     0.112 C 
HETATM   19  C12         0      27.655  55.525 -20.583  1.00  0.00     0.028 C 
BRANCH  17  20
HETATM   20  O9          0      26.937  52.036 -21.153  1.00  0.00    -0.357 OA
HETATM   21  H9          0      26.227  51.574 -21.584  1.00  0.00     0.218 HD
ENDBRANCH  17  20
BRANCH  18  22
HETATM   22  O11         0      29.143  53.612 -20.401  1.00  0.00    -0.357 OA
HETATM   23  H11         0      29.200  52.664 -20.372  1.00  0.00     0.218 HD
ENDBRANCH  18  22
ENDBRANCH   4  14
BRANCH   8  24
HETATM   24  O17         0      29.958  59.279 -25.638  1.00  0.00    -0.359 OA
HETATM   25  H17         0      30.208  59.129 -26.541  1.00  0.00     0.218 HD
ENDBRANCH   8  24
TORSDOF 5
ENDMDL
MODEL 3
REMARK VINA RESULT:      -5.9     10.164     12.726
REMARK  5 active torsions:
REMARK  status: ('A' for Active; 'I' for Inactive)
REMARK    1  A    between atoms: C4_4  and  C5_5 
REMARK    2  A    between atoms: C8_8  and  O9_9 
REMARK    3  A    between atoms: C10_11  and  O11_12 
REMARK    4  A    between atoms: C16_18  and  O17_19 
REMARK    5  A    between atoms: C19_22  and  O20_23 
ROOT
HETATM    1  O1          0      27.724  56.858 -21.659  1.00  0.00    -0.286 OA
HETATM    2  C2          0      26.939  57.107 -22.615  1.00  0.00     0.201 C 
HETATM    3  C3          0      26.599  56.165 -23.571  1.00  0.00     0.067 C 
HETATM    4  C4          0      25.815  56.494 -24.671  1.00  0.00     0.103 C 
HETATM    5  O13         0      25.371  57.733 -24.786  1.00  0.00    -0.307 OA
HETATM    6  C14         0      25.694  58.674 -23.927  1.00  0.00     0.107 C 
HETATM    7  C15         0      25.578  60.021 -24.240  1.00  0.00     0.049 C 
HETATM    8  C16         0      26.153  61.000 -23.439  1.00  0.00     0.093 C 
HETATM    9  C18         0      26.354  60.631 -22.115  1.00  0.00     0.048 C 
HETATM   10  C19         0      26.428  59.291 -21.759  1.00  0.00     0.096 C 
HETATM   11  C21         0      26.285  58.325 -22.718  1.00  0.00     0.084 C 
ENDROOT
BRANCH  10  12
HETATM   12  O20         0      27.048  58.937 -20.564  1.00  0.00    -0.359 OA
HETATM   13  H20         0      26.528  58.486 -19.910  1.00  0.00     0.218 HD
ENDBRANCH  10  12
BRANCH   4  14
HETATM   14  C5          0      25.993  55.693 -25.884  1.00  0.00     0.025 C 
HETATM   15  C6          0      26.531  56.209 -27.054  1.00  0.00     0.004 C 
HETATM   16  C7          0      27.376  55.387 -27.792  1.00  0.00     0.026 C 
HETATM   17  C8          0      27.575  54.053 -27.453  1.00  0.00     0.112 C 
HETATM   18  C10         0      26.552  53.486 -26.704  1.00  0.00     0.112 C 
HETATM   19  C12         0      25.776  54.321 -25.908  1.00  0.00     0.028 C 
BRANCH  17  20
HETATM   20  O9          0      28.795  53.439 -27.676  1.00  0.00    -0.357 OA
HETATM   21  H9          0      29.548  53.882 -28.048  1.00  0.00     0.218 HD
ENDBRANCH  17  20
BRANCH  18  22
HETATM   22  O11         0      26.608  52.115 -26.500  1.00  0.00    -0.357 OA
HETATM   23  H11         0      26.453  51.805 -25.615  1.00  0.00     0.218 HD
ENDBRANCH  18  22
ENDBRANCH   4  14
BRANCH   8  24
HETATM   24  O17         0      26.780  62.121 -23.994  1.00  0.00    -0.359 OA
HETATM   25  H17         0      26.294  62.905 -24.218  1.00  0.00     0.218 HD
ENDBRANCH   8  24
TORSDOF 5
ENDMDL
MODEL 4
REMARK VINA RESULT:      -5.8      2.230      3.625
REMARK  5 active torsions:
REMARK  status: ('A' for Active; 'I' for Inactive)
REMARK    1  A    between atoms: C4_4  and  C5_5 
REMARK    2  A    between atoms: C8_8  and  O9_9 
REMARK    3  A    between atoms: C10_11  and  O11_12 
REMARK    4  A    between atoms: C16_18  and  O17_19 
REMARK    5  A    between atoms: C19_22  and  O20_23 
ROOT
HETATM    1  O1          0      38.222  50.605 -21.423  1.00  0.00    -0.286 OA
HETATM    2  C2          0      37.740  51.693 -21.841  1.00  0.00     0.201 C 
HETATM    3  C3          0      37.161  52.629 -21.001  1.00  0.00     0.067 C 
HETATM    4  C4          0      36.546  53.773 -21.498  1.00  0.00     0.103 C 
HETATM    5  O13         0      36.537  53.971 -22.805  1.00  0.00    -0.307 OA
HETATM    6  C14         0      37.039  53.097 -23.648  1.00  0.00     0.107 C 
HETATM    7  C15         0      36.689  53.092 -24.991  1.00  0.00     0.049 C 
HETATM    8  C16         0      37.016  52.024 -25.818  1.00  0.00     0.093 C 
HETATM    9  C18         0      38.111  51.275 -25.405  1.00  0.00     0.048 C 
HETATM   10  C19         0      38.517  51.293 -24.077  1.00  0.00     0.096 C 
HETATM   11  C21         0      37.844  52.068 -23.172  1.00  0.00     0.084 C 
ENDROOT
BRANCH  10  12
HETATM   12  O20         0      39.296  50.248 -23.590  1.00  0.00    -0.359 OA
HETATM   13  H20         0      38.934  49.708 -22.897  1.00  0.00     0.218 HD
ENDBRANCH  10  12
BRANCH   4  14
HETATM   14  C5          0      35.482  54.367 -20.688  1.00  0.00     0.025 C 
HETATM   15  C6          0      35.666  55.515 -19.930  1.00  0.00     0.004 C 
HETATM   16  C7          0      34.616  56.426 -19.875  1.00  0.00     0.026 C 
HETATM   17  C8          0      33.377  56.147 -20.441  1.00  0.00     0.112 C 
HETATM   18  C10         0      33.102  54.794 -20.596  1.00  0.00     0.112 C 
HETATM   19  C12         0      34.170  53.915 -20.734  1.00  0.00     0.028 C 
BRANCH  17  20
HETATM   20  O9          0      32.604  57.155 -20.988  1.00  0.00    -0.357 OA
HETATM   21  H9          0      32.117  57.066 -21.799  1.00  0.00     0.218 HD
ENDBRANCH  17  20
BRANCH  18  22
HETATM   22  O11         0      31.812  54.455 -20.978  1.00  0.00    -0.357 OA
HETATM   23  H11         0      31.151  54.440 -20.295  1.00  0.00     0.218 HD
ENDBRANCH  18  22
ENDBRANCH   4  14
BRANCH   8  24
HETATM   24  O17         0      36.121  51.549 -26.783  1.00  0.00    -0.359 OA
HETATM   25  H17         0      35.525  52.130 -27.240  1.00  0.00     0.218 HD
ENDBRANCH   8  24
TORSDOF 5
ENDMDL
MODEL 5
REMARK VINA RESULT:      -5.8      2.210      2.503
REMARK  5 active torsions:
REMARK  status: ('A' for Active; 'I' for Inactive)
REMARK    1  A    between atoms: C4_4  and  C5_5 
REMARK    2  A    between atoms: C8_8  and  O9_9 
REMARK    3  A    between atoms: C10_11  and  O11_12 
REMARK    4  A    between atoms: C16_18  and  O17_19 
REMARK    5  A    between atoms: C19_22  and  O20_23 
ROOT
HETATM    1  O1          0      38.983  54.367 -25.231  1.00  0.00    -0.286 OA
HETATM    2  C2          0      37.964  54.105 -24.534  1.00  0.00     0.201 C 
HETATM    3  C3          0      36.977  55.038 -24.267  1.00  0.00     0.067 C 
HETATM    4  C4          0      35.918  54.754 -23.412  1.00  0.00     0.103 C 
HETATM    5  O13         0      35.851  53.555 -22.862  1.00  0.00    -0.307 OA
HETATM    6  C14         0      36.781  52.645 -23.052  1.00  0.00     0.107 C 
HETATM    7  C15         0      36.935  51.567 -22.193  1.00  0.00     0.049 C 
HETATM    8  C16         0      38.063  50.757 -22.246  1.00  0.00     0.093 C 
HETATM    9  C18         0      38.717  50.741 -23.472  1.00  0.00     0.048 C 
HETATM   10  C19         0      38.548  51.781 -24.375  1.00  0.00     0.096 C 
HETATM   11  C21         0      37.719  52.824 -24.063  1.00  0.00     0.084 C 
ENDROOT
BRANCH  10  12
HETATM   12  O20         0      39.502  51.982 -25.368  1.00  0.00    -0.359 OA
HETATM   13  H20         0      39.663  51.274 -25.980  1.00  0.00     0.218 HD
ENDBRANCH  10  12
BRANCH   4  14
HETATM   14  C5          0      35.296  55.884 -22.719  1.00  0.00     0.025 C 
HETATM   15  C6          0      35.006  57.085 -23.350  1.00  0.00     0.004 C 
HETATM   16  C7          0      33.822  57.727 -23.001  1.00  0.00     0.026 C 
HETATM   17  C8          0      33.018  57.262 -21.965  1.00  0.00     0.112 C 
HETATM   18  C10         0      33.678  56.485 -21.023  1.00  0.00     0.112 C 
HETATM   19  C12         0      34.812  55.786 -21.421  1.00  0.00     0.028 C 
BRANCH  17  20
HETATM   20  O9          0      31.643  57.403 -22.017  1.00  0.00    -0.357 OA
HETATM   21  H9          0      31.035  56.816 -21.582  1.00  0.00     0.218 HD
ENDBRANCH  17  20
BRANCH  18  22
HETATM   22  O11         0      32.973  56.154 -19.875  1.00  0.00    -0.357 OA
HETATM   23  H11         0      32.892  56.829 -19.210  1.00  0.00     0.218 HD
ENDBRANCH  18  22
ENDBRANCH   4  14
BRANCH   8  24
HETATM   24  O17         0      38.673  50.279 -21.081  1.00  0.00    -0.359 OA
HETATM   25  H17         0      38.577  50.725 -20.248  1.00  0.00     0.218 HD
ENDBRANCH   8  24
TORSDOF 5
ENDMDL
MODEL 6
REMARK VINA RESULT:      -5.7      9.237     11.526
REMARK  5 active torsions:
REMARK  status: ('A' for Active; 'I' for Inactive)
REMARK    1  A    between atoms: C4_4  and  C5_5 
REMARK    2  A    between atoms: C8_8  and  O9_9 
REMARK    3  A    between atoms: C10_11  and  O11_12 
REMARK    4  A    between atoms: C16_18  and  O17_19 
REMARK    5  A    between atoms: C19_22  and  O20_23 
ROOT
HETATM    1  O1          0      25.557  60.344 -22.438  1.00  0.00    -0.286 OA
HETATM    2  C2          0      26.432  59.459 -22.642  1.00  0.00     0.201 C 
HETATM    3  C3          0      27.380  59.558 -23.646  1.00  0.00     0.067 C 
HETATM    4  C4          0      28.267  58.522 -23.915  1.00  0.00     0.103 C 
HETATM    5  O13         0      28.209  57.428 -23.176  1.00  0.00    -0.307 OA
HETATM    6  C14         0      27.305  57.268 -22.235  1.00  0.00     0.107 C 
HETATM    7  C15         0      26.978  56.013 -21.742  1.00  0.00     0.049 C 
HETATM    8  C16         0      25.857  55.821 -20.943  1.00  0.00     0.093 C 
HETATM    9  C18         0      25.426  56.948 -20.255  1.00  0.00     0.048 C 
HETATM   10  C19         0      25.774  58.219 -20.695  1.00  0.00     0.096 C 
HETATM   11  C21         0      26.561  58.361 -21.805  1.00  0.00     0.084 C 
ENDROOT
BRANCH  10  12
HETATM   12  O20         0      25.011  59.310 -20.291  1.00  0.00    -0.359 OA
HETATM   13  H20         0      25.374  59.886 -19.629  1.00  0.00     0.218 HD
ENDBRANCH  10  12
BRANCH   4  14
HETATM   14  C5          0      28.787  58.422 -25.281  1.00  0.00     0.025 C 
HETATM   15  C6          0      29.856  57.606 -25.621  1.00  0.00     0.004 C 
HETATM   16  C7          0      29.799  56.944 -26.843  1.00  0.00     0.026 C 
HETATM   17  C8          0      28.779  57.187 -27.756  1.00  0.00     0.112 C 
HETATM   18  C10         0      28.156  58.420 -27.616  1.00  0.00     0.112 C 
HETATM   19  C12         0      28.155  59.021 -26.363  1.00  0.00     0.028 C 
BRANCH  17  20
HETATM   20  O9          0      28.309  56.178 -28.579  1.00  0.00    -0.357 OA
HETATM   21  H9          0      28.784  55.849 -29.334  1.00  0.00     0.218 HD
ENDBRANCH  17  20
BRANCH  18  22
HETATM   22  O11         0      27.265  58.791 -28.613  1.00  0.00    -0.357 OA
HETATM   23  H11         0      27.638  59.058 -29.446  1.00  0.00     0.218 HD
ENDBRANCH  18  22
ENDBRANCH   4  14
BRANCH   8  24
HETATM   24  O17         0      25.043  54.692 -21.089  1.00  0.00    -0.359 OA
HETATM   25  H17         0      24.604  54.495 -21.908  1.00  0.00     0.218 HD
ENDBRANCH   8  24
TORSDOF 5
ENDMDL
MODEL 7
REMARK VINA RESULT:      -5.7      7.515      9.470
REMARK  5 active torsions:
REMARK  status: ('A' for Active; 'I' for Inactive)
REMARK    1  A    between atoms: C4_4  and  C5_5 
REMARK    2  A    between atoms: C8_8  and  O9_9 
REMARK    3  A    between atoms: C10_11  and  O11_12 
REMARK    4  A    between atoms: C16_18  and  O17_19 
REMARK    5  A    between atoms: C19_22  and  O20_23 
ROOT
HETATM    1  O1          0      30.126  59.169 -28.915  1.00  0.00    -0.286 OA
HETATM    2  C2          0      30.017  58.752 -27.729  1.00  0.00     0.201 C 
HETATM    3  C3          0      28.803  58.682 -27.067  1.00  0.00     0.067 C 
HETATM    4  C4          0      28.723  58.316 -25.728  1.00  0.00     0.103 C 
HETATM    5  O13         0      29.837  58.009 -25.087  1.00  0.00    -0.307 OA
HETATM    6  C14         0      31.019  58.095 -25.658  1.00  0.00     0.107 C 
HETATM    7  C15         0      32.187  58.168 -24.913  1.00  0.00     0.049 C 
HETATM    8  C16         0      33.398  58.512 -25.501  1.00  0.00     0.093 C 
HETATM    9  C18         0      33.483  58.253 -26.864  1.00  0.00     0.048 C 
HETATM   10  C19         0      32.332  58.127 -27.631  1.00  0.00     0.096 C 
HETATM   11  C21         0      31.105  58.242 -27.038  1.00  0.00     0.084 C 
ENDROOT
BRANCH  10  12
HETATM   12  O20         0      32.411  58.305 -29.009  1.00  0.00    -0.359 OA
HETATM   13  H20         0      32.368  57.533 -29.561  1.00  0.00     0.218 HD
ENDBRANCH  10  12
BRANCH   4  14
HETATM   14  C5          0      27.586  58.826 -24.961  1.00  0.00     0.025 C 
HETATM   15  C6          0      26.894  58.054 -24.039  1.00  0.00     0.004 C 
HETATM   16  C7          0      26.463  58.676 -22.872  1.00  0.00     0.026 C 
HETATM   17  C8          0      26.595  60.048 -22.684  1.00  0.00     0.112 C 
HETATM   18  C10         0      26.696  60.786 -23.856  1.00  0.00     0.112 C 
HETATM   19  C12         0      27.210  60.163 -24.987  1.00  0.00     0.028 C 
BRANCH  17  20
HETATM   20  O9          0      26.820  60.572 -21.424  1.00  0.00    -0.357 OA
HETATM   21  H9          0      26.841  60.050 -20.630  1.00  0.00     0.218 HD
ENDBRANCH  17  20
BRANCH  18  22
HETATM   22  O11         0      26.640  62.167 -23.735  1.00  0.00    -0.357 OA
HETATM   23  H11         0      27.457  62.641 -23.837  1.00  0.00     0.218 HD
ENDBRANCH  18  22
ENDBRANCH   4  14
BRANCH   8  24
HETATM   24  O17         0      34.311  59.352 -24.854  1.00  0.00    -0.359 OA
HETATM   25  H17         0      35.149  59.032 -24.542  1.00  0.00     0.218 HD
ENDBRANCH   8  24
TORSDOF 5
ENDMDL
MODEL 8
REMARK VINA RESULT:      -5.5     10.380     12.505
REMARK  5 active torsions:
REMARK  status: ('A' for Active; 'I' for Inactive)
REMARK    1  A    between atoms: C4_4  and  C5_5 
REMARK    2  A    between atoms: C8_8  and  O9_9 
REMARK    3  A    between atoms: C10_11  and  O11_12 
REMARK    4  A    between atoms: C16_18  and  O17_19 
REMARK    5  A    between atoms: C19_22  and  O20_23 
ROOT
HETATM    1  O1          0      30.513  62.552 -32.721  1.00  0.00    -0.286 OA
HETATM    2  C2          0      31.251  61.838 -31.988  1.00  0.00     0.201 C 
HETATM    3  C3          0      30.821  60.651 -31.419  1.00  0.00     0.067 C 
HETATM    4  C4          0      31.619  59.936 -30.534  1.00  0.00     0.103 C 
HETATM    5  O13         0      32.824  60.399 -30.250  1.00  0.00    -0.307 OA
HETATM    6  C14         0      33.266  61.539 -30.733  1.00  0.00     0.107 C 
HETATM    7  C15         0      34.325  62.219 -30.148  1.00  0.00     0.049 C 
HETATM    8  C16         0      34.623  63.531 -30.499  1.00  0.00     0.093 C 
HETATM    9  C18         0      34.194  63.911 -31.764  1.00  0.00     0.048 C 
HETATM   10  C19         0      33.168  63.224 -32.398  1.00  0.00     0.096 C 
HETATM   11  C21         0      32.585  62.152 -31.779  1.00  0.00     0.084 C 
ENDROOT
BRANCH  10  12
HETATM   12  O20         0      32.463  63.847 -33.424  1.00  0.00    -0.359 OA
HETATM   13  H20         0      32.227  64.759 -33.311  1.00  0.00     0.218 HD
ENDBRANCH  10  12
BRANCH   4  14
HETATM   14  C5          0      30.939  59.092 -29.550  1.00  0.00     0.025 C 
HETATM   15  C6          0      31.500  58.765 -28.324  1.00  0.00     0.004 C 
HETATM   16  C7          0      30.653  58.715 -27.221  1.00  0.00     0.026 C 
HETATM   17  C8          0      29.276  58.853 -27.351  1.00  0.00     0.112 C 
HETATM   18  C10         0      28.779  58.541 -28.610  1.00  0.00     0.112 C 
HETATM   19  C12         0      29.621  58.681 -29.706  1.00  0.00     0.028 C 
BRANCH  17  20
HETATM   20  O9          0      28.526  59.456 -26.357  1.00  0.00    -0.357 OA
HETATM   21  H9          0      27.632  59.213 -26.149  1.00  0.00     0.218 HD
ENDBRANCH  17  20
BRANCH  18  22
HETATM   22  O11         0      27.399  58.479 -28.742  1.00  0.00    -0.357 OA
HETATM   23  H11         0      26.910  59.264 -28.525  1.00  0.00     0.218 HD
ENDBRANCH  18  22
ENDBRANCH   4  14
BRANCH   8  24
HETATM   24  O17         0      35.009  64.472 -29.538  1.00  0.00    -0.359 OA
HETATM   25  H17         0      34.371  64.938 -29.011  1.00  0.00     0.218 HD
ENDBRANCH   8  24
TORSDOF 5
ENDMDL
MODEL 9
REMARK VINA RESULT:      -5.4     10.946     13.194
REMARK  5 active torsions:
REMARK  status: ('A' for Active; 'I' for Inactive)
REMARK    1  A    between atoms: C4_4  and  C5_5 
REMARK    2  A    between atoms: C8_8  and  O9_9 
REMARK    3  A    between atoms: C10_11  and  O11_12 
REMARK    4  A    between atoms: C16_18  and  O17_19 
REMARK    5  A    between atoms: C19_22  and  O20_23 
ROOT
HETATM    1  O1          0      27.146  57.361 -20.850  1.00  0.00    -0.286 OA
HETATM    2  C2          0      26.558  57.447 -21.963  1.00  0.00     0.201 C 
HETATM    3  C3          0      26.181  56.337 -22.699  1.00  0.00     0.067 C 
HETATM    4  C4          0      25.628  56.458 -23.969  1.00  0.00     0.103 C 
HETATM    5  O13         0      25.444  57.668 -24.468  1.00  0.00    -0.307 OA
HETATM    6  C14         0      25.819  58.753 -23.827  1.00  0.00     0.107 C 
HETATM    7  C15         0      26.001  59.963 -24.482  1.00  0.00     0.049 C 
HETATM    8  C16         0      26.636  61.031 -23.860  1.00  0.00     0.093 C 
HETATM    9  C18         0      26.584  61.018 -22.471  1.00  0.00     0.048 C 
HETATM   10  C19         0      26.356  59.832 -21.785  1.00  0.00     0.096 C 
HETATM   11  C21         0      26.165  58.671 -22.482  1.00  0.00     0.084 C 
ENDROOT
BRANCH  10  12
HETATM   12  O20         0      26.731  59.737 -20.449  1.00  0.00    -0.359 OA
HETATM   13  H20         0      27.378  59.083 -20.214  1.00  0.00     0.218 HD
ENDBRANCH  10  12
BRANCH   4  14
HETATM   14  C5          0      25.814  55.336 -24.891  1.00  0.00     0.025 C 
HETATM   15  C6          0      25.838  54.014 -24.471  1.00  0.00     0.004 C 
HETATM   16  C7          0      25.230  53.067 -25.290  1.00  0.00     0.026 C 
HETATM   17  C8          0      24.734  53.400 -26.546  1.00  0.00     0.112 C 
HETATM   18  C10         0      25.306  54.530 -27.115  1.00  0.00     0.112 C 
HETATM   19  C12         0      25.830  55.501 -26.270  1.00  0.00     0.028 C 
BRANCH  17  20
HETATM   20  O9          0      23.618  52.762 -27.058  1.00  0.00    -0.357 OA
HETATM   21  H9          0      23.166  53.042 -27.846  1.00  0.00     0.218 HD
ENDBRANCH  17  20
BRANCH  18  22
HETATM   22  O11         0      24.987  54.797 -28.438  1.00  0.00    -0.357 OA
HETATM   23  H11         0      24.613  54.084 -28.943  1.00  0.00     0.218 HD
ENDBRANCH  18  22
ENDBRANCH   4  14
BRANCH   8  24
HETATM   24  O17         0      27.532  61.851 -24.555  1.00  0.00    -0.359 OA
HETATM   25  H17         0      28.461  61.658 -24.590  1.00  0.00     0.218 HD
ENDBRANCH   8  24
TORSDOF 5
ENDMDL
