MODEL 1
REMARK VINA RESULT:      -5.8      0.000      0.000
REMARK  5 active torsions:
REMARK  status: ('A' for Active; 'I' for Inactive)
REMARK    1  A    between atoms: C4_4  and  C5_5 
REMARK    2  A    between atoms: C8_8  and  O9_9 
REMARK    3  A    between atoms: C10_11  and  O11_12 
REMARK    4  A    between atoms: C16_18  and  O17_19 
REMARK    5  A    between atoms: C19_22  and  O20_23 
ROOT
HETATM    1  O1          0      46.181  15.892   8.383  1.00  0.00    -0.286 OA
HETATM    2  C2          0      46.533  16.343   7.259  1.00  0.00     0.201 C 
HETATM    3  C3          0      46.202  17.615   6.824  1.00  0.00     0.067 C 
HETATM    4  C4          0      46.514  18.050   5.541  1.00  0.00     0.103 C 
HETATM    5  O13         0      47.161  17.230   4.732  1.00  0.00    -0.307 OA
HETATM    6  C14         0      47.467  16.000   5.082  1.00  0.00     0.107 C 
HETATM    7  C15         0      47.771  15.026   4.142  1.00  0.00     0.049 C 
HETATM    8  C16         0      47.841  13.683   4.491  1.00  0.00     0.093 C 
HETATM    9  C18         0      48.123  13.438   5.829  1.00  0.00     0.048 C 
HETATM   10  C19         0      47.875  14.408   6.791  1.00  0.00     0.096 C 
HETATM   11  C21         0      47.364  15.621   6.416  1.00  0.00     0.084 C 
ENDROOT
BRANCH  10  12
HETATM   12  O20         0      47.740  14.027   8.123  1.00  0.00    -0.359 OA
HETATM   13  H20         0      48.511  14.062   8.676  1.00  0.00     0.218 HD
ENDBRANCH  10  12
BRANCH   4  14
HETATM   14  C5          0      45.658  19.085   4.958  1.00  0.00     0.025 C 
HETATM   15  C6          0      44.975  18.910   3.763  1.00  0.00     0.004 C 
HETATM   16  C7          0      43.693  19.443   3.669  1.00  0.00     0.026 C 
HETATM   17  C8          0      43.158  20.239   4.676  1.00  0.00     0.112 C 
HETATM   18  C10         0      44.100  20.859   5.487  1.00  0.00     0.112 C 
HETATM   19  C12         0      45.345  20.259   5.630  1.00  0.00     0.028 C 
BRANCH  17  20
HETATM   20  O9          0      41.802  20.218   4.951  1.00  0.00    -0.357 OA
HETATM   21  H9          0      41.158  19.794   4.397  1.00  0.00     0.218 HD
ENDBRANCH  17  20
BRANCH  18  22
HETATM   22  O11         0      43.630  21.808   6.383  1.00  0.00    -0.357 OA
HETATM   23  H11         0      42.767  22.169   6.215  1.00  0.00     0.218 HD
ENDBRANCH  18  22
ENDBRANCH   4  14
BRANCH   8  24
HETATM   24  O17         0      47.338  12.684   3.650  1.00  0.00    -0.359 OA
HETATM   25  H17         0      47.182  12.841   2.727  1.00  0.00     0.218 HD
ENDBRANCH   8  24
TORSDOF 5
ENDMDL
MODEL 2
REMARK VINA RESULT:      -5.8      2.173      3.740
REMARK  5 active torsions:
REMARK  status: ('A' for Active; 'I' for Inactive)
REMARK    1  A    between atoms: C4_4  and  C5_5 
REMARK    2  A    between atoms: C8_8  and  O9_9 
REMARK    3  A    between atoms: C10_11  and  O11_12 
REMARK    4  A    between atoms: C16_18  and  O17_19 
REMARK    5  A    between atoms: C19_22  and  O20_23 
ROOT
HETATM    1  O1          0      47.319  17.661   0.847  1.00  0.00    -0.286 OA
HETATM    2  C2          0      46.712  17.463   1.934  1.00  0.00     0.201 C 
HETATM    3  C3          0      45.670  18.264   2.368  1.00  0.00     0.067 C 
HETATM    4  C4          0      45.085  18.086   3.617  1.00  0.00     0.103 C 
HETATM    5  O13         0      45.529  17.113   4.393  1.00  0.00    -0.307 OA
HETATM    6  C14         0      46.540  16.348   4.045  1.00  0.00     0.107 C 
HETATM    7  C15         0      47.259  15.616   4.979  1.00  0.00     0.049 C 
HETATM    8  C16         0      48.469  15.017   4.651  1.00  0.00     0.093 C 
HETATM    9  C18         0      48.639  14.737   3.301  1.00  0.00     0.048 C 
HETATM   10  C19         0      47.902  15.418   2.341  1.00  0.00     0.096 C 
HETATM   11  C21         0      46.990  16.361   2.729  1.00  0.00     0.084 C 
ENDROOT
BRANCH  10  12
HETATM   12  O20         0      48.366  15.459   1.030  1.00  0.00    -0.359 OA
HETATM   13  H20         0      48.393  16.302   0.594  1.00  0.00     0.218 HD
ENDBRANCH  10  12
BRANCH   4  14
HETATM   14  C5          0      44.467  19.258   4.241  1.00  0.00     0.025 C 
HETATM   15  C6          0      45.138  20.071   5.143  1.00  0.00     0.004 C 
HETATM   16  C7          0      44.907  21.441   5.072  1.00  0.00     0.026 C 
HETATM   17  C8          0      43.942  21.975   4.224  1.00  0.00     0.112 C 
HETATM   18  C10         0      42.933  21.091   3.864  1.00  0.00     0.112 C 
HETATM   19  C12         0      43.217  19.730   3.862  1.00  0.00     0.028 C 
BRANCH  17  20
HETATM   20  O9          0      44.121  23.216   3.639  1.00  0.00    -0.357 OA
HETATM   21  H9          0      44.589  23.932   4.052  1.00  0.00     0.218 HD
ENDBRANCH  17  20
BRANCH  18  22
HETATM   22  O11         0      41.850  21.620   3.177  1.00  0.00    -0.357 OA
HETATM   23  H11         0      41.343  21.018   2.644  1.00  0.00     0.218 HD
ENDBRANCH  18  22
ENDBRANCH   4  14
BRANCH   8  24
HETATM   24  O17         0      49.547  15.014   5.544  1.00  0.00    -0.359 OA
HETATM   25  H17         0      49.720  15.750   6.119  1.00  0.00     0.218 HD
ENDBRANCH   8  24
TORSDOF 5
ENDMDL
MODEL 3
REMARK VINA RESULT:      -5.7      4.950      7.677
REMARK  5 active torsions:
REMARK  status: ('A' for Active; 'I' for Inactive)
REMARK    1  A    between atoms: C4_4  and  C5_5 
REMARK    2  A    between atoms: C8_8  and  O9_9 
REMARK    3  A    between atoms: C10_11  and  O11_12 
REMARK    4  A    between atoms: C16_18  and  O17_19 
REMARK    5  A    between atoms: C19_22  and  O20_23 
ROOT
HETATM    1  O1          0      44.925  22.240   5.061  1.00  0.00    -0.286 OA
HETATM    2  C2          0      44.272  22.301   3.983  1.00  0.00     0.201 C 
HETATM    3  C3          0      43.881  23.499   3.409  1.00  0.00     0.067 C 
HETATM    4  C4          0      43.075  23.536   2.278  1.00  0.00     0.103 C 
HETATM    5  O13         0      42.693  22.394   1.733  1.00  0.00    -0.307 OA
HETATM    6  C14         0      43.005  21.230   2.259  1.00  0.00     0.107 C 
HETATM    7  C15         0      42.301  20.075   1.948  1.00  0.00     0.049 C 
HETATM    8  C16         0      42.463  18.910   2.688  1.00  0.00     0.093 C 
HETATM    9  C18         0      43.679  18.800   3.351  1.00  0.00     0.048 C 
HETATM   10  C19         0      44.431  19.931   3.637  1.00  0.00     0.096 C 
HETATM   11  C21         0      43.980  21.163   3.248  1.00  0.00     0.084 C 
ENDROOT
BRANCH  10  12
HETATM   12  O20         0      45.386  19.875   4.648  1.00  0.00    -0.359 OA
HETATM   13  H20         0      46.282  20.100   4.427  1.00  0.00     0.218 HD
ENDBRANCH  10  12
BRANCH   4  14
HETATM   14  C5          0      42.235  24.720   2.092  1.00  0.00     0.025 C 
HETATM   15  C6          0      42.169  25.748   3.021  1.00  0.00     0.004 C 
HETATM   16  C7          0      42.083  27.050   2.537  1.00  0.00     0.026 C 
HETATM   17  C8          0      41.933  27.316   1.181  1.00  0.00     0.112 C 
HETATM   18  C10         0      41.386  26.274   0.443  1.00  0.00     0.112 C 
HETATM   19  C12         0      41.559  24.975   0.905  1.00  0.00     0.028 C 
BRANCH  17  20
HETATM   20  O9          0      42.490  28.448   0.614  1.00  0.00    -0.357 OA
HETATM   21  H9          0      43.309  28.449   0.132  1.00  0.00     0.218 HD
ENDBRANCH  17  20
BRANCH  18  22
HETATM   22  O11         0      41.040  26.550  -0.872  1.00  0.00    -0.357 OA
HETATM   23  H11         0      40.780  27.442  -1.071  1.00  0.00     0.218 HD
ENDBRANCH  18  22
ENDBRANCH   4  14
BRANCH   8  24
HETATM   24  O17         0      41.373  18.093   3.008  1.00  0.00    -0.359 OA
HETATM   25  H17         0      40.739  18.343   3.669  1.00  0.00     0.218 HD
ENDBRANCH   8  24
TORSDOF 5
ENDMDL
MODEL 4
REMARK VINA RESULT:      -5.7     10.114     12.601
REMARK  5 active torsions:
REMARK  status: ('A' for Active; 'I' for Inactive)
REMARK    1  A    between atoms: C4_4  and  C5_5 
REMARK    2  A    between atoms: C8_8  and  O9_9 
REMARK    3  A    between atoms: C10_11  and  O11_12 
REMARK    4  A    between atoms: C16_18  and  O17_19 
REMARK    5  A    between atoms: C19_22  and  O20_23 
ROOT
HETATM    1  O1          0      40.932  22.579   0.415  1.00  0.00    -0.286 OA
HETATM    2  C2          0      40.866  23.710  -0.139  1.00  0.00     0.201 C 
HETATM    3  C3          0      40.669  23.869  -1.501  1.00  0.00     0.067 C 
HETATM    4  C4          0      40.703  25.123  -2.100  1.00  0.00     0.103 C 
HETATM    5  O13         0      40.911  26.184  -1.341  1.00  0.00    -0.307 OA
HETATM    6  C14         0      41.142  26.086  -0.050  1.00  0.00     0.107 C 
HETATM    7  C15         0      41.743  27.112   0.665  1.00  0.00     0.049 C 
HETATM    8  C16         0      42.214  26.911   1.957  1.00  0.00     0.093 C 
HETATM    9  C18         0      41.600  25.875   2.651  1.00  0.00     0.048 C 
HETATM   10  C19         0      40.948  24.857   1.968  1.00  0.00     0.096 C 
HETATM   11  C21         0      40.895  24.882   0.601  1.00  0.00     0.084 C 
ENDROOT
BRANCH  10  12
HETATM   12  O20         0      40.729  23.641   2.607  1.00  0.00    -0.359 OA
HETATM   13  H20         0      40.619  22.868   2.067  1.00  0.00     0.218 HD
ENDBRANCH  10  12
BRANCH   4  14
HETATM   14  C5          0      41.088  25.180  -3.512  1.00  0.00     0.025 C 
HETATM   15  C6          0      40.852  26.288  -4.312  1.00  0.00     0.004 C 
HETATM   16  C7          0      41.831  26.635  -5.238  1.00  0.00     0.026 C 
HETATM   17  C8          0      42.945  25.832  -5.457  1.00  0.00     0.112 C 
HETATM   18  C10         0      42.777  24.500  -5.105  1.00  0.00     0.112 C 
HETATM   19  C12         0      41.852  24.189  -4.115  1.00  0.00     0.028 C 
BRANCH  17  20
HETATM   20  O9          0      44.165  26.390  -5.795  1.00  0.00    -0.357 OA
HETATM   21  H9          0      45.001  25.967  -5.637  1.00  0.00     0.218 HD
ENDBRANCH  17  20
BRANCH  18  22
HETATM   22  O11         0      43.785  23.620  -5.476  1.00  0.00    -0.357 OA
HETATM   23  H11         0      43.572  22.694  -5.469  1.00  0.00     0.218 HD
ENDBRANCH  18  22
ENDBRANCH   4  14
BRANCH   8  24
HETATM   24  O17         0      43.421  27.472   2.389  1.00  0.00    -0.359 OA
HETATM   25  H17         0      43.482  27.957   3.203  1.00  0.00     0.218 HD
ENDBRANCH   8  24
TORSDOF 5
ENDMDL
MODEL 5
REMARK VINA RESULT:      -5.6      5.266     10.128
REMARK  5 active torsions:
REMARK  status: ('A' for Active; 'I' for Inactive)
REMARK    1  A    between atoms: C4_4  and  C5_5 
REMARK    2  A    between atoms: C8_8  and  O9_9 
REMARK    3  A    between atoms: C10_11  and  O11_12 
REMARK    4  A    between atoms: C16_18  and  O17_19 
REMARK    5  A    between atoms: C19_22  and  O20_23 
ROOT
HETATM    1  O1          0      44.800  25.325   2.643  1.00  0.00    -0.286 OA
HETATM    2  C2          0      43.721  24.702   2.442  1.00  0.00     0.201 C 
HETATM    3  C3          0      43.574  23.351   2.707  1.00  0.00     0.067 C 
HETATM    4  C4          0      42.408  22.668   2.381  1.00  0.00     0.103 C 
HETATM    5  O13         0      41.415  23.337   1.823  1.00  0.00    -0.307 OA
HETATM    6  C14         0      41.516  24.612   1.516  1.00  0.00     0.107 C 
HETATM    7  C15         0      40.670  25.211   0.595  1.00  0.00     0.049 C 
HETATM    8  C16         0      40.936  26.477   0.087  1.00  0.00     0.093 C 
HETATM    9  C18         0      41.727  27.281   0.899  1.00  0.00     0.048 C 
HETATM   10  C19         0      42.551  26.717   1.863  1.00  0.00     0.096 C 
HETATM   11  C21         0      42.573  25.358   2.027  1.00  0.00     0.084 C 
ENDROOT
BRANCH  10  12
HETATM   12  O20         0      43.627  27.450   2.352  1.00  0.00    -0.359 OA
HETATM   13  H20         0      43.443  28.263   2.807  1.00  0.00     0.218 HD
ENDBRANCH  10  12
BRANCH   4  14
HETATM   14  C5          0      42.525  21.232   2.120  1.00  0.00     0.025 C 
HETATM   15  C6          0      42.520  20.697   0.840  1.00  0.00     0.004 C 
HETATM   16  C7          0      43.370  19.626   0.586  1.00  0.00     0.026 C 
HETATM   17  C8          0      44.101  19.018   1.600  1.00  0.00     0.112 C 
HETATM   18  C10         0      43.576  19.188   2.875  1.00  0.00     0.112 C 
HETATM   19  C12         0      42.799  20.312   3.125  1.00  0.00     0.028 C 
BRANCH  17  20
HETATM   20  O9          0      45.352  18.483   1.350  1.00  0.00    -0.357 OA
HETATM   21  H9          0      45.515  17.554   1.231  1.00  0.00     0.218 HD
ENDBRANCH  17  20
BRANCH  18  22
HETATM   22  O11         0      44.156  18.449   3.897  1.00  0.00    -0.357 OA
HETATM   23  H11         0      43.574  18.111   4.567  1.00  0.00     0.218 HD
ENDBRANCH  18  22
ENDBRANCH   4  14
BRANCH   8  24
HETATM   24  O17         0      40.717  26.782  -1.261  1.00  0.00    -0.359 OA
HETATM   25  H17         0      41.078  27.565  -1.660  1.00  0.00     0.218 HD
ENDBRANCH   8  24
TORSDOF 5
ENDMDL
MODEL 6
REMARK VINA RESULT:      -5.6      2.401      3.555
REMARK  5 active torsions:
REMARK  status: ('A' for Active; 'I' for Inactive)
REMARK    1  A    between atoms: C4_4  and  C5_5 
REMARK    2  A    between atoms: C8_8  and  O9_9 
REMARK    3  A    between atoms: C10_11  and  O11_12 
REMARK    4  A    between atoms: C16_18  and  O17_19 
REMARK    5  A    between atoms: C19_22  and  O20_23 
ROOT
HETATM    1  O1          0      46.765  15.172   4.871  1.00  0.00    -0.286 OA
HETATM    2  C2          0      46.627  16.275   4.275  1.00  0.00     0.201 C 
HETATM    3  C3          0      46.144  17.411   4.902  1.00  0.00     0.067 C 
HETATM    4  C4          0      45.904  18.586   4.198  1.00  0.00     0.103 C 
HETATM    5  O13         0      46.166  18.614   2.903  1.00  0.00    -0.307 OA
HETATM    6  C14         0      46.590  17.553   2.252  1.00  0.00     0.107 C 
HETATM    7  C15         0      46.485  17.451   0.872  1.00  0.00     0.049 C 
HETATM    8  C16         0      46.694  16.242   0.219  1.00  0.00     0.093 C 
HETATM    9  C18         0      47.498  15.338   0.902  1.00  0.00     0.048 C 
HETATM   10  C19         0      47.663  15.439   2.277  1.00  0.00     0.096 C 
HETATM   11  C21         0      47.042  16.447   2.963  1.00  0.00     0.084 C 
ENDROOT
BRANCH  10  12
HETATM   12  O20         0      48.084  14.324   2.995  1.00  0.00    -0.359 OA
HETATM   13  H20         0      47.460  13.908   3.578  1.00  0.00     0.218 HD
ENDBRANCH  10  12
BRANCH   4  14
HETATM   14  C5          0      44.883  19.489   4.730  1.00  0.00     0.025 C 
HETATM   15  C6          0      45.139  20.397   5.748  1.00  0.00     0.004 C 
HETATM   16  C7          0      44.533  21.647   5.664  1.00  0.00     0.026 C 
HETATM   17  C8          0      43.599  21.940   4.676  1.00  0.00     0.112 C 
HETATM   18  C10         0      42.960  20.832   4.135  1.00  0.00     0.112 C 
HETATM   19  C12         0      43.624  19.611   4.156  1.00  0.00     0.028 C 
BRANCH  17  20
HETATM   20  O9          0      43.497  23.217   4.154  1.00  0.00    -0.357 OA
HETATM   21  H9          0      44.104  23.920   4.355  1.00  0.00     0.218 HD
ENDBRANCH  17  20
BRANCH  18  22
HETATM   22  O11         0      41.890  21.076   3.286  1.00  0.00    -0.357 OA
HETATM   23  H11         0      42.051  20.984   2.354  1.00  0.00     0.218 HD
ENDBRANCH  18  22
ENDBRANCH   4  14
BRANCH   8  24
HETATM   24  O17         0      45.893  15.847  -0.858  1.00  0.00    -0.359 OA
HETATM   25  H17         0      46.261  15.425  -1.625  1.00  0.00     0.218 HD
ENDBRANCH   8  24
TORSDOF 5
ENDMDL
MODEL 7
REMARK VINA RESULT:      -5.6      4.841      6.804
REMARK  5 active torsions:
REMARK  status: ('A' for Active; 'I' for Inactive)
REMARK    1  A    between atoms: C4_4  and  C5_5 
REMARK    2  A    between atoms: C8_8  and  O9_9 
REMARK    3  A    between atoms: C10_11  and  O11_12 
REMARK    4  A    between atoms: C16_18  and  O17_19 
REMARK    5  A    between atoms: C19_22  and  O20_23 
ROOT
HETATM    1  O1          0      44.238  16.590  -1.499  1.00  0.00    -0.286 OA
HETATM    2  C2          0      45.105  17.088  -0.730  1.00  0.00     0.201 C 
HETATM    3  C3          0      44.938  17.159   0.643  1.00  0.00     0.067 C 
HETATM    4  C4          0      45.861  17.805   1.457  1.00  0.00     0.103 C 
HETATM    5  O13         0      46.931  18.344   0.899  1.00  0.00    -0.307 OA
HETATM    6  C14         0      47.119  18.339  -0.402  1.00  0.00     0.107 C 
HETATM    7  C15         0      47.995  19.221  -1.018  1.00  0.00     0.049 C 
HETATM    8  C16         0      48.002  19.386  -2.398  1.00  0.00     0.093 C 
HETATM    9  C18         0      47.518  18.302  -3.121  1.00  0.00     0.048 C 
HETATM   10  C19         0      46.677  17.374  -2.522  1.00  0.00     0.096 C 
HETATM   11  C21         0      46.335  17.518  -1.205  1.00  0.00     0.084 C 
ENDROOT
BRANCH  10  12
HETATM   12  O20         0      45.867  16.574  -3.323  1.00  0.00    -0.359 OA
HETATM   13  H20         0      45.739  16.834  -4.227  1.00  0.00     0.218 HD
ENDBRANCH  10  12
BRANCH   4  14
HETATM   14  C5          0      45.368  18.360   2.719  1.00  0.00     0.025 C 
HETATM   15  C6          0      46.088  18.290   3.903  1.00  0.00     0.004 C 
HETATM   16  C7          0      46.043  19.392   4.751  1.00  0.00     0.026 C 
HETATM   17  C8          0      45.206  20.473   4.497  1.00  0.00     0.112 C 
HETATM   18  C10         0      44.112  20.183   3.693  1.00  0.00     0.112 C 
HETATM   19  C12         0      44.214  19.129   2.794  1.00  0.00     0.028 C 
BRANCH  17  20
HETATM   20  O9          0      45.578  21.757   4.855  1.00  0.00    -0.357 OA
HETATM   21  H9          0      46.282  22.238   4.435  1.00  0.00     0.218 HD
ENDBRANCH  17  20
BRANCH  18  22
HETATM   22  O11         0      43.147  21.173   3.564  1.00  0.00    -0.357 OA
HETATM   23  H11         0      42.852  21.373   2.683  1.00  0.00     0.218 HD
ENDBRANCH  18  22
ENDBRANCH   4  14
BRANCH   8  24
HETATM   24  O17         0      48.159  20.648  -2.981  1.00  0.00    -0.359 OA
HETATM   25  H17         0      49.018  21.010  -3.162  1.00  0.00     0.218 HD
ENDBRANCH   8  24
TORSDOF 5
ENDMDL
MODEL 8
REMARK VINA RESULT:      -5.5      4.823      6.947
REMARK  5 active torsions:
REMARK  status: ('A' for Active; 'I' for Inactive)
REMARK    1  A    between atoms: C4_4  and  C5_5 
REMARK    2  A    between atoms: C8_8  and  O9_9 
REMARK    3  A    between atoms: C10_11  and  O11_12 
REMARK    4  A    between atoms: C16_18  and  O17_19 
REMARK    5  A    between atoms: C19_22  and  O20_23 
ROOT
HETATM    1  O1          0      44.533  16.115  -1.373  1.00  0.00    -0.286 OA
HETATM    2  C2          0      45.440  16.577  -0.628  1.00  0.00     0.201 C 
HETATM    3  C3          0      45.466  16.368   0.741  1.00  0.00     0.067 C 
HETATM    4  C4          0      46.419  16.973   1.552  1.00  0.00     0.103 C 
HETATM    5  O13         0      47.329  17.750   0.991  1.00  0.00    -0.307 OA
HETATM    6  C14         0      47.327  18.012  -0.297  1.00  0.00     0.107 C 
HETATM    7  C15         0      47.999  19.106  -0.822  1.00  0.00     0.049 C 
HETATM    8  C16         0      47.788  19.523  -2.131  1.00  0.00     0.093 C 
HETATM    9  C18         0      47.329  18.536  -2.995  1.00  0.00     0.048 C 
HETATM   10  C19         0      46.693  17.406  -2.500  1.00  0.00     0.096 C 
HETATM   11  C21         0      46.532  17.254  -1.150  1.00  0.00     0.084 C 
ENDROOT
BRANCH  10  12
HETATM   12  O20         0      45.872  16.664  -3.343  1.00  0.00    -0.359 OA
HETATM   13  H20         0      45.007  16.428  -3.028  1.00  0.00     0.218 HD
ENDBRANCH  10  12
BRANCH   4  14
HETATM   14  C5          0      46.055  17.211   2.950  1.00  0.00     0.025 C 
HETATM   15  C6          0      46.182  16.242   3.935  1.00  0.00     0.004 C 
HETATM   16  C7          0      46.606  16.654   5.194  1.00  0.00     0.026 C 
HETATM   17  C8          0      46.770  18.000   5.504  1.00  0.00     0.112 C 
HETATM   18  C10         0      46.036  18.871   4.710  1.00  0.00     0.112 C 
HETATM   19  C12         0      45.698  18.466   3.424  1.00  0.00     0.028 C 
BRANCH  17  20
HETATM   20  O9          0      47.750  18.410   6.390  1.00  0.00    -0.357 OA
HETATM   21  H9          0      47.753  19.258   6.820  1.00  0.00     0.218 HD
ENDBRANCH  17  20
BRANCH  18  22
HETATM   22  O11         0      46.014  20.204   5.094  1.00  0.00    -0.357 OA
HETATM   23  H11         0      45.216  20.690   4.916  1.00  0.00     0.218 HD
ENDBRANCH  18  22
ENDBRANCH   4  14
BRANCH   8  24
HETATM   24  O17         0      47.716  20.881  -2.461  1.00  0.00    -0.359 OA
HETATM   25  H17         0      47.269  21.507  -1.903  1.00  0.00     0.218 HD
ENDBRANCH   8  24
TORSDOF 5
ENDMDL
MODEL 9
REMARK VINA RESULT:      -5.4      2.669      6.528
REMARK  5 active torsions:
REMARK  status: ('A' for Active; 'I' for Inactive)
REMARK    1  A    between atoms: C4_4  and  C5_5 
REMARK    2  A    between atoms: C8_8  and  O9_9 
REMARK    3  A    between atoms: C10_11  and  O11_12 
REMARK    4  A    between atoms: C16_18  and  O17_19 
REMARK    5  A    between atoms: C19_22  and  O20_23 
ROOT
HETATM    1  O1          0      46.828  18.999   5.547  1.00  0.00    -0.286 OA
HETATM    2  C2          0      46.793  17.748   5.383  1.00  0.00     0.201 C 
HETATM    3  C3          0      46.905  16.850   6.430  1.00  0.00     0.067 C 
HETATM    4  C4          0      46.967  15.479   6.211  1.00  0.00     0.103 C 
HETATM    5  O13         0      46.895  15.031   4.970  1.00  0.00    -0.307 OA
HETATM    6  C14         0      46.825  15.841   3.937  1.00  0.00     0.107 C 
HETATM    7  C15         0      47.149  15.421   2.654  1.00  0.00     0.049 C 
HETATM    8  C16         0      47.320  16.332   1.619  1.00  0.00     0.093 C 
HETATM    9  C18         0      46.657  17.541   1.784  1.00  0.00     0.048 C 
HETATM   10  C19         0      46.277  17.970   3.049  1.00  0.00     0.096 C 
HETATM   11  C21         0      46.543  17.188   4.139  1.00  0.00     0.084 C 
ENDROOT
BRANCH  10  12
HETATM   12  O20         0      46.024  19.322   3.261  1.00  0.00    -0.359 OA
HETATM   13  H20         0      46.614  19.800   3.831  1.00  0.00     0.218 HD
ENDBRANCH  10  12
BRANCH   4  14
HETATM   14  C5          0      47.664  14.670   7.212  1.00  0.00     0.025 C 
HETATM   15  C6          0      47.012  14.065   8.277  1.00  0.00     0.004 C 
HETATM   16  C7          0      47.440  12.796   8.657  1.00  0.00     0.026 C 
HETATM   17  C8          0      48.563  12.204   8.089  1.00  0.00     0.112 C 
HETATM   18  C10         0      49.473  13.097   7.539  1.00  0.00     0.112 C 
HETATM   19  C12         0      49.004  14.325   7.089  1.00  0.00     0.028 C 
BRANCH  17  20
HETATM   20  O9          0      48.629  10.833   7.914  1.00  0.00    -0.357 OA
HETATM   21  H9          0      49.167  10.411   7.254  1.00  0.00     0.218 HD
ENDBRANCH  17  20
BRANCH  18  22
HETATM   22  O11         0      50.693  12.578   7.130  1.00  0.00    -0.357 OA
HETATM   23  H11         0      51.300  12.317   7.813  1.00  0.00     0.218 HD
ENDBRANCH  18  22
ENDBRANCH   4  14
BRANCH   8  24
HETATM   24  O17         0      48.338  16.174   0.671  1.00  0.00    -0.359 OA
HETATM   25  H17         0      48.663  15.316   0.426  1.00  0.00     0.218 HD
ENDBRANCH   8  24
TORSDOF 5
ENDMDL
