MODEL 1
REMARK VINA RESULT:      -6.3      0.000      0.000
REMARK  5 active torsions:
REMARK  status: ('A' for Active; 'I' for Inactive)
REMARK    1  A    between atoms: C4_4  and  C5_5 
REMARK    2  A    between atoms: C8_8  and  O9_9 
REMARK    3  A    between atoms: C10_11  and  O11_12 
REMARK    4  A    between atoms: C16_18  and  O17_19 
REMARK    5  A    between atoms: C19_22  and  O20_23 
ROOT
HETATM    1  O1          0      65.478  48.620   4.487  1.00  0.00    -0.286 OA
HETATM    2  C2          0      66.609  48.467   5.025  1.00  0.00     0.201 C 
HETATM    3  C3          0      67.432  47.388   4.747  1.00  0.00     0.067 C 
HETATM    4  C4          0      68.627  47.189   5.430  1.00  0.00     0.103 C 
HETATM    5  O13         0      68.986  48.066   6.350  1.00  0.00    -0.307 OA
HETATM    6  C14         0      68.225  49.087   6.678  1.00  0.00     0.107 C 
HETATM    7  C15         0      68.386  49.763   7.879  1.00  0.00     0.049 C 
HETATM    8  C16         0      67.431  50.663   8.335  1.00  0.00     0.093 C 
HETATM    9  C18         0      66.638  51.230   7.343  1.00  0.00     0.048 C 
HETATM   10  C19         0      66.492  50.604   6.113  1.00  0.00     0.096 C 
HETATM   11  C21         0      67.147  49.427   5.868  1.00  0.00     0.084 C 
ENDROOT
BRANCH  10  12
HETATM   12  O20         0      65.397  50.919   5.315  1.00  0.00    -0.359 OA
HETATM   13  H20         0      64.709  50.271   5.226  1.00  0.00     0.218 HD
ENDBRANCH  10  12
BRANCH   4  14
HETATM   14  C5          0      69.113  45.812   5.540  1.00  0.00     0.025 C 
HETATM   15  C6          0      69.407  45.214   6.757  1.00  0.00     0.004 C 
HETATM   16  C7          0      69.075  43.872   6.912  1.00  0.00     0.026 C 
HETATM   17  C8          0      68.592  43.113   5.852  1.00  0.00     0.112 C 
HETATM   18  C10         0      68.930  43.593   4.594  1.00  0.00     0.112 C 
HETATM   19  C12         0      69.173  44.954   4.450  1.00  0.00     0.028 C 
BRANCH  17  20
HETATM   20  O9          0      67.679  42.096   6.066  1.00  0.00    -0.357 OA
HETATM   21  H9          0      67.732  41.482   6.790  1.00  0.00     0.218 HD
ENDBRANCH  17  20
BRANCH  18  22
HETATM   22  O11         0      68.638  42.777   3.510  1.00  0.00    -0.357 OA
HETATM   23  H11         0      69.029  43.013   2.676  1.00  0.00     0.218 HD
ENDBRANCH  18  22
ENDBRANCH   4  14
BRANCH   8  24
HETATM   24  O17         0      67.076  50.729   9.687  1.00  0.00    -0.359 OA
HETATM   25  H17         0      67.676  50.461  10.373  1.00  0.00     0.218 HD
ENDBRANCH   8  24
TORSDOF 5
ENDMDL
MODEL 2
REMARK VINA RESULT:      -6.0      1.811      6.899
REMARK  5 active torsions:
REMARK  status: ('A' for Active; 'I' for Inactive)
REMARK    1  A    between atoms: C4_4  and  C5_5 
REMARK    2  A    between atoms: C8_8  and  O9_9 
REMARK    3  A    between atoms: C10_11  and  O11_12 
REMARK    4  A    between atoms: C16_18  and  O17_19 
REMARK    5  A    between atoms: C19_22  and  O20_23 
ROOT
HETATM    1  O1          0      70.753  45.591   9.249  1.00  0.00    -0.286 OA
HETATM    2  C2          0      70.040  45.908   8.258  1.00  0.00     0.201 C 
HETATM    3  C3          0      69.463  47.159   8.118  1.00  0.00     0.067 C 
HETATM    4  C4          0      68.598  47.450   7.069  1.00  0.00     0.103 C 
HETATM    5  O13         0      68.344  46.508   6.177  1.00  0.00    -0.307 OA
HETATM    6  C14         0      68.835  45.293   6.283  1.00  0.00     0.107 C 
HETATM    7  C15         0      68.276  44.217   5.609  1.00  0.00     0.049 C 
HETATM    8  C16         0      68.632  42.909   5.917  1.00  0.00     0.093 C 
HETATM    9  C18         0      69.885  42.763   6.498  1.00  0.00     0.048 C 
HETATM   10  C19         0      70.495  43.833   7.140  1.00  0.00     0.096 C 
HETATM   11  C21         0      69.863  45.046   7.186  1.00  0.00     0.084 C 
ENDROOT
BRANCH  10  12
HETATM   12  O20         0      71.502  43.585   8.068  1.00  0.00    -0.359 OA
HETATM   13  H20         0      71.249  43.255   8.921  1.00  0.00     0.218 HD
ENDBRANCH  10  12
BRANCH   4  14
HETATM   14  C5          0      67.599  48.496   7.294  1.00  0.00     0.025 C 
HETATM   15  C6          0      67.722  49.451   8.293  1.00  0.00     0.004 C 
HETATM   16  C7          0      67.308  50.746   8.001  1.00  0.00     0.026 C 
HETATM   17  C8          0      66.668  51.055   6.805  1.00  0.00     0.112 C 
HETATM   18  C10         0      66.042  49.981   6.188  1.00  0.00     0.112 C 
HETATM   19  C12         0      66.530  48.703   6.432  1.00  0.00     0.028 C 
BRANCH  17  20
HETATM   20  O9          0      66.845  52.289   6.205  1.00  0.00    -0.357 OA
HETATM   21  H9          0      67.401  52.974   6.560  1.00  0.00     0.218 HD
ENDBRANCH  17  20
BRANCH  18  22
HETATM   22  O11         0      65.233  50.267   5.098  1.00  0.00    -0.357 OA
HETATM   23  H11         0      65.213  49.625   4.397  1.00  0.00     0.218 HD
ENDBRANCH  18  22
ENDBRANCH   4  14
BRANCH   8  24
HETATM   24  O17         0      67.679  41.885   5.954  1.00  0.00    -0.359 OA
HETATM   25  H17         0      67.792  41.081   5.461  1.00  0.00     0.218 HD
ENDBRANCH   8  24
TORSDOF 5
ENDMDL
MODEL 3
REMARK VINA RESULT:      -5.9      2.525      7.094
REMARK  5 active torsions:
REMARK  status: ('A' for Active; 'I' for Inactive)
REMARK    1  A    between atoms: C4_4  and  C5_5 
REMARK    2  A    between atoms: C8_8  and  O9_9 
REMARK    3  A    between atoms: C10_11  and  O11_12 
REMARK    4  A    between atoms: C16_18  and  O17_19 
REMARK    5  A    between atoms: C19_22  and  O20_23 
ROOT
HETATM    1  O1          0      66.989  50.501   1.763  1.00  0.00    -0.286 OA
HETATM    2  C2          0      66.750  50.207   2.966  1.00  0.00     0.201 C 
HETATM    3  C3          0      66.736  51.149   3.981  1.00  0.00     0.067 C 
HETATM    4  C4          0      66.572  50.783   5.312  1.00  0.00     0.103 C 
HETATM    5  O13         0      66.405  49.505   5.604  1.00  0.00    -0.307 OA
HETATM    6  C14         0      66.447  48.567   4.683  1.00  0.00     0.107 C 
HETATM    7  C15         0      66.674  47.237   5.005  1.00  0.00     0.049 C 
HETATM    8  C16         0      66.970  46.297   4.025  1.00  0.00     0.093 C 
HETATM    9  C18         0      66.512  46.614   2.751  1.00  0.00     0.048 C 
HETATM   10  C19         0      66.231  47.930   2.410  1.00  0.00     0.096 C 
HETATM   11  C21         0      66.389  48.921   3.340  1.00  0.00     0.084 C 
ENDROOT
BRANCH  10  12
HETATM   12  O20         0      66.204  48.293   1.067  1.00  0.00    -0.359 OA
HETATM   13  H20         0      66.879  48.881   0.751  1.00  0.00     0.218 HD
ENDBRANCH  10  12
BRANCH   4  14
HETATM   14  C5          0      67.150  51.668   6.326  1.00  0.00     0.025 C 
HETATM   15  C6          0      67.604  52.947   6.037  1.00  0.00     0.004 C 
HETATM   16  C7          0      67.372  53.941   6.982  1.00  0.00     0.026 C 
HETATM   17  C8          0      66.829  53.651   8.229  1.00  0.00     0.112 C 
HETATM   18  C10         0      67.004  52.338   8.646  1.00  0.00     0.112 C 
HETATM   19  C12         0      67.148  51.351   7.678  1.00  0.00     0.028 C 
BRANCH  17  20
HETATM   20  O9          0      66.006  54.558   8.873  1.00  0.00    -0.357 OA
HETATM   21  H9          0      65.075  54.641   8.700  1.00  0.00     0.218 HD
ENDBRANCH  17  20
BRANCH  18  22
HETATM   22  O11         0      66.651  52.042   9.955  1.00  0.00    -0.357 OA
HETATM   23  H11         0      67.084  52.539  10.640  1.00  0.00     0.218 HD
ENDBRANCH  18  22
ENDBRANCH   4  14
BRANCH   8  24
HETATM   24  O17         0      67.930  45.301   4.236  1.00  0.00    -0.359 OA
HETATM   25  H17         0      68.673  45.194   3.654  1.00  0.00     0.218 HD
ENDBRANCH   8  24
TORSDOF 5
ENDMDL
MODEL 4
REMARK VINA RESULT:      -5.8      3.274      4.627
REMARK  5 active torsions:
REMARK  status: ('A' for Active; 'I' for Inactive)
REMARK    1  A    between atoms: C4_4  and  C5_5 
REMARK    2  A    between atoms: C8_8  and  O9_9 
REMARK    3  A    between atoms: C10_11  and  O11_12 
REMARK    4  A    between atoms: C16_18  and  O17_19 
REMARK    5  A    between atoms: C19_22  and  O20_23 
ROOT
HETATM    1  O1          0      68.484  46.411   6.323  1.00  0.00    -0.286 OA
HETATM    2  C2          0      67.705  46.630   5.356  1.00  0.00     0.201 C 
HETATM    3  C3          0      67.655  45.821   4.234  1.00  0.00     0.067 C 
HETATM    4  C4          0      66.861  46.142   3.138  1.00  0.00     0.103 C 
HETATM    5  O13         0      66.125  47.238   3.187  1.00  0.00    -0.307 OA
HETATM    6  C14         0      66.164  48.061   4.212  1.00  0.00     0.107 C 
HETATM    7  C15         0      65.727  49.374   4.112  1.00  0.00     0.049 C 
HETATM    8  C16         0      66.002  50.304   5.108  1.00  0.00     0.093 C 
HETATM    9  C18         0      66.232  49.764   6.367  1.00  0.00     0.048 C 
HETATM   10  C19         0      66.625  48.440   6.507  1.00  0.00     0.096 C 
HETATM   11  C21         0      66.771  47.655   5.396  1.00  0.00     0.084 C 
ENDROOT
BRANCH  10  12
HETATM   12  O20         0      67.261  48.038   7.677  1.00  0.00    -0.359 OA
HETATM   13  H20         0      68.209  47.978   7.671  1.00  0.00     0.218 HD
ENDBRANCH  10  12
BRANCH   4  14
HETATM   14  C5          0      67.287  45.636   1.832  1.00  0.00     0.025 C 
HETATM   15  C6          0      67.789  44.356   1.648  1.00  0.00     0.004 C 
HETATM   16  C7          0      67.426  43.682   0.487  1.00  0.00     0.026 C 
HETATM   17  C8          0      66.699  44.305  -0.522  1.00  0.00     0.112 C 
HETATM   18  C10         0      66.799  45.690  -0.537  1.00  0.00     0.112 C 
HETATM   19  C12         0      67.080  46.345   0.656  1.00  0.00     0.028 C 
BRANCH  17  20
HETATM   20  O9          0      65.796  43.591  -1.289  1.00  0.00    -0.357 OA
HETATM   21  H9          0      65.578  42.679  -1.136  1.00  0.00     0.218 HD
ENDBRANCH  17  20
BRANCH  18  22
HETATM   22  O11         0      66.251  46.347  -1.629  1.00  0.00    -0.357 OA
HETATM   23  H11         0      66.853  46.820  -2.193  1.00  0.00     0.218 HD
ENDBRANCH  18  22
ENDBRANCH   4  14
BRANCH   8  24
HETATM   24  O17         0      66.352  51.623   4.797  1.00  0.00    -0.359 OA
HETATM   25  H17         0      66.135  52.012   3.958  1.00  0.00     0.218 HD
ENDBRANCH   8  24
TORSDOF 5
ENDMDL
MODEL 5
REMARK VINA RESULT:      -5.7      2.832      6.648
REMARK  5 active torsions:
REMARK  status: ('A' for Active; 'I' for Inactive)
REMARK    1  A    between atoms: C4_4  and  C5_5 
REMARK    2  A    between atoms: C8_8  and  O9_9 
REMARK    3  A    between atoms: C10_11  and  O11_12 
REMARK    4  A    between atoms: C16_18  and  O17_19 
REMARK    5  A    between atoms: C19_22  and  O20_23 
ROOT
HETATM    1  O1          0      67.031  50.630   2.018  1.00  0.00    -0.286 OA
HETATM    2  C2          0      66.637  49.830   2.911  1.00  0.00     0.201 C 
HETATM    3  C3          0      66.313  50.238   4.193  1.00  0.00     0.067 C 
HETATM    4  C4          0      65.980  49.323   5.186  1.00  0.00     0.103 C 
HETATM    5  O13         0      65.956  48.037   4.883  1.00  0.00    -0.307 OA
HETATM    6  C14         0      66.292  47.594   3.691  1.00  0.00     0.107 C 
HETATM    7  C15         0      66.655  46.272   3.479  1.00  0.00     0.049 C 
HETATM    8  C16         0      67.248  45.868   2.289  1.00  0.00     0.093 C 
HETATM    9  C18         0      66.972  46.676   1.192  1.00  0.00     0.048 C 
HETATM   10  C19         0      66.562  47.991   1.369  1.00  0.00     0.096 C 
HETATM   11  C21         0      66.412  48.490   2.634  1.00  0.00     0.084 C 
ENDROOT
BRANCH  10  12
HETATM   12  O20         0      66.710  48.897   0.324  1.00  0.00    -0.359 OA
HETATM   13  H20         0      66.100  49.623   0.274  1.00  0.00     0.218 HD
ENDBRANCH  10  12
BRANCH   4  14
HETATM   14  C5          0      66.240  49.716   6.573  1.00  0.00     0.025 C 
HETATM   15  C6          0      67.287  49.193   7.318  1.00  0.00     0.004 C 
HETATM   16  C7          0      67.961  50.057   8.176  1.00  0.00     0.026 C 
HETATM   17  C8          0      67.526  51.360   8.389  1.00  0.00     0.112 C 
HETATM   18  C10         0      66.180  51.573   8.122  1.00  0.00     0.112 C 
HETATM   19  C12         0      65.552  50.749   7.195  1.00  0.00     0.028 C 
BRANCH  17  20
HETATM   20  O9          0      68.430  52.378   8.637  1.00  0.00    -0.357 OA
HETATM   21  H9          0      68.878  52.864   7.955  1.00  0.00     0.218 HD
ENDBRANCH  17  20
BRANCH  18  22
HETATM   22  O11         0      65.652  52.801   8.494  1.00  0.00    -0.357 OA
HETATM   23  H11         0      65.842  53.101   9.376  1.00  0.00     0.218 HD
ENDBRANCH  18  22
ENDBRANCH   4  14
BRANCH   8  24
HETATM   24  O17         0      68.295  44.940   2.274  1.00  0.00    -0.359 OA
HETATM   25  H17         0      68.148  44.019   2.456  1.00  0.00     0.218 HD
ENDBRANCH   8  24
TORSDOF 5
ENDMDL
MODEL 6
REMARK VINA RESULT:      -5.7      2.125      3.186
REMARK  5 active torsions:
REMARK  status: ('A' for Active; 'I' for Inactive)
REMARK    1  A    between atoms: C4_4  and  C5_5 
REMARK    2  A    between atoms: C8_8  and  O9_9 
REMARK    3  A    between atoms: C10_11  and  O11_12 
REMARK    4  A    between atoms: C16_18  and  O17_19 
REMARK    5  A    between atoms: C19_22  and  O20_23 
ROOT
HETATM    1  O1          0      66.505  46.190   3.071  1.00  0.00    -0.286 OA
HETATM    2  C2          0      67.146  46.575   4.087  1.00  0.00     0.201 C 
HETATM    3  C3          0      68.036  45.760   4.766  1.00  0.00     0.067 C 
HETATM    4  C4          0      68.651  46.174   5.942  1.00  0.00     0.103 C 
HETATM    5  O13         0      68.390  47.384   6.403  1.00  0.00    -0.307 OA
HETATM    6  C14         0      67.525  48.184   5.818  1.00  0.00     0.107 C 
HETATM    7  C15         0      66.953  49.257   6.486  1.00  0.00     0.049 C 
HETATM    8  C16         0      65.863  49.938   5.957  1.00  0.00     0.093 C 
HETATM    9  C18         0      65.735  49.858   4.576  1.00  0.00     0.048 C 
HETATM   10  C19         0      66.334  48.824   3.870  1.00  0.00     0.096 C 
HETATM   11  C21         0      67.071  47.884   4.538  1.00  0.00     0.084 C 
ENDROOT
BRANCH  10  12
HETATM   12  O20         0      65.860  48.501   2.602  1.00  0.00    -0.359 OA
HETATM   13  H20         0      66.458  48.078   1.998  1.00  0.00     0.218 HD
ENDBRANCH  10  12
BRANCH   4  14
HETATM   14  C5          0      69.059  45.133   6.887  1.00  0.00     0.025 C 
HETATM   15  C6          0      69.072  43.785   6.561  1.00  0.00     0.004 C 
HETATM   16  C7          0      70.115  43.010   7.061  1.00  0.00     0.026 C 
HETATM   17  C8          0      71.039  43.526   7.963  1.00  0.00     0.112 C 
HETATM   18  C10         0      70.591  44.621   8.689  1.00  0.00     0.112 C 
HETATM   19  C12         0      69.607  45.428   8.129  1.00  0.00     0.028 C 
BRANCH  17  20
HETATM   20  O9          0      72.353  43.095   7.956  1.00  0.00    -0.357 OA
HETATM   21  H9          0      73.019  43.438   7.371  1.00  0.00     0.218 HD
ENDBRANCH  17  20
BRANCH  18  22
HETATM   22  O11         0      71.396  45.057   9.732  1.00  0.00    -0.357 OA
HETATM   23  H11         0      71.237  44.674  10.587  1.00  0.00     0.218 HD
ENDBRANCH  18  22
ENDBRANCH   4  14
BRANCH   8  24
HETATM   24  O17         0      64.809  50.370   6.770  1.00  0.00    -0.359 OA
HETATM   25  H17         0      64.284  49.760   7.274  1.00  0.00     0.218 HD
ENDBRANCH   8  24
TORSDOF 5
ENDMDL
MODEL 7
REMARK VINA RESULT:      -5.6      3.852      5.023
REMARK  5 active torsions:
REMARK  status: ('A' for Active; 'I' for Inactive)
REMARK    1  A    between atoms: C4_4  and  C5_5 
REMARK    2  A    between atoms: C8_8  and  O9_9 
REMARK    3  A    between atoms: C10_11  and  O11_12 
REMARK    4  A    between atoms: C16_18  and  O17_19 
REMARK    5  A    between atoms: C19_22  and  O20_23 
ROOT
HETATM    1  O1          0      65.958  48.165   5.390  1.00  0.00    -0.286 OA
HETATM    2  C2          0      66.114  48.343   4.151  1.00  0.00     0.201 C 
HETATM    3  C3          0      66.101  47.304   3.236  1.00  0.00     0.067 C 
HETATM    4  C4          0      66.378  47.515   1.890  1.00  0.00     0.103 C 
HETATM    5  O13         0      66.638  48.744   1.480  1.00  0.00    -0.307 OA
HETATM    6  C14         0      66.699  49.760   2.313  1.00  0.00     0.107 C 
HETATM    7  C15         0      67.347  50.940   1.979  1.00  0.00     0.049 C 
HETATM    8  C16         0      67.630  51.904   2.939  1.00  0.00     0.093 C 
HETATM    9  C18         0      66.803  51.882   4.055  1.00  0.00     0.048 C 
HETATM   10  C19         0      66.103  50.731   4.392  1.00  0.00     0.096 C 
HETATM   11  C21         0      66.216  49.615   3.609  1.00  0.00     0.084 C 
ENDROOT
BRANCH  10  12
HETATM   12  O20         0      65.646  50.570   5.696  1.00  0.00    -0.359 OA
HETATM   13  H20         0      65.576  49.687   6.037  1.00  0.00     0.218 HD
ENDBRANCH  10  12
BRANCH   4  14
HETATM   14  C5          0      66.931  46.388   1.135  1.00  0.00     0.025 C 
HETATM   15  C6          0      67.076  45.120   1.676  1.00  0.00     0.004 C 
HETATM   16  C7          0      66.814  44.032   0.850  1.00  0.00     0.026 C 
HETATM   17  C8          0      66.547  44.194  -0.506  1.00  0.00     0.112 C 
HETATM   18  C10         0      67.037  45.370  -1.057  1.00  0.00     0.112 C 
HETATM   19  C12         0      67.210  46.468  -0.223  1.00  0.00     0.028 C 
BRANCH  17  20
HETATM   20  O9          0      65.680  43.340  -1.164  1.00  0.00    -0.357 OA
HETATM   21  H9          0      65.961  42.570  -1.646  1.00  0.00     0.218 HD
ENDBRANCH  17  20
BRANCH  18  22
HETATM   22  O11         0      66.965  45.495  -2.437  1.00  0.00    -0.357 OA
HETATM   23  H11         0      67.317  46.292  -2.816  1.00  0.00     0.218 HD
ENDBRANCH  18  22
ENDBRANCH   4  14
BRANCH   8  24
HETATM   24  O17         0      68.843  52.602   2.936  1.00  0.00    -0.359 OA
HETATM   25  H17         0      69.673  52.160   3.069  1.00  0.00     0.218 HD
ENDBRANCH   8  24
TORSDOF 5
ENDMDL
MODEL 8
REMARK VINA RESULT:      -5.5      2.699      4.055
REMARK  5 active torsions:
REMARK  status: ('A' for Active; 'I' for Inactive)
REMARK    1  A    between atoms: C4_4  and  C5_5 
REMARK    2  A    between atoms: C8_8  and  O9_9 
REMARK    3  A    between atoms: C10_11  and  O11_12 
REMARK    4  A    between atoms: C16_18  and  O17_19 
REMARK    5  A    between atoms: C19_22  and  O20_23 
ROOT
HETATM    1  O1          0      67.380  53.030   2.827  1.00  0.00    -0.286 OA
HETATM    2  C2          0      67.435  52.211   3.785  1.00  0.00     0.201 C 
HETATM    3  C3          0      67.359  50.840   3.605  1.00  0.00     0.067 C 
HETATM    4  C4          0      67.319  49.965   4.685  1.00  0.00     0.103 C 
HETATM    5  O13         0      67.376  50.463   5.908  1.00  0.00    -0.307 OA
HETATM    6  C14         0      67.412  51.758   6.135  1.00  0.00     0.107 C 
HETATM    7  C15         0      67.073  52.293   7.369  1.00  0.00     0.049 C 
HETATM    8  C16         0      66.865  53.658   7.531  1.00  0.00     0.093 C 
HETATM    9  C18         0      67.509  54.464   6.600  1.00  0.00     0.048 C 
HETATM   10  C19         0      67.904  53.948   5.373  1.00  0.00     0.096 C 
HETATM   11  C21         0      67.673  52.631   5.084  1.00  0.00     0.084 C 
ENDROOT
BRANCH  10  12
HETATM   12  O20         0      68.136  54.818   4.312  1.00  0.00    -0.359 OA
HETATM   13  H20         0      67.695  55.660   4.322  1.00  0.00     0.218 HD
ENDBRANCH  10  12
BRANCH   4  14
HETATM   14  C5          0      66.655  48.677   4.479  1.00  0.00     0.025 C 
HETATM   15  C6          0      65.643  48.493   3.549  1.00  0.00     0.004 C 
HETATM   16  C7          0      65.624  47.293   2.845  1.00  0.00     0.026 C 
HETATM   17  C8          0      66.499  46.255   3.149  1.00  0.00     0.112 C 
HETATM   18  C10         0      67.004  46.283   4.442  1.00  0.00     0.112 C 
HETATM   19  C12         0      67.090  47.509   5.092  1.00  0.00     0.028 C 
BRANCH  17  20
HETATM   20  O9          0      66.969  45.411   2.159  1.00  0.00    -0.357 OA
HETATM   21  H9          0      67.259  45.710   1.304  1.00  0.00     0.218 HD
ENDBRANCH  17  20
BRANCH  18  22
HETATM   22  O11         0      67.728  45.175   4.858  1.00  0.00    -0.357 OA
HETATM   23  H11         0      68.424  44.876   4.284  1.00  0.00     0.218 HD
ENDBRANCH  18  22
ENDBRANCH   4  14
BRANCH   8  24
HETATM   24  O17         0      65.834  54.148   8.340  1.00  0.00    -0.359 OA
HETATM   25  H17         0      65.242  53.565   8.801  1.00  0.00     0.218 HD
ENDBRANCH   8  24
TORSDOF 5
ENDMDL
MODEL 9
REMARK VINA RESULT:      -5.4      1.362      2.565
REMARK  5 active torsions:
REMARK  status: ('A' for Active; 'I' for Inactive)
REMARK    1  A    between atoms: C4_4  and  C5_5 
REMARK    2  A    between atoms: C8_8  and  O9_9 
REMARK    3  A    between atoms: C10_11  and  O11_12 
REMARK    4  A    between atoms: C16_18  and  O17_19 
REMARK    5  A    between atoms: C19_22  and  O20_23 
ROOT
HETATM    1  O1          0      70.606  50.199   6.968  1.00  0.00    -0.286 OA
HETATM    2  C2          0      69.731  49.297   7.076  1.00  0.00     0.201 C 
HETATM    3  C3          0      70.047  47.950   7.140  1.00  0.00     0.067 C 
HETATM    4  C4          0      69.060  46.971   7.156  1.00  0.00     0.103 C 
HETATM    5  O13         0      67.793  47.345   7.130  1.00  0.00    -0.307 OA
HETATM    6  C14         0      67.440  48.608   7.032  1.00  0.00     0.107 C 
HETATM    7  C15         0      66.173  48.982   6.607  1.00  0.00     0.049 C 
HETATM    8  C16         0      65.886  50.297   6.262  1.00  0.00     0.093 C 
HETATM    9  C18         0      66.708  51.251   6.850  1.00  0.00     0.048 C 
HETATM   10  C19         0      67.964  50.901   7.328  1.00  0.00     0.096 C 
HETATM   11  C21         0      68.389  49.604   7.235  1.00  0.00     0.084 C 
ENDROOT
BRANCH  10  12
HETATM   12  O20         0      68.925  51.892   7.502  1.00  0.00    -0.359 OA
HETATM   13  H20         0      68.935  52.363   8.327  1.00  0.00     0.218 HD
ENDBRANCH  10  12
BRANCH   4  14
HETATM   14  C5          0      69.416  45.652   6.628  1.00  0.00     0.025 C 
HETATM   15  C6          0      69.864  44.616   7.433  1.00  0.00     0.004 C 
HETATM   16  C7          0      69.432  43.329   7.127  1.00  0.00     0.026 C 
HETATM   17  C8          0      68.690  43.062   5.982  1.00  0.00     0.112 C 
HETATM   18  C10         0      68.839  43.994   4.963  1.00  0.00     0.112 C 
HETATM   19  C12         0      69.189  45.295   5.305  1.00  0.00     0.028 C 
BRANCH  17  20
HETATM   20  O9          0      67.732  42.063   5.975  1.00  0.00    -0.357 OA
HETATM   21  H9          0      66.840  42.189   5.674  1.00  0.00     0.218 HD
ENDBRANCH  17  20
BRANCH  18  22
HETATM   22  O11         0      68.274  43.679   3.736  1.00  0.00    -0.357 OA
HETATM   23  H11         0      68.796  43.151   3.144  1.00  0.00     0.218 HD
ENDBRANCH  18  22
ENDBRANCH   4  14
BRANCH   8  24
HETATM   24  O17         0      65.072  50.602   5.166  1.00  0.00    -0.359 OA
HETATM   25  H17         0      65.420  50.650   4.283  1.00  0.00     0.218 HD
ENDBRANCH   8  24
TORSDOF 5
ENDMDL
