MODEL 1
REMARK VINA RESULT:      -0.1      0.000      0.000
REMARK  5 active torsions:
REMARK  status: ('A' for Active; 'I' for Inactive)
REMARK    1  A    between atoms: C4_4  and  C5_5 
REMARK    2  A    between atoms: C8_8  and  O9_9 
REMARK    3  A    between atoms: C10_11  and  O11_12 
REMARK    4  A    between atoms: C16_18  and  O17_19 
REMARK    5  A    between atoms: C19_22  and  O20_23 
ROOT
HETATM    1  O1          0      35.378  -5.990 -24.823  1.00  0.00    -0.286 OA
HETATM    2  C2          0      36.323  -5.483 -24.157  1.00  0.00     0.201 C 
HETATM    3  C3          0      37.533  -6.127 -23.962  1.00  0.00     0.067 C 
HETATM    4  C4          0      38.518  -5.592 -23.139  1.00  0.00     0.103 C 
HETATM    5  O13         0      38.292  -4.431 -22.550  1.00  0.00    -0.307 OA
HETATM    6  C14         0      37.146  -3.797 -22.671  1.00  0.00     0.107 C 
HETATM    7  C15         0      36.753  -2.819 -21.770  1.00  0.00     0.049 C 
HETATM    8  C16         0      35.449  -2.337 -21.750  1.00  0.00     0.093 C 
HETATM    9  C18         0      34.758  -2.466 -22.948  1.00  0.00     0.048 C 
HETATM   10  C19         0      35.153  -3.403 -23.893  1.00  0.00     0.096 C 
HETATM   11  C21         0      36.242  -4.195 -23.651  1.00  0.00     0.084 C 
ENDROOT
BRANCH  10  12
HETATM   12  O20         0      34.240  -3.827 -24.855  1.00  0.00    -0.359 OA
HETATM   13  H20         0      34.297  -4.725 -25.157  1.00  0.00     0.218 HD
ENDBRANCH  10  12
BRANCH   4  14
HETATM   14  C5          0      39.449  -6.532 -22.512  1.00  0.00     0.025 C 
HETATM   15  C6          0      39.896  -6.389 -21.206  1.00  0.00     0.004 C 
HETATM   16  C7          0      40.047  -7.544 -20.447  1.00  0.00     0.026 C 
HETATM   17  C8          0      39.891  -8.809 -21.003  1.00  0.00     0.112 C 
HETATM   18  C10         0      40.078  -8.864 -22.378  1.00  0.00     0.112 C 
HETATM   19  C12         0      39.837  -7.716 -23.124  1.00  0.00     0.028 C 
BRANCH  17  20
HETATM   20  O9          0      39.382  -9.855 -20.255  1.00  0.00    -0.357 OA
HETATM   21  H9          0      39.416  -9.891 -19.306  1.00  0.00     0.218 HD
ENDBRANCH  17  20
BRANCH  18  22
HETATM   22  O11         0      40.120 -10.125 -22.956  1.00  0.00    -0.357 OA
HETATM   23  H11         0      39.308 -10.617 -22.975  1.00  0.00     0.218 HD
ENDBRANCH  18  22
ENDBRANCH   4  14
BRANCH   8  24
HETATM   24  O17         0      34.790  -2.066 -20.546  1.00  0.00    -0.359 OA
HETATM   25  H17         0      34.118  -2.643 -20.204  1.00  0.00     0.218 HD
ENDBRANCH   8  24
TORSDOF 5
ENDMDL
MODEL 2
REMARK VINA RESULT:      -0.1      2.138      6.065
REMARK  5 active torsions:
REMARK  status: ('A' for Active; 'I' for Inactive)
REMARK    1  A    between atoms: C4_4  and  C5_5 
REMARK    2  A    between atoms: C8_8  and  O9_9 
REMARK    3  A    between atoms: C10_11  and  O11_12 
REMARK    4  A    between atoms: C16_18  and  O17_19 
REMARK    5  A    between atoms: C19_22  and  O20_23 
ROOT
HETATM    1  O1          0      37.228  -4.019 -21.091  1.00  0.00    -0.286 OA
HETATM    2  C2          0      37.538  -4.905 -21.933  1.00  0.00     0.201 C 
HETATM    3  C3          0      36.866  -5.069 -23.133  1.00  0.00     0.067 C 
HETATM    4  C4          0      37.161  -6.118 -23.996  1.00  0.00     0.103 C 
HETATM    5  O13         0      38.121  -6.962 -23.664  1.00  0.00    -0.307 OA
HETATM    6  C14         0      38.764  -6.875 -22.520  1.00  0.00     0.107 C 
HETATM    7  C15         0      39.465  -7.949 -21.992  1.00  0.00     0.049 C 
HETATM    8  C16         0      39.923  -7.937 -20.680  1.00  0.00     0.093 C 
HETATM    9  C18         0      40.120  -6.672 -20.139  1.00  0.00     0.048 C 
HETATM   10  C19         0      39.471  -5.568 -20.673  1.00  0.00     0.096 C 
HETATM   11  C21         0      38.643  -5.722 -21.751  1.00  0.00     0.084 C 
ENDROOT
BRANCH  10  12
HETATM   12  O20         0      39.321  -4.424 -19.894  1.00  0.00    -0.359 OA
HETATM   13  H20         0      38.586  -4.388 -19.293  1.00  0.00     0.218 HD
ENDBRANCH  10  12
BRANCH   4  14
HETATM   14  C5          0      36.088  -6.582 -24.877  1.00  0.00     0.025 C 
HETATM   15  C6          0      35.953  -7.907 -25.265  1.00  0.00     0.004 C 
HETATM   16  C7          0      34.665  -8.424 -25.357  1.00  0.00     0.026 C 
HETATM   17  C8          0      33.543  -7.618 -25.201  1.00  0.00     0.112 C 
HETATM   18  C10         0      33.758  -6.269 -25.451  1.00  0.00     0.112 C 
HETATM   19  C12         0      35.038  -5.760 -25.268  1.00  0.00     0.028 C 
BRANCH  17  20
HETATM   20  O9          0      32.383  -8.120 -24.636  1.00  0.00    -0.357 OA
HETATM   21  H9          0      32.066  -9.004 -24.779  1.00  0.00     0.218 HD
ENDBRANCH  17  20
BRANCH  18  22
HETATM   22  O11         0      32.638  -5.452 -25.494  1.00  0.00    -0.357 OA
HETATM   23  H11         0      31.871  -5.796 -25.938  1.00  0.00     0.218 HD
ENDBRANCH  18  22
ENDBRANCH   4  14
BRANCH   8  24
HETATM   24  O17         0      39.862  -9.080 -19.875  1.00  0.00    -0.359 OA
HETATM   25  H17         0      39.039  -9.403 -19.529  1.00  0.00     0.218 HD
ENDBRANCH   8  24
TORSDOF 5
ENDMDL
MODEL 3
REMARK VINA RESULT:      -0.1      2.324      2.439
REMARK  5 active torsions:
REMARK  status: ('A' for Active; 'I' for Inactive)
REMARK    1  A    between atoms: C4_4  and  C5_5 
REMARK    2  A    between atoms: C8_8  and  O9_9 
REMARK    3  A    between atoms: C10_11  and  O11_12 
REMARK    4  A    between atoms: C16_18  and  O17_19 
REMARK    5  A    between atoms: C19_22  and  O20_23 
ROOT
HETATM    1  O1          0      34.764  -4.830 -24.798  1.00  0.00    -0.286 OA
HETATM    2  C2          0      35.299  -4.890 -23.657  1.00  0.00     0.201 C 
HETATM    3  C3          0      36.657  -5.088 -23.475  1.00  0.00     0.067 C 
HETATM    4  C4          0      37.207  -5.252 -22.209  1.00  0.00     0.103 C 
HETATM    5  O13         0      36.407  -5.196 -21.158  1.00  0.00    -0.307 OA
HETATM    6  C14         0      35.106  -5.048 -21.277  1.00  0.00     0.107 C 
HETATM    7  C15         0      34.235  -5.383 -20.250  1.00  0.00     0.049 C 
HETATM    8  C16         0      32.865  -5.467 -20.464  1.00  0.00     0.093 C 
HETATM    9  C18         0      32.390  -4.714 -21.531  1.00  0.00     0.048 C 
HETATM   10  C19         0      33.245  -4.321 -22.553  1.00  0.00     0.096 C 
HETATM   11  C21         0      34.568  -4.665 -22.501  1.00  0.00     0.084 C 
ENDROOT
BRANCH  10  12
HETATM   12  O20         0      32.710  -3.968 -23.788  1.00  0.00    -0.359 OA
HETATM   13  H20         0      33.039  -3.182 -24.207  1.00  0.00     0.218 HD
ENDBRANCH  10  12
BRANCH   4  14
HETATM   14  C5          0      38.446  -6.026 -22.111  1.00  0.00     0.025 C 
HETATM   15  C6          0      38.974  -6.449 -20.900  1.00  0.00     0.004 C 
HETATM   16  C7          0      39.558  -7.712 -20.858  1.00  0.00     0.026 C 
HETATM   17  C8          0      39.731  -8.474 -22.008  1.00  0.00     0.112 C 
HETATM   18  C10         0      39.767  -7.743 -23.188  1.00  0.00     0.112 C 
HETATM   19  C12         0      39.103  -6.523 -23.229  1.00  0.00     0.028 C 
BRANCH  17  20
HETATM   20  O9          0      39.656  -9.855 -21.961  1.00  0.00    -0.357 OA
HETATM   21  H9          0      40.298 -10.432 -22.358  1.00  0.00     0.218 HD
ENDBRANCH  17  20
BRANCH  18  22
HETATM   22  O11         0      40.125  -8.428 -24.341  1.00  0.00    -0.357 OA
HETATM   23  H11         0      39.538  -8.355 -25.084  1.00  0.00     0.218 HD
ENDBRANCH  18  22
ENDBRANCH   4  14
BRANCH   8  24
HETATM   24  O17         0      32.096  -6.478 -19.878  1.00  0.00    -0.359 OA
HETATM   25  H17         0      31.147  -6.447 -19.878  1.00  0.00     0.218 HD
ENDBRANCH   8  24
TORSDOF 5
ENDMDL
MODEL 4
REMARK VINA RESULT:      -0.1      2.729      6.372
REMARK  5 active torsions:
REMARK  status: ('A' for Active; 'I' for Inactive)
REMARK    1  A    between atoms: C4_4  and  C5_5 
REMARK    2  A    between atoms: C8_8  and  O9_9 
REMARK    3  A    between atoms: C10_11  and  O11_12 
REMARK    4  A    between atoms: C16_18  and  O17_19 
REMARK    5  A    between atoms: C19_22  and  O20_23 
ROOT
HETATM    1  O1          0      36.340  -5.217 -21.290  1.00  0.00    -0.286 OA
HETATM    2  C2          0      37.484  -5.220 -21.823  1.00  0.00     0.201 C 
HETATM    3  C3          0      37.943  -4.184 -22.620  1.00  0.00     0.067 C 
HETATM    4  C4          0      39.165  -4.259 -23.278  1.00  0.00     0.103 C 
HETATM    5  O13         0      39.909  -5.339 -23.117  1.00  0.00    -0.307 OA
HETATM    6  C14         0      39.503  -6.366 -22.402  1.00  0.00     0.107 C 
HETATM    7  C15         0      40.066  -7.626 -22.548  1.00  0.00     0.049 C 
HETATM    8  C16         0      39.474  -8.750 -21.986  1.00  0.00     0.093 C 
HETATM    9  C18         0      38.660  -8.498 -20.888  1.00  0.00     0.048 C 
HETATM   10  C19         0      38.118  -7.237 -20.686  1.00  0.00     0.096 C 
HETATM   11  C21         0      38.400  -6.228 -21.566  1.00  0.00     0.084 C 
ENDROOT
BRANCH  10  12
HETATM   12  O20         0      36.995  -7.100 -19.876  1.00  0.00    -0.359 OA
HETATM   13  H20         0      36.143  -7.249 -20.267  1.00  0.00     0.218 HD
ENDBRANCH  10  12
BRANCH   4  14
HETATM   14  C5          0      39.311  -3.480 -24.509  1.00  0.00     0.025 C 
HETATM   15  C6          0      40.034  -3.933 -25.604  1.00  0.00     0.004 C 
HETATM   16  C7          0      39.530  -3.652 -26.870  1.00  0.00     0.026 C 
HETATM   17  C8          0      38.419  -2.835 -27.048  1.00  0.00     0.112 C 
HETATM   18  C10         0      38.174  -1.954 -26.003  1.00  0.00     0.112 C 
HETATM   19  C12         0      38.614  -2.299 -24.731  1.00  0.00     0.028 C 
BRANCH  17  20
HETATM   20  O9          0      37.534  -3.057 -28.088  1.00  0.00    -0.357 OA
HETATM   21  H9          0      37.799  -3.349 -28.953  1.00  0.00     0.218 HD
ENDBRANCH  17  20
BRANCH  18  22
HETATM   22  O11         0      37.196  -0.991 -26.209  1.00  0.00    -0.357 OA
HETATM   23  H11         0      36.326  -1.301 -26.431  1.00  0.00     0.218 HD
ENDBRANCH  18  22
ENDBRANCH   4  14
BRANCH   8  24
HETATM   24  O17         0      39.429  -9.970 -22.671  1.00  0.00    -0.359 OA
HETATM   25  H17         0      38.854 -10.104 -23.415  1.00  0.00     0.218 HD
ENDBRANCH   8  24
TORSDOF 5
ENDMDL
MODEL 5
REMARK VINA RESULT:      -0.1      3.860      4.762
REMARK  5 active torsions:
REMARK  status: ('A' for Active; 'I' for Inactive)
REMARK    1  A    between atoms: C4_4  and  C5_5 
REMARK    2  A    between atoms: C8_8  and  O9_9 
REMARK    3  A    between atoms: C10_11  and  O11_12 
REMARK    4  A    between atoms: C16_18  and  O17_19 
REMARK    5  A    between atoms: C19_22  and  O20_23 
ROOT
HETATM    1  O1          0      33.601  -3.780 -22.020  1.00  0.00    -0.286 OA
HETATM    2  C2          0      33.985  -4.744 -21.303  1.00  0.00     0.201 C 
HETATM    3  C3          0      35.259  -4.819 -20.766  1.00  0.00     0.067 C 
HETATM    4  C4          0      35.690  -5.940 -20.066  1.00  0.00     0.103 C 
HETATM    5  O13         0      34.849  -6.945 -19.898  1.00  0.00    -0.307 OA
HETATM    6  C14         0      33.641  -6.941 -20.418  1.00  0.00     0.107 C 
HETATM    7  C15         0      32.917  -8.112 -20.593  1.00  0.00     0.049 C 
HETATM    8  C16         0      31.763  -8.137 -21.367  1.00  0.00     0.093 C 
HETATM    9  C18         0      31.111  -6.916 -21.490  1.00  0.00     0.048 C 
HETATM   10  C19         0      31.795  -5.727 -21.276  1.00  0.00     0.096 C 
HETATM   11  C21         0      33.117  -5.757 -20.926  1.00  0.00     0.084 C 
ENDROOT
BRANCH  10  12
HETATM   12  O20         0      31.288  -4.546 -21.810  1.00  0.00    -0.359 OA
HETATM   13  H20         0      30.485  -4.594 -22.314  1.00  0.00     0.218 HD
ENDBRANCH  10  12
BRANCH   4  14
HETATM   14  C5          0      37.128  -6.217 -20.064  1.00  0.00     0.025 C 
HETATM   15  C6          0      37.646  -7.503 -20.017  1.00  0.00     0.004 C 
HETATM   16  C7          0      38.782  -7.768 -20.776  1.00  0.00     0.026 C 
HETATM   17  C8          0      39.459  -6.759 -21.453  1.00  0.00     0.112 C 
HETATM   18  C10         0      39.260  -5.484 -20.942  1.00  0.00     0.112 C 
HETATM   19  C12         0      38.077  -5.222 -20.260  1.00  0.00     0.028 C 
BRANCH  17  20
HETATM   20  O9          0      40.093  -7.015 -22.655  1.00  0.00    -0.357 OA
HETATM   21  H9          0      40.964  -7.389 -22.724  1.00  0.00     0.218 HD
ENDBRANCH  17  20
BRANCH  18  22
HETATM   22  O11         0      40.054  -4.469 -21.457  1.00  0.00    -0.357 OA
HETATM   23  H11         0      40.642  -4.702 -22.167  1.00  0.00     0.218 HD
ENDBRANCH  18  22
ENDBRANCH   4  14
BRANCH   8  24
HETATM   24  O17         0      31.480  -9.211 -22.218  1.00  0.00    -0.359 OA
HETATM   25  H17         0      31.659 -10.109 -21.965  1.00  0.00     0.218 HD
ENDBRANCH   8  24
TORSDOF 5
ENDMDL
MODEL 6
REMARK VINA RESULT:      -0.1      2.480      6.532
REMARK  5 active torsions:
REMARK  status: ('A' for Active; 'I' for Inactive)
REMARK    1  A    between atoms: C4_4  and  C5_5 
REMARK    2  A    between atoms: C8_8  and  O9_9 
REMARK    3  A    between atoms: C10_11  and  O11_12 
REMARK    4  A    between atoms: C16_18  and  O17_19 
REMARK    5  A    between atoms: C19_22  and  O20_23 
ROOT
HETATM    1  O1          0      37.871  -8.874 -25.283  1.00  0.00    -0.286 OA
HETATM    2  C2          0      37.220  -8.214 -24.428  1.00  0.00     0.201 C 
HETATM    3  C3          0      35.878  -7.908 -24.580  1.00  0.00     0.067 C 
HETATM    4  C4          0      35.210  -7.092 -23.673  1.00  0.00     0.103 C 
HETATM    5  O13         0      35.875  -6.620 -22.634  1.00  0.00    -0.307 OA
HETATM    6  C14         0      37.159  -6.849 -22.463  1.00  0.00     0.107 C 
HETATM    7  C15         0      37.938  -6.057 -21.633  1.00  0.00     0.049 C 
HETATM    8  C16         0      39.325  -6.139 -21.650  1.00  0.00     0.093 C 
HETATM    9  C18         0      39.835  -7.351 -22.099  1.00  0.00     0.048 C 
HETATM   10  C19         0      39.066  -8.190 -22.893  1.00  0.00     0.096 C 
HETATM   11  C21         0      37.788  -7.829 -23.224  1.00  0.00     0.084 C 
ENDROOT
BRANCH  10  12
HETATM   12  O20         0      39.696  -9.150 -23.679  1.00  0.00    -0.359 OA
HETATM   13  H20         0      40.617  -9.030 -23.875  1.00  0.00     0.218 HD
ENDBRANCH  10  12
BRANCH   4  14
HETATM   14  C5          0      34.056  -6.342 -24.172  1.00  0.00     0.025 C 
HETATM   15  C6          0      33.742  -5.064 -23.732  1.00  0.00     0.004 C 
HETATM   16  C7          0      33.261  -4.159 -24.672  1.00  0.00     0.026 C 
HETATM   17  C8          0      32.973  -4.545 -25.976  1.00  0.00     0.112 C 
HETATM   18  C10         0      32.713  -5.900 -26.135  1.00  0.00     0.112 C 
HETATM   19  C12         0      33.276  -6.791 -25.230  1.00  0.00     0.028 C 
BRANCH  17  20
HETATM   20  O9          0      33.151  -3.668 -27.031  1.00  0.00    -0.357 OA
HETATM   21  H9          0      32.436  -3.239 -27.488  1.00  0.00     0.218 HD
ENDBRANCH  17  20
BRANCH  18  22
HETATM   22  O11         0      32.237  -6.307 -27.374  1.00  0.00    -0.357 OA
HETATM   23  H11         0      32.745  -6.053 -28.135  1.00  0.00     0.218 HD
ENDBRANCH  18  22
ENDBRANCH   4  14
BRANCH   8  24
HETATM   24  O17         0      40.125  -4.995 -21.553  1.00  0.00    -0.359 OA
HETATM   25  H17         0      39.855  -4.240 -21.045  1.00  0.00     0.218 HD
ENDBRANCH   8  24
TORSDOF 5
ENDMDL
MODEL 7
REMARK VINA RESULT:      -0.1      2.954      4.865
REMARK  5 active torsions:
REMARK  status: ('A' for Active; 'I' for Inactive)
REMARK    1  A    between atoms: C4_4  and  C5_5 
REMARK    2  A    between atoms: C8_8  and  O9_9 
REMARK    3  A    between atoms: C10_11  and  O11_12 
REMARK    4  A    between atoms: C16_18  and  O17_19 
REMARK    5  A    between atoms: C19_22  and  O20_23 
ROOT
HETATM    1  O1          0      36.853  -2.093 -26.649  1.00  0.00    -0.286 OA
HETATM    2  C2          0      36.320  -3.120 -26.146  1.00  0.00     0.201 C 
HETATM    3  C3          0      36.501  -3.487 -24.823  1.00  0.00     0.067 C 
HETATM    4  C4          0      35.987  -4.678 -24.321  1.00  0.00     0.103 C 
HETATM    5  O13         0      35.294  -5.461 -25.129  1.00  0.00    -0.307 OA
HETATM    6  C14         0      35.125  -5.177 -26.402  1.00  0.00     0.107 C 
HETATM    7  C15         0      34.763  -6.148 -27.325  1.00  0.00     0.049 C 
HETATM    8  C16         0      34.834  -5.906 -28.691  1.00  0.00     0.093 C 
HETATM    9  C18         0      34.755  -4.567 -29.055  1.00  0.00     0.048 C 
HETATM   10  C19         0      35.065  -3.569 -28.142  1.00  0.00     0.096 C 
HETATM   11  C21         0      35.434  -3.904 -26.868  1.00  0.00     0.084 C 
ENDROOT
BRANCH  10  12
HETATM   12  O20         0      35.405  -2.303 -28.608  1.00  0.00    -0.359 OA
HETATM   13  H20         0      35.887  -1.728 -28.025  1.00  0.00     0.218 HD
ENDBRANCH  10  12
BRANCH   4  14
HETATM   14  C5          0      36.682  -5.279 -23.181  1.00  0.00     0.025 C 
HETATM   15  C6          0      36.489  -6.597 -22.793  1.00  0.00     0.004 C 
HETATM   16  C7          0      37.599  -7.308 -22.351  1.00  0.00     0.026 C 
HETATM   17  C8          0      38.835  -6.695 -22.173  1.00  0.00     0.112 C 
HETATM   18  C10         0      38.777  -5.323 -21.972  1.00  0.00     0.112 C 
HETATM   19  C12         0      37.698  -4.623 -22.498  1.00  0.00     0.028 C 
BRANCH  17  20
HETATM   20  O9          0      40.010  -7.390 -22.397  1.00  0.00    -0.357 OA
HETATM   21  H9          0      40.858  -6.974 -22.499  1.00  0.00     0.218 HD
ENDBRANCH  17  20
BRANCH  18  22
HETATM   22  O11         0      39.957  -4.692 -21.602  1.00  0.00    -0.357 OA
HETATM   23  H11         0      40.522  -5.157 -20.997  1.00  0.00     0.218 HD
ENDBRANCH  18  22
ENDBRANCH   4  14
BRANCH   8  24
HETATM   24  O17         0      35.285  -6.886 -29.583  1.00  0.00    -0.359 OA
HETATM   25  H17         0      34.797  -7.686 -29.734  1.00  0.00     0.218 HD
ENDBRANCH   8  24
TORSDOF 5
ENDMDL
MODEL 8
REMARK VINA RESULT:      -0.1      2.406      3.325
REMARK  5 active torsions:
REMARK  status: ('A' for Active; 'I' for Inactive)
REMARK    1  A    between atoms: C4_4  and  C5_5 
REMARK    2  A    between atoms: C8_8  and  O9_9 
REMARK    3  A    between atoms: C10_11  and  O11_12 
REMARK    4  A    between atoms: C16_18  and  O17_19 
REMARK    5  A    between atoms: C19_22  and  O20_23 
ROOT
HETATM    1  O1          0      34.994  -3.905 -27.306  1.00  0.00    -0.286 OA
HETATM    2  C2          0      35.439  -3.337 -26.271  1.00  0.00     0.201 C 
HETATM    3  C3          0      36.656  -3.668 -25.699  1.00  0.00     0.067 C 
HETATM    4  C4          0      37.076  -3.099 -24.502  1.00  0.00     0.103 C 
HETATM    5  O13         0      36.297  -2.208 -23.914  1.00  0.00    -0.307 OA
HETATM    6  C14         0      35.116  -1.887 -24.396  1.00  0.00     0.107 C 
HETATM    7  C15         0      34.146  -1.283 -23.609  1.00  0.00     0.049 C 
HETATM    8  C16         0      32.829  -1.178 -24.040  1.00  0.00     0.093 C 
HETATM    9  C18         0      32.659  -1.202 -25.420  1.00  0.00     0.048 C 
HETATM   10  C19         0      33.632  -1.757 -26.240  1.00  0.00     0.096 C 
HETATM   11  C21         0      34.774  -2.269 -25.688  1.00  0.00     0.084 C 
ENDROOT
BRANCH  10  12
HETATM   12  O20         0      33.285  -2.170 -27.523  1.00  0.00    -0.359 OA
HETATM   13  H20         0      32.883  -3.025 -27.622  1.00  0.00     0.218 HD
ENDBRANCH  10  12
BRANCH   4  14
HETATM   14  C5          0      37.999  -3.880 -23.677  1.00  0.00     0.025 C 
HETATM   15  C6          0      38.003  -3.822 -22.291  1.00  0.00     0.004 C 
HETATM   16  C7          0      38.225  -5.006 -21.596  1.00  0.00     0.026 C 
HETATM   17  C8          0      38.566  -6.184 -22.253  1.00  0.00     0.112 C 
HETATM   18  C10         0      39.144  -6.005 -23.502  1.00  0.00     0.112 C 
HETATM   19  C12         0      38.837  -4.850 -24.212  1.00  0.00     0.028 C 
BRANCH  17  20
HETATM   20  O9          0      38.153  -7.412 -21.766  1.00  0.00    -0.357 OA
HETATM   21  H9          0      38.527  -8.241 -22.039  1.00  0.00     0.218 HD
ENDBRANCH  17  20
BRANCH  18  22
HETATM   22  O11         0      39.672  -7.131 -24.117  1.00  0.00    -0.357 OA
HETATM   23  H11         0      39.061  -7.703 -24.567  1.00  0.00     0.218 HD
ENDBRANCH  18  22
ENDBRANCH   4  14
BRANCH   8  24
HETATM   24  O17         0      31.756  -1.376 -23.164  1.00  0.00    -0.359 OA
HETATM   25  H17         0      31.817  -1.974 -22.428  1.00  0.00     0.218 HD
ENDBRANCH   8  24
TORSDOF 5
ENDMDL
MODEL 9
REMARK VINA RESULT:      -0.1      3.686      5.194
REMARK  5 active torsions:
REMARK  status: ('A' for Active; 'I' for Inactive)
REMARK    1  A    between atoms: C4_4  and  C5_5 
REMARK    2  A    between atoms: C8_8  and  O9_9 
REMARK    3  A    between atoms: C10_11  and  O11_12 
REMARK    4  A    between atoms: C16_18  and  O17_19 
REMARK    5  A    between atoms: C19_22  and  O20_23 
ROOT
HETATM    1  O1          0      32.430  -5.994 -23.212  1.00  0.00    -0.286 OA
HETATM    2  C2          0      33.310  -6.899 -23.220  1.00  0.00     0.201 C 
HETATM    3  C3          0      34.540  -6.756 -22.602  1.00  0.00     0.067 C 
HETATM    4  C4          0      35.529  -7.726 -22.713  1.00  0.00     0.103 C 
HETATM    5  O13         0      35.271  -8.818 -23.412  1.00  0.00    -0.307 OA
HETATM    6  C14         0      34.134  -8.987 -24.050  1.00  0.00     0.107 C 
HETATM    7  C15         0      34.005  -9.904 -25.084  1.00  0.00     0.049 C 
HETATM    8  C16         0      32.892  -9.901 -25.916  1.00  0.00     0.093 C 
HETATM    9  C18         0      31.746  -9.344 -25.362  1.00  0.00     0.048 C 
HETATM   10  C19         0      31.836  -8.459 -24.296  1.00  0.00     0.096 C 
HETATM   11  C21         0      33.062  -8.145 -23.776  1.00  0.00     0.084 C 
ENDROOT
BRANCH  10  12
HETATM   12  O20         0      30.777  -7.593 -24.040  1.00  0.00    -0.359 OA
HETATM   13  H20         0      30.858  -6.693 -24.331  1.00  0.00     0.218 HD
ENDBRANCH  10  12
BRANCH   4  14
HETATM   14  C5          0      36.919  -7.285 -22.583  1.00  0.00     0.025 C 
HETATM   15  C6          0      37.272  -6.074 -22.005  1.00  0.00     0.004 C 
HETATM   16  C7          0      38.415  -6.047 -21.212  1.00  0.00     0.026 C 
HETATM   17  C8          0      39.254  -7.151 -21.105  1.00  0.00     0.112 C 
HETATM   18  C10         0      39.179  -8.042 -22.168  1.00  0.00     0.112 C 
HETATM   19  C12         0      37.994  -8.108 -22.891  1.00  0.00     0.028 C 
BRANCH  17  20
HETATM   20  O9          0      39.932  -7.415 -19.928  1.00  0.00    -0.357 OA
HETATM   21  H9          0      40.878  -7.490 -19.869  1.00  0.00     0.218 HD
ENDBRANCH  17  20
BRANCH  18  22
HETATM   22  O11         0      40.125  -9.056 -22.205  1.00  0.00    -0.357 OA
HETATM   23  H11         0      40.060  -9.729 -21.537  1.00  0.00     0.218 HD
ENDBRANCH  18  22
ENDBRANCH   4  14
BRANCH   8  24
HETATM   24  O17         0      33.011 -10.123 -27.293  1.00  0.00    -0.359 OA
HETATM   25  H17         0      33.858 -10.207 -27.713  1.00  0.00     0.218 HD
ENDBRANCH   8  24
TORSDOF 5
ENDMDL
