MODEL 1
REMARK VINA RESULT:      -5.5      0.000      0.000
REMARK  5 active torsions:
REMARK  status: ('A' for Active; 'I' for Inactive)
REMARK    1  A    between atoms: C4_4  and  C5_5 
REMARK    2  A    between atoms: C8_8  and  O9_9 
REMARK    3  A    between atoms: C10_11  and  O11_12 
REMARK    4  A    between atoms: C16_18  and  O17_19 
REMARK    5  A    between atoms: C19_22  and  O20_23 
ROOT
HETATM    1  O1          0      35.442  38.942  38.731  1.00  0.00    -0.286 OA
HETATM    2  C2          0      34.631  38.044  39.088  1.00  0.00     0.201 C 
HETATM    3  C3          0      33.283  38.084  38.776  1.00  0.00     0.067 C 
HETATM    4  C4          0      32.393  37.136  39.269  1.00  0.00     0.103 C 
HETATM    5  O13         0      32.859  36.166  40.036  1.00  0.00    -0.307 OA
HETATM    6  C14         0      34.123  36.103  40.393  1.00  0.00     0.107 C 
HETATM    7  C15         0      34.538  35.356  41.486  1.00  0.00     0.049 C 
HETATM    8  C16         0      35.818  35.493  42.009  1.00  0.00     0.093 C 
HETATM    9  C18         0      36.771  35.965  41.115  1.00  0.00     0.048 C 
HETATM   10  C19         0      36.388  36.676  39.986  1.00  0.00     0.096 C 
HETATM   11  C21         0      35.060  36.900  39.743  1.00  0.00     0.084 C 
ENDROOT
BRANCH  10  12
HETATM   12  O20         0      37.314  37.498  39.352  1.00  0.00    -0.359 OA
HETATM   13  H20         0      37.772  37.153  38.596  1.00  0.00     0.218 HD
ENDBRANCH  10  12
BRANCH   4  14
HETATM   14  C5          0      30.995  37.544  39.421  1.00  0.00     0.025 C 
HETATM   15  C6          0      30.419  38.551  38.659  1.00  0.00     0.004 C 
HETATM   16  C7          0      29.103  38.372  38.245  1.00  0.00     0.026 C 
HETATM   17  C8          0      28.340  37.295  38.684  1.00  0.00     0.112 C 
HETATM   18  C10         0      28.762  36.735  39.882  1.00  0.00     0.112 C 
HETATM   19  C12         0      30.102  36.855  40.231  1.00  0.00     0.028 C 
BRANCH  17  20
HETATM   20  O9          0      27.383  36.724  37.864  1.00  0.00    -0.357 OA
HETATM   21  H9          0      27.286  36.931  36.941  1.00  0.00     0.218 HD
ENDBRANCH  17  20
BRANCH  18  22
HETATM   22  O11         0      27.931  35.786  40.459  1.00  0.00    -0.357 OA
HETATM   23  H11         0      27.855  35.799  41.406  1.00  0.00     0.218 HD
ENDBRANCH  18  22
ENDBRANCH   4  14
BRANCH   8  24
HETATM   24  O17         0      36.046  35.484  43.390  1.00  0.00    -0.359 OA
HETATM   25  H17         0      35.378  35.201  44.004  1.00  0.00     0.218 HD
ENDBRANCH   8  24
TORSDOF 5
ENDMDL
MODEL 2
REMARK VINA RESULT:      -5.3      2.082      3.734
REMARK  5 active torsions:
REMARK  status: ('A' for Active; 'I' for Inactive)
REMARK    1  A    between atoms: C4_4  and  C5_5 
REMARK    2  A    between atoms: C8_8  and  O9_9 
REMARK    3  A    between atoms: C10_11  and  O11_12 
REMARK    4  A    between atoms: C16_18  and  O17_19 
REMARK    5  A    between atoms: C19_22  and  O20_23 
ROOT
HETATM    1  O1          0      32.015  34.538  40.125  1.00  0.00    -0.286 OA
HETATM    2  C2          0      31.667  35.745  40.010  1.00  0.00     0.201 C 
HETATM    3  C3          0      30.356  36.165  40.159  1.00  0.00     0.067 C 
HETATM    4  C4          0      29.983  37.484  39.926  1.00  0.00     0.103 C 
HETATM    5  O13         0      30.913  38.354  39.576  1.00  0.00    -0.307 OA
HETATM    6  C14         0      32.165  38.000  39.385  1.00  0.00     0.107 C 
HETATM    7  C15         0      33.043  38.784  38.649  1.00  0.00     0.049 C 
HETATM    8  C16         0      34.276  38.294  38.236  1.00  0.00     0.093 C 
HETATM    9  C18         0      34.784  37.258  39.010  1.00  0.00     0.048 C 
HETATM   10  C19         0      33.941  36.483  39.795  1.00  0.00     0.096 C 
HETATM   11  C21         0      32.600  36.753  39.819  1.00  0.00     0.084 C 
ENDROOT
BRANCH  10  12
HETATM   12  O20         0      34.361  35.222  40.204  1.00  0.00    -0.359 OA
HETATM   13  H20         0      35.276  34.998  40.089  1.00  0.00     0.218 HD
ENDBRANCH  10  12
BRANCH   4  14
HETATM   14  C5          0      28.600  37.726  39.513  1.00  0.00     0.025 C 
HETATM   15  C6          0      27.868  38.825  39.940  1.00  0.00     0.004 C 
HETATM   16  C7          0      27.018  39.430  39.020  1.00  0.00     0.026 C 
HETATM   17  C8          0      26.798  38.884  37.760  1.00  0.00     0.112 C 
HETATM   18  C10         0      27.048  37.521  37.668  1.00  0.00     0.112 C 
HETATM   19  C12         0      27.967  36.957  38.545  1.00  0.00     0.028 C 
BRANCH  17  20
HETATM   20  O9          0      26.560  39.697  36.666  1.00  0.00    -0.357 OA
HETATM   21  H9          0      25.987  39.459  35.946  1.00  0.00     0.218 HD
ENDBRANCH  17  20
BRANCH  18  22
HETATM   22  O11         0      26.667  36.890  36.492  1.00  0.00    -0.357 OA
HETATM   23  H11         0      26.678  37.415  35.700  1.00  0.00     0.218 HD
ENDBRANCH  18  22
ENDBRANCH   4  14
BRANCH   8  24
HETATM   24  O17         0      34.788  38.584  36.966  1.00  0.00    -0.359 OA
HETATM   25  H17         0      35.151  39.436  36.758  1.00  0.00     0.218 HD
ENDBRANCH   8  24
TORSDOF 5
ENDMDL
MODEL 3
REMARK VINA RESULT:      -5.1     12.135     14.006
REMARK  5 active torsions:
REMARK  status: ('A' for Active; 'I' for Inactive)
REMARK    1  A    between atoms: C4_4  and  C5_5 
REMARK    2  A    between atoms: C8_8  and  O9_9 
REMARK    3  A    between atoms: C10_11  and  O11_12 
REMARK    4  A    between atoms: C16_18  and  O17_19 
REMARK    5  A    between atoms: C19_22  and  O20_23 
ROOT
HETATM    1  O1          0      20.704  32.017  38.165  1.00  0.00    -0.286 OA
HETATM    2  C2          0      21.203  31.000  37.609  1.00  0.00     0.201 C 
HETATM    3  C3          0      21.259  29.760  38.222  1.00  0.00     0.067 C 
HETATM    4  C4          0      21.906  28.682  37.629  1.00  0.00     0.103 C 
HETATM    5  O13         0      22.460  28.850  36.441  1.00  0.00    -0.307 OA
HETATM    6  C14         0      22.467  30.015  35.832  1.00  0.00     0.107 C 
HETATM    7  C15         0      23.363  30.300  34.811  1.00  0.00     0.049 C 
HETATM    8  C16         0      23.541  31.599  34.348  1.00  0.00     0.093 C 
HETATM    9  C18         0      22.460  32.448  34.553  1.00  0.00     0.048 C 
HETATM   10  C19         0      21.519  32.168  35.535  1.00  0.00     0.096 C 
HETATM   11  C21         0      21.647  31.038  36.296  1.00  0.00     0.084 C 
ENDROOT
BRANCH  10  12
HETATM   12  O20         0      20.719  33.196  36.024  1.00  0.00    -0.359 OA
HETATM   13  H20         0      20.839  33.462  36.927  1.00  0.00     0.218 HD
ENDBRANCH  10  12
BRANCH   4  14
HETATM   14  C5          0      22.445  27.652  38.519  1.00  0.00     0.025 C 
HETATM   15  C6          0      23.676  27.048  38.311  1.00  0.00     0.004 C 
HETATM   16  C7          0      24.454  26.768  39.430  1.00  0.00     0.026 C 
HETATM   17  C8          0      23.970  26.956  40.720  1.00  0.00     0.112 C 
HETATM   18  C10         0      22.586  26.943  40.828  1.00  0.00     0.112 C 
HETATM   19  C12         0      21.833  27.311  39.718  1.00  0.00     0.028 C 
BRANCH  17  20
HETATM   20  O9          0      24.817  27.335  41.746  1.00  0.00    -0.357 OA
HETATM   21  H9          0      25.707  27.638  41.611  1.00  0.00     0.218 HD
ENDBRANCH  17  20
BRANCH  18  22
HETATM   22  O11         0      22.055  26.937  42.110  1.00  0.00    -0.357 OA
HETATM   23  H11         0      21.247  26.454  42.239  1.00  0.00     0.218 HD
ENDBRANCH  18  22
ENDBRANCH   4  14
BRANCH   8  24
HETATM   24  O17         0      24.810  32.089  34.021  1.00  0.00    -0.359 OA
HETATM   25  H17         0      25.000  32.446  33.162  1.00  0.00     0.218 HD
ENDBRANCH   8  24
TORSDOF 5
ENDMDL
MODEL 4
REMARK VINA RESULT:      -5.1      2.006      7.116
REMARK  5 active torsions:
REMARK  status: ('A' for Active; 'I' for Inactive)
REMARK    1  A    between atoms: C4_4  and  C5_5 
REMARK    2  A    between atoms: C8_8  and  O9_9 
REMARK    3  A    between atoms: C10_11  and  O11_12 
REMARK    4  A    between atoms: C16_18  and  O17_19 
REMARK    5  A    between atoms: C19_22  and  O20_23 
ROOT
HETATM    1  O1          0      31.473  34.710  41.579  1.00  0.00    -0.286 OA
HETATM    2  C2          0      32.453  35.311  41.058  1.00  0.00     0.201 C 
HETATM    3  C3          0      33.744  35.201  41.544  1.00  0.00     0.067 C 
HETATM    4  C4          0      34.788  35.953  41.015  1.00  0.00     0.103 C 
HETATM    5  O13         0      34.534  36.774  40.012  1.00  0.00    -0.307 OA
HETATM    6  C14         0      33.319  36.944  39.538  1.00  0.00     0.107 C 
HETATM    7  C15         0      32.977  38.060  38.788  1.00  0.00     0.049 C 
HETATM    8  C16         0      31.649  38.362  38.508  1.00  0.00     0.093 C 
HETATM    9  C18         0      30.782  37.276  38.537  1.00  0.00     0.048 C 
HETATM   10  C19         0      31.114  36.126  39.239  1.00  0.00     0.096 C 
HETATM   11  C21         0      32.312  36.053  39.895  1.00  0.00     0.084 C 
ENDROOT
BRANCH  10  12
HETATM   12  O20         0      30.104  35.250  39.626  1.00  0.00    -0.359 OA
HETATM   13  H20         0      30.074  34.979  40.535  1.00  0.00     0.218 HD
ENDBRANCH  10  12
BRANCH   4  14
HETATM   14  C5          0      35.915  36.250  41.901  1.00  0.00     0.025 C 
HETATM   15  C6          0      35.873  37.250  42.862  1.00  0.00     0.004 C 
HETATM   16  C7          0      36.492  36.998  44.082  1.00  0.00     0.026 C 
HETATM   17  C8          0      37.242  35.847  44.295  1.00  0.00     0.112 C 
HETATM   18  C10         0      37.740  35.257  43.141  1.00  0.00     0.112 C 
HETATM   19  C12         0      37.053  35.456  41.949  1.00  0.00     0.028 C 
BRANCH  17  20
HETATM   20  O9          0      37.287  35.251  45.543  1.00  0.00    -0.357 OA
HETATM   21  H9          0      36.590  34.709  45.895  1.00  0.00     0.218 HD
ENDBRANCH  17  20
BRANCH  18  22
HETATM   22  O11         0      38.648  34.220  43.306  1.00  0.00    -0.357 OA
HETATM   23  H11         0      39.156  33.968  42.544  1.00  0.00     0.218 HD
ENDBRANCH  18  22
ENDBRANCH   4  14
BRANCH   8  24
HETATM   24  O17         0      31.180  39.680  38.536  1.00  0.00    -0.359 OA
HETATM   25  H17         0      30.620  39.995  39.235  1.00  0.00     0.218 HD
ENDBRANCH   8  24
TORSDOF 5
ENDMDL
MODEL 5
REMARK VINA RESULT:      -5.0      2.778      8.332
REMARK  5 active torsions:
REMARK  status: ('A' for Active; 'I' for Inactive)
REMARK    1  A    between atoms: C4_4  and  C5_5 
REMARK    2  A    between atoms: C8_8  and  O9_9 
REMARK    3  A    between atoms: C10_11  and  O11_12 
REMARK    4  A    between atoms: C16_18  and  O17_19 
REMARK    5  A    between atoms: C19_22  and  O20_23 
ROOT
HETATM    1  O1          0      26.469  40.125  39.565  1.00  0.00    -0.286 OA
HETATM    2  C2          0      26.836  39.034  39.048  1.00  0.00     0.201 C 
HETATM    3  C3          0      27.992  38.375  39.429  1.00  0.00     0.067 C 
HETATM    4  C4          0      28.428  37.229  38.773  1.00  0.00     0.103 C 
HETATM    5  O13         0      27.703  36.755  37.776  1.00  0.00    -0.307 OA
HETATM    6  C14         0      26.618  37.363  37.349  1.00  0.00     0.107 C 
HETATM    7  C15         0      26.089  37.117  36.090  1.00  0.00     0.049 C 
HETATM    8  C16         0      25.106  37.935  35.548  1.00  0.00     0.093 C 
HETATM    9  C18         0      24.338  38.626  36.478  1.00  0.00     0.048 C 
HETATM   10  C19         0      24.818  38.849  37.762  1.00  0.00     0.096 C 
HETATM   11  C21         0      26.049  38.371  38.119  1.00  0.00     0.084 C 
ENDROOT
BRANCH  10  12
HETATM   12  O20         0      24.271  39.878  38.522  1.00  0.00    -0.359 OA
HETATM   13  H20         0      24.266  40.752  38.151  1.00  0.00     0.218 HD
ENDBRANCH  10  12
BRANCH   4  14
HETATM   14  C5          0      29.865  36.951  38.795  1.00  0.00     0.025 C 
HETATM   15  C6          0      30.822  37.907  38.487  1.00  0.00     0.004 C 
HETATM   16  C7          0      31.996  37.908  39.232  1.00  0.00     0.026 C 
HETATM   17  C8          0      32.270  36.912  40.163  1.00  0.00     0.112 C 
HETATM   18  C10         0      31.598  35.716  39.947  1.00  0.00     0.112 C 
HETATM   19  C12         0      30.384  35.754  39.272  1.00  0.00     0.028 C 
BRANCH  17  20
HETATM   20  O9          0      32.989  37.193  41.311  1.00  0.00    -0.357 OA
HETATM   21  H9          0      32.784  36.829  42.165  1.00  0.00     0.218 HD
ENDBRANCH  17  20
BRANCH  18  22
HETATM   22  O11         0      31.976  34.633  40.729  1.00  0.00    -0.357 OA
HETATM   23  H11         0      32.661  34.073  40.385  1.00  0.00     0.218 HD
ENDBRANCH  18  22
ENDBRANCH   4  14
BRANCH   8  24
HETATM   24  O17         0      25.117  38.290  34.194  1.00  0.00    -0.359 OA
HETATM   25  H17         0      24.517  37.898  33.571  1.00  0.00     0.218 HD
ENDBRANCH   8  24
TORSDOF 5
ENDMDL
MODEL 6
REMARK VINA RESULT:      -5.0      1.720      6.929
REMARK  5 active torsions:
REMARK  status: ('A' for Active; 'I' for Inactive)
REMARK    1  A    between atoms: C4_4  and  C5_5 
REMARK    2  A    between atoms: C8_8  and  O9_9 
REMARK    3  A    between atoms: C10_11  and  O11_12 
REMARK    4  A    between atoms: C16_18  and  O17_19 
REMARK    5  A    between atoms: C19_22  and  O20_23 
ROOT
HETATM    1  O1          0      30.458  36.514  43.091  1.00  0.00    -0.286 OA
HETATM    2  C2          0      31.013  36.153  42.017  1.00  0.00     0.201 C 
HETATM    3  C3          0      32.292  35.625  41.974  1.00  0.00     0.067 C 
HETATM    4  C4          0      32.919  35.331  40.769  1.00  0.00     0.103 C 
HETATM    5  O13         0      32.261  35.545  39.643  1.00  0.00    -0.307 OA
HETATM    6  C14         0      31.060  36.079  39.625  1.00  0.00     0.107 C 
HETATM    7  C15         0      30.538  36.668  38.483  1.00  0.00     0.049 C 
HETATM    8  C16         0      29.389  37.449  38.533  1.00  0.00     0.093 C 
HETATM    9  C18         0      28.540  37.175  39.598  1.00  0.00     0.048 C 
HETATM   10  C19         0      29.019  36.544  40.739  1.00  0.00     0.096 C 
HETATM   11  C21         0      30.334  36.175  40.808  1.00  0.00     0.084 C 
ENDROOT
BRANCH  10  12
HETATM   12  O20         0      28.311  36.665  41.931  1.00  0.00    -0.359 OA
HETATM   13  H20         0      28.800  36.635  42.744  1.00  0.00     0.218 HD
ENDBRANCH  10  12
BRANCH   4  14
HETATM   14  C5          0      34.382  35.367  40.748  1.00  0.00     0.025 C 
HETATM   15  C6          0      35.104  36.025  39.763  1.00  0.00     0.004 C 
HETATM   16  C7          0      36.257  36.700  40.152  1.00  0.00     0.026 C 
HETATM   17  C8          0      36.751  36.614  41.449  1.00  0.00     0.112 C 
HETATM   18  C10         0      36.353  35.481  42.146  1.00  0.00     0.112 C 
HETATM   19  C12         0      35.153  34.875  41.793  1.00  0.00     0.028 C 
BRANCH  17  20
HETATM   20  O9          0      37.401  37.686  42.033  1.00  0.00    -0.357 OA
HETATM   21  H9          0      37.949  37.614  42.806  1.00  0.00     0.218 HD
ENDBRANCH  17  20
BRANCH  18  22
HETATM   22  O11         0      36.965  35.250  43.370  1.00  0.00    -0.357 OA
HETATM   23  H11         0      36.491  35.526  44.147  1.00  0.00     0.218 HD
ENDBRANCH  18  22
ENDBRANCH   4  14
BRANCH   8  24
HETATM   24  O17         0      29.272  38.624  37.782  1.00  0.00    -0.359 OA
HETATM   25  H17         0      28.453  38.874  37.371  1.00  0.00     0.218 HD
ENDBRANCH   8  24
TORSDOF 5
ENDMDL
MODEL 7
REMARK VINA RESULT:      -5.0      2.114      3.810
REMARK  5 active torsions:
REMARK  status: ('A' for Active; 'I' for Inactive)
REMARK    1  A    between atoms: C4_4  and  C5_5 
REMARK    2  A    between atoms: C8_8  and  O9_9 
REMARK    3  A    between atoms: C10_11  and  O11_12 
REMARK    4  A    between atoms: C16_18  and  O17_19 
REMARK    5  A    between atoms: C19_22  and  O20_23 
ROOT
HETATM    1  O1          0      31.815  34.663  40.092  1.00  0.00    -0.286 OA
HETATM    2  C2          0      31.539  35.888  39.964  1.00  0.00     0.201 C 
HETATM    3  C3          0      30.249  36.381  40.063  1.00  0.00     0.067 C 
HETATM    4  C4          0      29.960  37.718  39.816  1.00  0.00     0.103 C 
HETATM    5  O13         0      30.950  38.534  39.499  1.00  0.00    -0.307 OA
HETATM    6  C14         0      32.186  38.110  39.355  1.00  0.00     0.107 C 
HETATM    7  C15         0      33.133  38.841  38.652  1.00  0.00     0.049 C 
HETATM    8  C16         0      34.351  38.281  38.285  1.00  0.00     0.093 C 
HETATM    9  C18         0      34.772  37.221  39.079  1.00  0.00     0.048 C 
HETATM   10  C19         0      33.858  36.497  39.832  1.00  0.00     0.096 C 
HETATM   11  C21         0      32.533  36.841  39.807  1.00  0.00     0.084 C 
ENDROOT
BRANCH  10  12
HETATM   12  O20         0      34.190  35.215  40.258  1.00  0.00    -0.359 OA
HETATM   13  H20         0      34.354  34.554  39.596  1.00  0.00     0.218 HD
ENDBRANCH  10  12
BRANCH   4  14
HETATM   14  C5          0      28.609  38.036  39.351  1.00  0.00     0.025 C 
HETATM   15  C6          0      27.932  37.261  38.420  1.00  0.00     0.004 C 
HETATM   16  C7          0      26.565  37.079  38.604  1.00  0.00     0.026 C 
HETATM   17  C8          0      25.868  37.753  39.601  1.00  0.00     0.112 C 
HETATM   18  C10         0      26.466  38.928  40.034  1.00  0.00     0.112 C 
HETATM   19  C12         0      27.846  39.049  39.916  1.00  0.00     0.028 C 
BRANCH  17  20
HETATM   20  O9          0      24.787  37.163  40.232  1.00  0.00    -0.357 OA
HETATM   21  H9          0      24.754  36.982  41.164  1.00  0.00     0.218 HD
ENDBRANCH  17  20
BRANCH  18  22
HETATM   22  O11         0      25.725  39.734  40.887  1.00  0.00    -0.357 OA
HETATM   23  H11         0      25.371  39.323  41.668  1.00  0.00     0.218 HD
ENDBRANCH  18  22
ENDBRANCH   4  14
BRANCH   8  24
HETATM   24  O17         0      34.925  38.538  37.035  1.00  0.00    -0.359 OA
HETATM   25  H17         0      35.771  38.181  36.792  1.00  0.00     0.218 HD
ENDBRANCH   8  24
TORSDOF 5
ENDMDL
MODEL 8
REMARK VINA RESULT:      -5.0      2.164      6.995
REMARK  5 active torsions:
REMARK  status: ('A' for Active; 'I' for Inactive)
REMARK    1  A    between atoms: C4_4  and  C5_5 
REMARK    2  A    between atoms: C8_8  and  O9_9 
REMARK    3  A    between atoms: C10_11  and  O11_12 
REMARK    4  A    between atoms: C16_18  and  O17_19 
REMARK    5  A    between atoms: C19_22  and  O20_23 
ROOT
HETATM    1  O1          0      35.219  38.045  38.524  1.00  0.00    -0.286 OA
HETATM    2  C2          0      34.779  37.646  39.637  1.00  0.00     0.201 C 
HETATM    3  C3          0      35.596  37.433  40.734  1.00  0.00     0.067 C 
HETATM    4  C4          0      35.102  36.895  41.917  1.00  0.00     0.103 C 
HETATM    5  O13         0      33.815  36.603  41.993  1.00  0.00    -0.307 OA
HETATM    6  C14         0      33.004  36.751  40.969  1.00  0.00     0.107 C 
HETATM    7  C15         0      31.784  36.094  40.902  1.00  0.00     0.049 C 
HETATM    8  C16         0      31.052  36.049  39.722  1.00  0.00     0.093 C 
HETATM    9  C18         0      31.308  37.085  38.832  1.00  0.00     0.048 C 
HETATM   10  C19         0      32.499  37.795  38.901  1.00  0.00     0.096 C 
HETATM   11  C21         0      33.421  37.484  39.863  1.00  0.00     0.084 C 
ENDROOT
BRANCH  10  12
HETATM   12  O20         0      32.934  38.503  37.785  1.00  0.00    -0.359 OA
HETATM   13  H20         0      33.856  38.728  37.732  1.00  0.00     0.218 HD
ENDBRANCH  10  12
BRANCH   4  14
HETATM   14  C5          0      36.043  36.158  42.763  1.00  0.00     0.025 C 
HETATM   15  C6          0      36.802  35.096  42.294  1.00  0.00     0.004 C 
HETATM   16  C7          0      38.109  34.985  42.757  1.00  0.00     0.026 C 
HETATM   17  C8          0      38.604  35.819  43.753  1.00  0.00     0.112 C 
HETATM   18  C10         0      37.634  36.383  44.571  1.00  0.00     0.112 C 
HETATM   19  C12         0      36.356  36.561  44.054  1.00  0.00     0.028 C 
BRANCH  17  20
HETATM   20  O9          0      39.934  36.200  43.764  1.00  0.00    -0.357 OA
HETATM   21  H9          0      40.417  36.409  44.555  1.00  0.00     0.218 HD
ENDBRANCH  17  20
BRANCH  18  22
HETATM   22  O11         0      38.079  37.069  45.693  1.00  0.00    -0.357 OA
HETATM   23  H11         0      38.859  36.734  46.120  1.00  0.00     0.218 HD
ENDBRANCH  18  22
ENDBRANCH   4  14
BRANCH   8  24
HETATM   24  O17         0      30.379  34.888  39.324  1.00  0.00    -0.359 OA
HETATM   25  H17         0      29.888  34.849  38.512  1.00  0.00     0.218 HD
ENDBRANCH   8  24
TORSDOF 5
ENDMDL
MODEL 9
REMARK VINA RESULT:      -4.9     12.528     16.183
REMARK  5 active torsions:
REMARK  status: ('A' for Active; 'I' for Inactive)
REMARK    1  A    between atoms: C4_4  and  C5_5 
REMARK    2  A    between atoms: C8_8  and  O9_9 
REMARK    3  A    between atoms: C10_11  and  O11_12 
REMARK    4  A    between atoms: C16_18  and  O17_19 
REMARK    5  A    between atoms: C19_22  and  O20_23 
ROOT
HETATM    1  O1          0      21.622  27.526  30.087  1.00  0.00    -0.286 OA
HETATM    2  C2          0      21.474  27.549  31.339  1.00  0.00     0.201 C 
HETATM    3  C3          0      21.380  28.726  32.062  1.00  0.00     0.067 C 
HETATM    4  C4          0      21.321  28.725  33.451  1.00  0.00     0.103 C 
HETATM    5  O13         0      21.334  27.567  34.086  1.00  0.00    -0.307 OA
HETATM    6  C14         0      21.459  26.422  33.451  1.00  0.00     0.107 C 
HETATM    7  C15         0      21.871  25.267  34.100  1.00  0.00     0.049 C 
HETATM    8  C16         0      22.245  24.134  33.388  1.00  0.00     0.093 C 
HETATM    9  C18         0      21.697  24.033  32.114  1.00  0.00     0.048 C 
HETATM   10  C19         0      21.233  25.163  31.455  1.00  0.00     0.096 C 
HETATM   11  C21         0      21.299  26.384  32.070  1.00  0.00     0.084 C 
ENDROOT
BRANCH  10  12
HETATM   12  O20         0      21.102  25.137  30.070  1.00  0.00    -0.359 OA
HETATM   13  H20         0      21.884  24.991  29.552  1.00  0.00     0.218 HD
ENDBRANCH  10  12
BRANCH   4  14
HETATM   14  C5          0      21.821  29.915  34.144  1.00  0.00     0.025 C 
HETATM   15  C6          0      22.951  29.897  34.948  1.00  0.00     0.004 C 
HETATM   16  C7          0      23.793  31.003  34.901  1.00  0.00     0.026 C 
HETATM   17  C8          0      23.458  32.145  34.182  1.00  0.00     0.112 C 
HETATM   18  C10         0      22.097  32.311  33.959  1.00  0.00     0.112 C 
HETATM   19  C12         0      21.291  31.180  33.927  1.00  0.00     0.028 C 
BRANCH  17  20
HETATM   20  O9          0      24.435  32.912  33.574  1.00  0.00    -0.357 OA
HETATM   21  H9          0      24.316  33.822  33.328  1.00  0.00     0.218 HD
ENDBRANCH  17  20
BRANCH  18  22
HETATM   22  O11         0      21.693  33.522  33.415  1.00  0.00    -0.357 OA
HETATM   23  H11         0      21.652  34.266  34.005  1.00  0.00     0.218 HD
ENDBRANCH  18  22
ENDBRANCH   4  14
BRANCH   8  24
HETATM   24  O17         0      23.334  23.350  33.784  1.00  0.00    -0.359 OA
HETATM   25  H17         0      23.463  22.470  33.451  1.00  0.00     0.218 HD
ENDBRANCH   8  24
TORSDOF 5
ENDMDL
