MODEL 1
REMARK VINA RESULT:      -5.4      0.000      0.000
REMARK  5 active torsions:
REMARK  status: ('A' for Active; 'I' for Inactive)
REMARK    1  A    between atoms: C4_4  and  C5_5 
REMARK    2  A    between atoms: C8_8  and  O9_9 
REMARK    3  A    between atoms: C10_11  and  O11_12 
REMARK    4  A    between atoms: C16_18  and  O17_19 
REMARK    5  A    between atoms: C19_22  and  O20_23 
ROOT
HETATM    1  O1          0      52.272   9.290  19.977  1.00  0.00    -0.286 OA
HETATM    2  C2          0      51.903   8.995  21.147  1.00  0.00     0.201 C 
HETATM    3  C3          0      52.795   8.664  22.153  1.00  0.00     0.067 C 
HETATM    4  C4          0      52.358   8.244  23.404  1.00  0.00     0.103 C 
HETATM    5  O13         0      51.058   8.182  23.635  1.00  0.00    -0.307 OA
HETATM    6  C14         0      50.169   8.449  22.704  1.00  0.00     0.107 C 
HETATM    7  C15         0      48.856   8.013  22.800  1.00  0.00     0.049 C 
HETATM    8  C16         0      47.994   8.074  21.711  1.00  0.00     0.093 C 
HETATM    9  C18         0      48.317   9.033  20.759  1.00  0.00     0.048 C 
HETATM   10  C19         0      49.612   9.526  20.666  1.00  0.00     0.096 C 
HETATM   11  C21         0      50.573   9.076  21.530  1.00  0.00     0.084 C 
ENDROOT
BRANCH  10  12
HETATM   12  O20         0      50.028  10.125  19.481  1.00  0.00    -0.359 OA
HETATM   13  H20         0      50.948  10.340  19.390  1.00  0.00     0.218 HD
ENDBRANCH  10  12
BRANCH   4  14
HETATM   14  C5          0      53.251   7.370  24.167  1.00  0.00     0.025 C 
HETATM   15  C6          0      54.483   6.950  23.687  1.00  0.00     0.004 C 
HETATM   16  C7          0      55.535   6.868  24.594  1.00  0.00     0.026 C 
HETATM   17  C8          0      55.340   7.065  25.957  1.00  0.00     0.112 C 
HETATM   18  C10         0      54.040   6.847  26.394  1.00  0.00     0.112 C 
HETATM   19  C12         0      53.001   7.019  25.488  1.00  0.00     0.028 C 
BRANCH  17  20
HETATM   20  O9          0      56.327   7.637  26.739  1.00  0.00    -0.357 OA
HETATM   21  H9          0      56.155   8.108  27.546  1.00  0.00     0.218 HD
ENDBRANCH  17  20
BRANCH  18  22
HETATM   22  O11         0      53.831   6.845  27.766  1.00  0.00    -0.357 OA
HETATM   23  H11         0      53.792   5.997  28.193  1.00  0.00     0.218 HD
ENDBRANCH  18  22
ENDBRANCH   4  14
BRANCH   8  24
HETATM   24  O17         0      47.091   7.040  21.438  1.00  0.00    -0.359 OA
HETATM   25  H17         0      47.210   6.167  21.792  1.00  0.00     0.218 HD
ENDBRANCH   8  24
TORSDOF 5
ENDMDL
MODEL 2
REMARK VINA RESULT:      -5.2      4.138      5.935
REMARK  5 active torsions:
REMARK  status: ('A' for Active; 'I' for Inactive)
REMARK    1  A    between atoms: C4_4  and  C5_5 
REMARK    2  A    between atoms: C8_8  and  O9_9 
REMARK    3  A    between atoms: C10_11  and  O11_12 
REMARK    4  A    between atoms: C16_18  and  O17_19 
REMARK    5  A    between atoms: C19_22  and  O20_23 
ROOT
HETATM    1  O1          0      51.881   8.553  20.406  1.00  0.00    -0.286 OA
HETATM    2  C2          0      53.037   8.520  20.910  1.00  0.00     0.201 C 
HETATM    3  C3          0      54.190   8.634  20.152  1.00  0.00     0.067 C 
HETATM    4  C4          0      55.452   8.491  20.718  1.00  0.00     0.103 C 
HETATM    5  O13         0      55.542   8.261  22.016  1.00  0.00    -0.307 OA
HETATM    6  C14         0      54.479   8.106  22.775  1.00  0.00     0.107 C 
HETATM    7  C15         0      54.549   7.483  24.012  1.00  0.00     0.049 C 
HETATM    8  C16         0      53.400   7.096  24.691  1.00  0.00     0.093 C 
HETATM    9  C18         0      52.254   7.808  24.358  1.00  0.00     0.048 C 
HETATM   10  C19         0      52.169   8.482  23.148  1.00  0.00     0.096 C 
HETATM   11  C21         0      53.228   8.460  22.282  1.00  0.00     0.084 C 
ENDROOT
BRANCH  10  12
HETATM   12  O20         0      50.916   8.809  22.638  1.00  0.00    -0.359 OA
HETATM   13  H20         0      50.220   8.999  23.255  1.00  0.00     0.218 HD
ENDBRANCH  10  12
BRANCH   4  14
HETATM   14  C5          0      56.530   8.027  19.843  1.00  0.00     0.025 C 
HETATM   15  C6          0      56.585   8.334  18.491  1.00  0.00     0.004 C 
HETATM   16  C7          0      57.835   8.602  17.942  1.00  0.00     0.026 C 
HETATM   17  C8          0      59.005   8.441  18.677  1.00  0.00     0.112 C 
HETATM   18  C10         0      58.902   7.559  19.744  1.00  0.00     0.112 C 
HETATM   19  C12         0      57.655   7.374  20.330  1.00  0.00     0.028 C 
BRANCH  17  20
HETATM   20  O9          0      60.095   9.266  18.464  1.00  0.00    -0.357 OA
HETATM   21  H9          0      60.679   9.557  19.155  1.00  0.00     0.218 HD
ENDBRANCH  17  20
BRANCH  18  22
HETATM   22  O11         0      60.080   7.217  20.393  1.00  0.00    -0.357 OA
HETATM   23  H11         0      60.608   6.535  19.994  1.00  0.00     0.218 HD
ENDBRANCH  18  22
ENDBRANCH   4  14
BRANCH   8  24
HETATM   24  O17         0      53.336   5.882  25.385  1.00  0.00    -0.359 OA
HETATM   25  H17         0      52.594   5.660  25.934  1.00  0.00     0.218 HD
ENDBRANCH   8  24
TORSDOF 5
ENDMDL
MODEL 3
REMARK VINA RESULT:      -5.2      2.121      6.180
REMARK  5 active torsions:
REMARK  status: ('A' for Active; 'I' for Inactive)
REMARK    1  A    between atoms: C4_4  and  C5_5 
REMARK    2  A    between atoms: C8_8  and  O9_9 
REMARK    3  A    between atoms: C10_11  and  O11_12 
REMARK    4  A    between atoms: C16_18  and  O17_19 
REMARK    5  A    between atoms: C19_22  and  O20_23 
ROOT
HETATM    1  O1          0      52.404   9.470  21.236  1.00  0.00    -0.286 OA
HETATM    2  C2          0      51.938   8.661  22.086  1.00  0.00     0.201 C 
HETATM    3  C3          0      50.587   8.377  22.188  1.00  0.00     0.067 C 
HETATM    4  C4          0      50.088   7.562  23.198  1.00  0.00     0.103 C 
HETATM    5  O13         0      50.936   7.034  24.064  1.00  0.00    -0.307 OA
HETATM    6  C14         0      52.223   7.302  24.034  1.00  0.00     0.107 C 
HETATM    7  C15         0      53.038   7.093  25.137  1.00  0.00     0.049 C 
HETATM    8  C16         0      54.328   7.608  25.189  1.00  0.00     0.093 C 
HETATM    9  C18         0      54.915   7.847  23.952  1.00  0.00     0.048 C 
HETATM   10  C19         0      54.130   8.014  22.819  1.00  0.00     0.096 C 
HETATM   11  C21         0      52.768   7.926  22.918  1.00  0.00     0.084 C 
ENDROOT
BRANCH  10  12
HETATM   12  O20         0      54.663   8.666  21.712  1.00  0.00    -0.359 OA
HETATM   13  H20         0      55.077   8.138  21.040  1.00  0.00     0.218 HD
ENDBRANCH  10  12
BRANCH   4  14
HETATM   14  C5          0      48.702   7.781  23.613  1.00  0.00     0.025 C 
HETATM   15  C6          0      47.672   7.998  22.710  1.00  0.00     0.004 C 
HETATM   16  C7          0      46.436   7.423  22.991  1.00  0.00     0.026 C 
HETATM   17  C8          0      46.193   6.769  24.193  1.00  0.00     0.112 C 
HETATM   18  C10         0      47.025   7.148  25.238  1.00  0.00     0.112 C 
HETATM   19  C12         0      48.288   7.640  24.932  1.00  0.00     0.028 C 
BRANCH  17  20
HETATM   20  O9          0      45.332   5.687  24.250  1.00  0.00    -0.357 OA
HETATM   21  H9          0      44.386   5.767  24.284  1.00  0.00     0.218 HD
ENDBRANCH  17  20
BRANCH  18  22
HETATM   22  O11         0      46.706   6.669  26.501  1.00  0.00    -0.357 OA
HETATM   23  H11         0      47.432   6.437  27.069  1.00  0.00     0.218 HD
ENDBRANCH  18  22
ENDBRANCH   4  14
BRANCH   8  24
HETATM   24  O17         0      54.849   8.154  26.368  1.00  0.00    -0.359 OA
HETATM   25  H17         0      54.994   7.623  27.142  1.00  0.00     0.218 HD
ENDBRANCH   8  24
TORSDOF 5
ENDMDL
MODEL 4
REMARK VINA RESULT:      -5.1      1.562      2.099
REMARK  5 active torsions:
REMARK  status: ('A' for Active; 'I' for Inactive)
REMARK    1  A    between atoms: C4_4  and  C5_5 
REMARK    2  A    between atoms: C8_8  and  O9_9 
REMARK    3  A    between atoms: C10_11  and  O11_12 
REMARK    4  A    between atoms: C16_18  and  O17_19 
REMARK    5  A    between atoms: C19_22  and  O20_23 
ROOT
HETATM    1  O1          0      54.143   8.488  20.363  1.00  0.00    -0.286 OA
HETATM    2  C2          0      53.327   8.572  21.321  1.00  0.00     0.201 C 
HETATM    3  C3          0      53.647   8.197  22.615  1.00  0.00     0.067 C 
HETATM    4  C4          0      52.697   8.203  23.631  1.00  0.00     0.103 C 
HETATM    5  O13         0      51.468   8.596  23.349  1.00  0.00    -0.307 OA
HETATM    6  C14         0      51.102   8.926  22.130  1.00  0.00     0.107 C 
HETATM    7  C15         0      49.769   8.949  21.747  1.00  0.00     0.049 C 
HETATM    8  C16         0      49.402   9.046  20.410  1.00  0.00     0.093 C 
HETATM    9  C18         0      50.350   9.637  19.584  1.00  0.00     0.048 C 
HETATM   10  C19         0      51.687   9.674  19.957  1.00  0.00     0.096 C 
HETATM   11  C21         0      52.072   9.139  21.156  1.00  0.00     0.084 C 
ENDROOT
BRANCH  10  12
HETATM   12  O20         0      52.661   9.855  18.980  1.00  0.00    -0.359 OA
HETATM   13  H20         0      52.376   9.949  18.079  1.00  0.00     0.218 HD
ENDBRANCH  10  12
BRANCH   4  14
HETATM   14  C5          0      52.902   7.274  24.744  1.00  0.00     0.025 C 
HETATM   15  C6          0      54.141   7.069  25.334  1.00  0.00     0.004 C 
HETATM   16  C7          0      54.177   6.896  26.714  1.00  0.00     0.026 C 
HETATM   17  C8          0      53.012   6.795  27.467  1.00  0.00     0.112 C 
HETATM   18  C10         0      51.895   6.380  26.754  1.00  0.00     0.112 C 
HETATM   19  C12         0      51.848   6.642  25.390  1.00  0.00     0.028 C 
BRANCH  17  20
HETATM   20  O9          0      52.960   7.281  28.761  1.00  0.00    -0.357 OA
HETATM   21  H9          0      52.589   6.799  29.492  1.00  0.00     0.218 HD
ENDBRANCH  17  20
BRANCH  18  22
HETATM   22  O11         0      50.756   6.082  27.488  1.00  0.00    -0.357 OA
HETATM   23  H11         0      50.432   5.190  27.436  1.00  0.00     0.218 HD
ENDBRANCH  18  22
ENDBRANCH   4  14
BRANCH   8  24
HETATM   24  O17         0      48.331   8.310  19.892  1.00  0.00    -0.359 OA
HETATM   25  H17         0      47.756   7.804  20.453  1.00  0.00     0.218 HD
ENDBRANCH   8  24
TORSDOF 5
ENDMDL
MODEL 5
REMARK VINA RESULT:      -5.0      1.470      2.121
REMARK  5 active torsions:
REMARK  status: ('A' for Active; 'I' for Inactive)
REMARK    1  A    between atoms: C4_4  and  C5_5 
REMARK    2  A    between atoms: C8_8  and  O9_9 
REMARK    3  A    between atoms: C10_11  and  O11_12 
REMARK    4  A    between atoms: C16_18  and  O17_19 
REMARK    5  A    between atoms: C19_22  and  O20_23 
ROOT
HETATM    1  O1          0      49.368   8.708  19.579  1.00  0.00    -0.286 OA
HETATM    2  C2          0      49.528   8.609  20.826  1.00  0.00     0.201 C 
HETATM    3  C3          0      50.773   8.652  21.429  1.00  0.00     0.067 C 
HETATM    4  C4          0      50.930   8.437  22.793  1.00  0.00     0.103 C 
HETATM    5  O13         0      49.856   8.207  23.527  1.00  0.00    -0.307 OA
HETATM    6  C14         0      48.654   8.118  23.000  1.00  0.00     0.107 C 
HETATM    7  C15         0      47.608   7.497  23.665  1.00  0.00     0.049 C 
HETATM    8  C16         0      46.423   7.181  23.011  1.00  0.00     0.093 C 
HETATM    9  C18         0      46.144   7.959  21.894  1.00  0.00     0.048 C 
HETATM   10  C19         0      47.161   8.632  21.231  1.00  0.00     0.096 C 
HETATM   11  C21         0      48.447   8.543  21.692  1.00  0.00     0.084 C 
ENDROOT
BRANCH  10  12
HETATM   12  O20         0      46.967   9.030  19.912  1.00  0.00    -0.359 OA
HETATM   13  H20         0      46.235   8.655  19.437  1.00  0.00     0.218 HD
ENDBRANCH  10  12
BRANCH   4  14
HETATM   14  C5          0      52.218   7.907  23.244  1.00  0.00     0.025 C 
HETATM   15  C6          0      53.425   8.541  22.985  1.00  0.00     0.004 C 
HETATM   16  C7          0      54.390   8.524  23.986  1.00  0.00     0.026 C 
HETATM   17  C8          0      54.217   7.790  25.154  1.00  0.00     0.112 C 
HETATM   18  C10         0      53.325   6.731  25.047  1.00  0.00     0.112 C 
HETATM   19  C12         0      52.317   6.812  24.093  1.00  0.00     0.028 C 
BRANCH  17  20
HETATM   20  O9          0      54.740   8.234  26.356  1.00  0.00    -0.357 OA
HETATM   21  H9          0      54.465   7.907  27.205  1.00  0.00     0.218 HD
ENDBRANCH  17  20
BRANCH  18  22
HETATM   22  O11         0      53.257   5.855  26.120  1.00  0.00    -0.357 OA
HETATM   23  H11         0      52.473   5.891  26.656  1.00  0.00     0.218 HD
ENDBRANCH  18  22
ENDBRANCH   4  14
BRANCH   8  24
HETATM   24  O17         0      45.754   5.976  23.255  1.00  0.00    -0.359 OA
HETATM   25  H17         0      45.519   5.705  24.134  1.00  0.00     0.218 HD
ENDBRANCH   8  24
TORSDOF 5
ENDMDL
MODEL 6
REMARK VINA RESULT:      -5.0      1.875      2.597
REMARK  5 active torsions:
REMARK  status: ('A' for Active; 'I' for Inactive)
REMARK    1  A    between atoms: C4_4  and  C5_5 
REMARK    2  A    between atoms: C8_8  and  O9_9 
REMARK    3  A    between atoms: C10_11  and  O11_12 
REMARK    4  A    between atoms: C16_18  and  O17_19 
REMARK    5  A    between atoms: C19_22  and  O20_23 
ROOT
HETATM    1  O1          0      55.111   7.902  18.954  1.00  0.00    -0.286 OA
HETATM    2  C2          0      54.519   8.210  20.025  1.00  0.00     0.201 C 
HETATM    3  C3          0      55.027   7.909  21.277  1.00  0.00     0.067 C 
HETATM    4  C4          0      54.307   8.167  22.437  1.00  0.00     0.103 C 
HETATM    5  O13         0      53.117   8.733  22.333  1.00  0.00    -0.307 OA
HETATM    6  C14         0      52.572   9.005  21.168  1.00  0.00     0.107 C 
HETATM    7  C15         0      51.208   9.215  21.030  1.00  0.00     0.049 C 
HETATM    8  C16         0      50.605   9.248  19.778  1.00  0.00     0.093 C 
HETATM    9  C18         0      51.449   9.593  18.729  1.00  0.00     0.048 C 
HETATM   10  C19         0      52.824   9.440  18.851  1.00  0.00     0.096 C 
HETATM   11  C21         0      53.353   8.961  20.018  1.00  0.00     0.084 C 
ENDROOT
BRANCH  10  12
HETATM   12  O20         0      53.604   9.363  17.701  1.00  0.00    -0.359 OA
HETATM   13  H20         0      53.179   9.105  16.891  1.00  0.00     0.218 HD
ENDBRANCH  10  12
BRANCH   4  14
HETATM   14  C5          0      54.587   7.325  23.601  1.00  0.00     0.025 C 
HETATM   15  C6          0      55.666   6.454  23.657  1.00  0.00     0.004 C 
HETATM   16  C7          0      56.333   6.332  24.872  1.00  0.00     0.026 C 
HETATM   17  C8          0      55.865   6.949  26.027  1.00  0.00     0.112 C 
HETATM   18  C10         0      54.507   7.242  26.018  1.00  0.00     0.112 C 
HETATM   19  C12         0      53.883   7.443  24.793  1.00  0.00     0.028 C 
BRANCH  17  20
HETATM   20  O9          0      56.744   7.411  26.990  1.00  0.00    -0.357 OA
HETATM   21  H9          0      57.454   8.016  26.811  1.00  0.00     0.218 HD
ENDBRANCH  17  20
BRANCH  18  22
HETATM   22  O11         0      53.952   7.683  27.211  1.00  0.00    -0.357 OA
HETATM   23  H11         0      53.893   7.050  27.917  1.00  0.00     0.218 HD
ENDBRANCH  18  22
ENDBRANCH   4  14
BRANCH   8  24
HETATM   24  O17         0      49.357   8.657  19.554  1.00  0.00    -0.359 OA
HETATM   25  H17         0      48.994   8.014  20.152  1.00  0.00     0.218 HD
ENDBRANCH   8  24
TORSDOF 5
ENDMDL
MODEL 7
REMARK VINA RESULT:      -5.0      2.181      3.688
REMARK  5 active torsions:
REMARK  status: ('A' for Active; 'I' for Inactive)
REMARK    1  A    between atoms: C4_4  and  C5_5 
REMARK    2  A    between atoms: C8_8  and  O9_9 
REMARK    3  A    between atoms: C10_11  and  O11_12 
REMARK    4  A    between atoms: C16_18  and  O17_19 
REMARK    5  A    between atoms: C19_22  and  O20_23 
ROOT
HETATM    1  O1          0      48.177   7.496  25.629  1.00  0.00    -0.286 OA
HETATM    2  C2          0      48.930   7.439  24.618  1.00  0.00     0.201 C 
HETATM    3  C3          0      50.306   7.323  24.712  1.00  0.00     0.067 C 
HETATM    4  C4          0      51.120   7.365  23.586  1.00  0.00     0.103 C 
HETATM    5  O13         0      50.555   7.501  22.399  1.00  0.00    -0.307 OA
HETATM    6  C14         0      49.257   7.653  22.257  1.00  0.00     0.107 C 
HETATM    7  C15         0      48.706   8.185  21.100  1.00  0.00     0.049 C 
HETATM    8  C16         0      47.374   8.579  21.049  1.00  0.00     0.093 C 
HETATM    9  C18         0      46.540   7.948  21.964  1.00  0.00     0.048 C 
HETATM   10  C19         0      47.063   7.364  23.109  1.00  0.00     0.096 C 
HETATM   11  C21         0      48.413   7.395  23.332  1.00  0.00     0.084 C 
ENDROOT
BRANCH  10  12
HETATM   12  O20         0      46.228   7.134  24.198  1.00  0.00    -0.359 OA
HETATM   13  H20         0      46.448   7.548  25.023  1.00  0.00     0.218 HD
ENDBRANCH  10  12
BRANCH   4  14
HETATM   14  C5          0      52.494   7.836  23.771  1.00  0.00     0.025 C 
HETATM   15  C6          0      53.252   7.523  24.889  1.00  0.00     0.004 C 
HETATM   16  C7          0      54.606   7.265  24.699  1.00  0.00     0.026 C 
HETATM   17  C8          0      55.215   7.443  23.461  1.00  0.00     0.112 C 
HETATM   18  C10         0      54.562   8.329  22.615  1.00  0.00     0.112 C 
HETATM   19  C12         0      53.192   8.504  22.773  1.00  0.00     0.028 C 
BRANCH  17  20
HETATM   20  O9          0      56.261   6.629  23.062  1.00  0.00    -0.357 OA
HETATM   21  H9          0      57.176   6.836  23.209  1.00  0.00     0.218 HD
ENDBRANCH  17  20
BRANCH  18  22
HETATM   22  O11         0      55.222   8.688  21.449  1.00  0.00    -0.357 OA
HETATM   23  H11         0      56.101   8.347  21.330  1.00  0.00     0.218 HD
ENDBRANCH  18  22
ENDBRANCH   4  14
BRANCH   8  24
HETATM   24  O17         0      46.983   9.744  20.379  1.00  0.00    -0.359 OA
HETATM   25  H17         0      47.401  10.019  19.571  1.00  0.00     0.218 HD
ENDBRANCH   8  24
TORSDOF 5
ENDMDL
MODEL 8
REMARK VINA RESULT:      -4.9      1.911      7.049
REMARK  5 active torsions:
REMARK  status: ('A' for Active; 'I' for Inactive)
REMARK    1  A    between atoms: C4_4  and  C5_5 
REMARK    2  A    between atoms: C8_8  and  O9_9 
REMARK    3  A    between atoms: C10_11  and  O11_12 
REMARK    4  A    between atoms: C16_18  and  O17_19 
REMARK    5  A    between atoms: C19_22  and  O20_23 
ROOT
HETATM    1  O1          0      51.735   5.405  25.357  1.00  0.00    -0.286 OA
HETATM    2  C2          0      51.380   6.406  24.675  1.00  0.00     0.201 C 
HETATM    3  C3          0      50.089   6.574  24.206  1.00  0.00     0.067 C 
HETATM    4  C4          0      49.749   7.633  23.371  1.00  0.00     0.103 C 
HETATM    5  O13         0      50.684   8.505  23.040  1.00  0.00    -0.307 OA
HETATM    6  C14         0      51.934   8.371  23.427  1.00  0.00     0.107 C 
HETATM    7  C15         0      52.974   9.023  22.780  1.00  0.00     0.049 C 
HETATM    8  C16         0      54.300   8.686  23.022  1.00  0.00     0.093 C 
HETATM    9  C18         0      54.539   8.097  24.259  1.00  0.00     0.048 C 
HETATM   10  C19         0      53.511   7.477  24.955  1.00  0.00     0.096 C 
HETATM   11  C21         0      52.248   7.459  24.428  1.00  0.00     0.084 C 
ENDROOT
BRANCH  10  12
HETATM   12  O20         0      53.822   6.540  25.936  1.00  0.00    -0.359 OA
HETATM   13  H20         0      54.663   6.613  26.371  1.00  0.00     0.218 HD
ENDBRANCH  10  12
BRANCH   4  14
HETATM   14  C5          0      48.617   7.433  22.464  1.00  0.00     0.025 C 
HETATM   15  C6          0      47.296   7.537  22.875  1.00  0.00     0.004 C 
HETATM   16  C7          0      46.392   8.125  21.996  1.00  0.00     0.026 C 
HETATM   17  C8          0      46.757   8.476  20.701  1.00  0.00     0.112 C 
HETATM   18  C10         0      47.847   7.779  20.197  1.00  0.00     0.112 C 
HETATM   19  C12         0      48.781   7.275  21.094  1.00  0.00     0.028 C 
BRANCH  17  20
HETATM   20  O9          0      46.195   9.577  20.080  1.00  0.00    -0.357 OA
HETATM   21  H9          0      46.659  10.393  19.932  1.00  0.00     0.218 HD
ENDBRANCH  17  20
BRANCH  18  22
HETATM   22  O11         0      48.135   7.952  18.850  1.00  0.00    -0.357 OA
HETATM   23  H11         0      47.537   7.554  18.228  1.00  0.00     0.218 HD
ENDBRANCH  18  22
ENDBRANCH   4  14
BRANCH   8  24
HETATM   24  O17         0      55.239   8.630  21.987  1.00  0.00    -0.359 OA
HETATM   25  H17         0      55.034   8.931  21.110  1.00  0.00     0.218 HD
ENDBRANCH   8  24
TORSDOF 5
ENDMDL
MODEL 9
REMARK VINA RESULT:      -4.9      1.814      2.651
REMARK  5 active torsions:
REMARK  status: ('A' for Active; 'I' for Inactive)
REMARK    1  A    between atoms: C4_4  and  C5_5 
REMARK    2  A    between atoms: C8_8  and  O9_9 
REMARK    3  A    between atoms: C10_11  and  O11_12 
REMARK    4  A    between atoms: C16_18  and  O17_19 
REMARK    5  A    between atoms: C19_22  and  O20_23 
ROOT
HETATM    1  O1          0      54.556   8.598  21.385  1.00  0.00    -0.286 OA
HETATM    2  C2          0      54.145   8.292  22.538  1.00  0.00     0.201 C 
HETATM    3  C3          0      54.989   7.851  23.543  1.00  0.00     0.067 C 
HETATM    4  C4          0      54.498   7.424  24.771  1.00  0.00     0.103 C 
HETATM    5  O13         0      53.194   7.462  24.981  1.00  0.00    -0.307 OA
HETATM    6  C14         0      52.346   7.836  24.049  1.00  0.00     0.107 C 
HETATM    7  C15         0      51.000   7.507  24.110  1.00  0.00     0.049 C 
HETATM    8  C16         0      50.164   7.678  23.013  1.00  0.00     0.093 C 
HETATM    9  C18         0      50.582   8.641  22.102  1.00  0.00     0.048 C 
HETATM   10  C19         0      51.914   9.028  22.045  1.00  0.00     0.096 C 
HETATM   11  C21         0      52.820   8.469  22.905  1.00  0.00     0.084 C 
ENDROOT
BRANCH  10  12
HETATM   12  O20         0      52.398   9.633  20.890  1.00  0.00    -0.359 OA
HETATM   13  H20         0      53.015  10.348  20.987  1.00  0.00     0.218 HD
ENDBRANCH  10  12
BRANCH   4  14
HETATM   14  C5          0      55.304   6.452  25.513  1.00  0.00     0.025 C 
HETATM   15  C6          0      56.556   6.033  25.088  1.00  0.00     0.004 C 
HETATM   16  C7          0      57.531   5.830  26.060  1.00  0.00     0.026 C 
HETATM   17  C8          0      57.237   5.908  27.417  1.00  0.00     0.112 C 
HETATM   18  C10         0      55.901   5.698  27.733  1.00  0.00     0.112 C 
HETATM   19  C12         0      54.941   5.990  26.772  1.00  0.00     0.028 C 
BRANCH  17  20
HETATM   20  O9          0      58.177   6.370  28.321  1.00  0.00    -0.357 OA
HETATM   21  H9          0      58.571   5.828  28.995  1.00  0.00     0.218 HD
ENDBRANCH  17  20
BRANCH  18  22
HETATM   22  O11         0      55.586   5.577  29.079  1.00  0.00    -0.357 OA
HETATM   23  H11         0      56.312   5.572  29.692  1.00  0.00     0.218 HD
ENDBRANCH  18  22
ENDBRANCH   4  14
BRANCH   8  24
HETATM   24  O17         0      49.184   6.734  22.688  1.00  0.00    -0.359 OA
HETATM   25  H17         0      49.221   5.843  23.015  1.00  0.00     0.218 HD
ENDBRANCH   8  24
TORSDOF 5
ENDMDL
