MODEL 1
REMARK VINA RESULT:      -8.3      0.000      0.000
REMARK  5 active torsions:
REMARK  status: ('A' for Active; 'I' for Inactive)
REMARK    1  A    between atoms: C4_4  and  C5_5 
REMARK    2  A    between atoms: C8_8  and  O9_9 
REMARK    3  A    between atoms: C10_11  and  O11_12 
REMARK    4  A    between atoms: C16_18  and  O17_19 
REMARK    5  A    between atoms: C19_22  and  O20_23 
ROOT
HETATM    1  O1          0      35.846  70.595 -10.073  1.00  0.00    -0.286 OA
HETATM    2  C2          0      35.031  69.688  -9.750  1.00  0.00     0.201 C 
HETATM    3  C3          0      35.422  68.387  -9.483  1.00  0.00     0.067 C 
HETATM    4  C4          0      34.493  67.384  -9.230  1.00  0.00     0.103 C 
HETATM    5  O13         0      33.209  67.695  -9.227  1.00  0.00    -0.307 OA
HETATM    6  C14         0      32.782  68.906  -9.511  1.00  0.00     0.107 C 
HETATM    7  C15         0      31.472  69.147  -9.899  1.00  0.00     0.049 C 
HETATM    8  C16         0      31.092  70.370 -10.440  1.00  0.00     0.093 C 
HETATM    9  C18         0      31.898  71.444 -10.083  1.00  0.00     0.048 C 
HETATM   10  C19         0      33.199  71.236  -9.645  1.00  0.00     0.096 C 
HETATM   11  C21         0      33.687  69.961  -9.548  1.00  0.00     0.084 C 
ENDROOT
BRANCH  10  12
HETATM   12  O20         0      34.114  72.282  -9.711  1.00  0.00    -0.359 OA
HETATM   13  H20         0      33.915  73.013 -10.283  1.00  0.00     0.218 HD
ENDBRANCH  10  12
BRANCH   4  14
HETATM   14  C5          0      34.885  66.011  -9.553  1.00  0.00     0.025 C 
HETATM   15  C6          0      34.201  64.902  -9.078  1.00  0.00     0.004 C 
HETATM   16  C7          0      34.049  63.821  -9.940  1.00  0.00     0.026 C 
HETATM   17  C8          0      34.670  63.786 -11.183  1.00  0.00     0.112 C 
HETATM   18  C10         0      35.792  64.596 -11.294  1.00  0.00     0.112 C 
HETATM   19  C12         0      35.879  65.719 -10.479  1.00  0.00     0.028 C 
BRANCH  17  20
HETATM   20  O9          0      34.070  63.154 -12.258  1.00  0.00    -0.357 OA
HETATM   21  H9          0      34.479  63.060 -13.111  1.00  0.00     0.218 HD
ENDBRANCH  17  20
BRANCH  18  22
HETATM   22  O11         0      36.557  64.458 -12.443  1.00  0.00    -0.357 OA
HETATM   23  H11         0      36.387  63.695 -12.984  1.00  0.00     0.218 HD
ENDBRANCH  18  22
ENDBRANCH   4  14
BRANCH   8  24
HETATM   24  O17         0      30.194  70.447 -11.510  1.00  0.00    -0.359 OA
HETATM   25  H17         0      30.016  69.698 -12.067  1.00  0.00     0.218 HD
ENDBRANCH   8  24
TORSDOF 5
ENDMDL
MODEL 2
REMARK VINA RESULT:      -8.3      1.267      1.853
REMARK  5 active torsions:
REMARK  status: ('A' for Active; 'I' for Inactive)
REMARK    1  A    between atoms: C4_4  and  C5_5 
REMARK    2  A    between atoms: C8_8  and  O9_9 
REMARK    3  A    between atoms: C10_11  and  O11_12 
REMARK    4  A    between atoms: C16_18  and  O17_19 
REMARK    5  A    between atoms: C19_22  and  O20_23 
ROOT
HETATM    1  O1          0      36.062  69.757  -9.263  1.00  0.00    -0.286 OA
HETATM    2  C2          0      35.086  69.001  -9.522  1.00  0.00     0.201 C 
HETATM    3  C3          0      35.219  67.632  -9.681  1.00  0.00     0.067 C 
HETATM    4  C4          0      34.147  66.836 -10.066  1.00  0.00     0.103 C 
HETATM    5  O13         0      32.972  67.406 -10.264  1.00  0.00    -0.307 OA
HETATM    6  C14         0      32.800  68.706 -10.164  1.00  0.00     0.107 C 
HETATM    7  C15         0      31.714  69.346 -10.743  1.00  0.00     0.049 C 
HETATM    8  C16         0      31.668  70.731 -10.855  1.00  0.00     0.093 C 
HETATM    9  C18         0      32.442  71.420  -9.929  1.00  0.00     0.048 C 
HETATM   10  C19         0      33.507  70.795  -9.295  1.00  0.00     0.096 C 
HETATM   11  C21         0      33.788  69.485  -9.572  1.00  0.00     0.084 C 
ENDROOT
BRANCH  10  12
HETATM   12  O20         0      34.514  71.573  -8.730  1.00  0.00    -0.359 OA
HETATM   13  H20         0      34.778  72.361  -9.189  1.00  0.00     0.218 HD
ENDBRANCH  10  12
BRANCH   4  14
HETATM   14  C5          0      34.457  65.594 -10.778  1.00  0.00     0.025 C 
HETATM   15  C6          0      35.517  65.480 -11.666  1.00  0.00     0.004 C 
HETATM   16  C7          0      36.232  64.287 -11.667  1.00  0.00     0.026 C 
HETATM   17  C8          0      35.827  63.194 -10.909  1.00  0.00     0.112 C 
HETATM   18  C10         0      34.478  63.183 -10.581  1.00  0.00     0.112 C 
HETATM   19  C12         0      33.807  64.397 -10.504  1.00  0.00     0.028 C 
BRANCH  17  20
HETATM   20  O9          0      36.757  62.325 -10.365  1.00  0.00    -0.357 OA
HETATM   21  H9          0      36.558  61.704  -9.674  1.00  0.00     0.218 HD
ENDBRANCH  17  20
BRANCH  18  22
HETATM   22  O11         0      33.984  62.028  -9.992  1.00  0.00    -0.357 OA
HETATM   23  H11         0      33.039  61.931  -9.960  1.00  0.00     0.218 HD
ENDBRANCH  18  22
ENDBRANCH   4  14
BRANCH   8  24
HETATM   24  O17         0      31.164  71.353 -12.002  1.00  0.00    -0.359 OA
HETATM   25  H17         0      31.497  71.148 -12.868  1.00  0.00     0.218 HD
ENDBRANCH   8  24
TORSDOF 5
ENDMDL
MODEL 3
REMARK VINA RESULT:      -8.2      2.668      6.310
REMARK  5 active torsions:
REMARK  status: ('A' for Active; 'I' for Inactive)
REMARK    1  A    between atoms: C4_4  and  C5_5 
REMARK    2  A    between atoms: C8_8  and  O9_9 
REMARK    3  A    between atoms: C10_11  and  O11_12 
REMARK    4  A    between atoms: C16_18  and  O17_19 
REMARK    5  A    between atoms: C19_22  and  O20_23 
ROOT
HETATM    1  O1          0      33.730  63.881  -9.264  1.00  0.00    -0.286 OA
HETATM    2  C2          0      33.274  64.949  -9.757  1.00  0.00     0.201 C 
HETATM    3  C3          0      33.872  66.181  -9.560  1.00  0.00     0.067 C 
HETATM    4  C4          0      33.293  67.355 -10.028  1.00  0.00     0.103 C 
HETATM    5  O13         0      32.154  67.280 -10.694  1.00  0.00    -0.307 OA
HETATM    6  C14         0      31.525  66.139 -10.876  1.00  0.00     0.107 C 
HETATM    7  C15         0      30.178  66.092 -11.203  1.00  0.00     0.049 C 
HETATM    8  C16         0      29.463  64.902 -11.145  1.00  0.00     0.093 C 
HETATM    9  C18         0      30.229  63.750 -11.274  1.00  0.00     0.048 C 
HETATM   10  C19         0      31.589  63.773 -10.999  1.00  0.00     0.096 C 
HETATM   11  C21         0      32.185  64.943 -10.615  1.00  0.00     0.084 C 
ENDROOT
BRANCH  10  12
HETATM   12  O20         0      32.245  62.581 -10.707  1.00  0.00    -0.359 OA
HETATM   13  H20         0      32.835  62.225 -11.360  1.00  0.00     0.218 HD
ENDBRANCH  10  12
BRANCH   4  14
HETATM   14  C5          0      33.609  68.591  -9.309  1.00  0.00     0.025 C 
HETATM   15  C6          0      34.845  69.214  -9.391  1.00  0.00     0.004 C 
HETATM   16  C7          0      34.865  70.605  -9.420  1.00  0.00     0.026 C 
HETATM   17  C8          0      33.708  71.355  -9.238  1.00  0.00     0.112 C 
HETATM   18  C10         0      32.694  70.700  -8.553  1.00  0.00     0.112 C 
HETATM   19  C12         0      32.648  69.312  -8.611  1.00  0.00     0.028 C 
BRANCH  17  20
HETATM   20  O9          0      33.540  72.567  -9.884  1.00  0.00    -0.357 OA
HETATM   21  H9          0      33.909  72.766 -10.737  1.00  0.00     0.218 HD
ENDBRANCH  17  20
BRANCH  18  22
HETATM   22  O11         0      31.595  71.460  -8.179  1.00  0.00    -0.357 OA
HETATM   23  H11         0      30.767  71.002  -8.088  1.00  0.00     0.218 HD
ENDBRANCH  18  22
ENDBRANCH   4  14
BRANCH   8  24
HETATM   24  O17         0      28.151  64.863 -10.659  1.00  0.00    -0.359 OA
HETATM   25  H17         0      27.739  64.047 -10.399  1.00  0.00     0.218 HD
ENDBRANCH   8  24
TORSDOF 5
ENDMDL
MODEL 4
REMARK VINA RESULT:      -8.2      2.108      2.590
REMARK  5 active torsions:
REMARK  status: ('A' for Active; 'I' for Inactive)
REMARK    1  A    between atoms: C4_4  and  C5_5 
REMARK    2  A    between atoms: C8_8  and  O9_9 
REMARK    3  A    between atoms: C10_11  and  O11_12 
REMARK    4  A    between atoms: C16_18  and  O17_19 
REMARK    5  A    between atoms: C19_22  and  O20_23 
ROOT
HETATM    1  O1          0      33.545  70.147 -10.910  1.00  0.00    -0.286 OA
HETATM    2  C2          0      32.673  69.244 -10.787  1.00  0.00     0.201 C 
HETATM    3  C3          0      32.977  67.958 -10.371  1.00  0.00     0.067 C 
HETATM    4  C4          0      32.016  66.955 -10.343  1.00  0.00     0.103 C 
HETATM    5  O13         0      30.779  67.251 -10.703  1.00  0.00    -0.307 OA
HETATM    6  C14         0      30.445  68.445 -11.141  1.00  0.00     0.107 C 
HETATM    7  C15         0      29.291  68.655 -11.882  1.00  0.00     0.049 C 
HETATM    8  C16         0      29.073  69.852 -12.554  1.00  0.00     0.093 C 
HETATM    9  C18         0      29.749  70.949 -12.033  1.00  0.00     0.048 C 
HETATM   10  C19         0      30.881  70.773 -11.249  1.00  0.00     0.096 C 
HETATM   11  C21         0      31.325  69.508 -10.971  1.00  0.00     0.084 C 
ENDROOT
BRANCH  10  12
HETATM   12  O20         0      31.779  71.826 -11.103  1.00  0.00    -0.359 OA
HETATM   13  H20         0      32.660  71.708 -11.435  1.00  0.00     0.218 HD
ENDBRANCH  10  12
BRANCH   4  14
HETATM   14  C5          0      32.482  65.575 -10.491  1.00  0.00     0.025 C 
HETATM   15  C6          0      31.628  64.483 -10.446  1.00  0.00     0.004 C 
HETATM   16  C7          0      31.883  63.429 -11.316  1.00  0.00     0.026 C 
HETATM   17  C8          0      33.025  63.398 -12.110  1.00  0.00     0.112 C 
HETATM   18  C10         0      34.080  64.166 -11.637  1.00  0.00     0.112 C 
HETATM   19  C12         0      33.791  65.265 -10.838  1.00  0.00     0.028 C 
BRANCH  17  20
HETATM   20  O9          0      33.000  62.814 -13.364  1.00  0.00    -0.357 OA
HETATM   21  H9          0      32.496  63.154 -14.094  1.00  0.00     0.218 HD
ENDBRANCH  17  20
BRANCH  18  22
HETATM   22  O11         0      35.300  64.024 -12.284  1.00  0.00    -0.357 OA
HETATM   23  H11         0      35.291  64.068 -13.233  1.00  0.00     0.218 HD
ENDBRANCH  18  22
ENDBRANCH   4  14
BRANCH   8  24
HETATM   24  O17         0      28.502  69.878 -13.831  1.00  0.00    -0.359 OA
HETATM   25  H17         0      28.791  69.290 -14.519  1.00  0.00     0.218 HD
ENDBRANCH   8  24
TORSDOF 5
ENDMDL
MODEL 5
REMARK VINA RESULT:      -8.1      2.010      6.591
REMARK  5 active torsions:
REMARK  status: ('A' for Active; 'I' for Inactive)
REMARK    1  A    between atoms: C4_4  and  C5_5 
REMARK    2  A    between atoms: C8_8  and  O9_9 
REMARK    3  A    between atoms: C10_11  and  O11_12 
REMARK    4  A    between atoms: C16_18  and  O17_19 
REMARK    5  A    between atoms: C19_22  and  O20_23 
ROOT
HETATM    1  O1          0      30.588  65.898 -11.646  1.00  0.00    -0.286 OA
HETATM    2  C2          0      31.517  65.799 -10.799  1.00  0.00     0.201 C 
HETATM    3  C3          0      31.949  66.867 -10.031  1.00  0.00     0.067 C 
HETATM    4  C4          0      33.042  66.757  -9.179  1.00  0.00     0.103 C 
HETATM    5  O13         0      33.665  65.594  -9.092  1.00  0.00    -0.307 OA
HETATM    6  C14         0      33.319  64.560  -9.826  1.00  0.00     0.107 C 
HETATM    7  C15         0      34.182  63.495 -10.041  1.00  0.00     0.049 C 
HETATM    8  C16         0      33.917  62.536 -11.011  1.00  0.00     0.093 C 
HETATM    9  C18         0      32.576  62.395 -11.346  1.00  0.00     0.048 C 
HETATM   10  C19         0      31.675  63.423 -11.102  1.00  0.00     0.096 C 
HETATM   11  C21         0      32.109  64.578 -10.511  1.00  0.00     0.084 C 
ENDROOT
BRANCH  10  12
HETATM   12  O20         0      30.478  63.461 -11.810  1.00  0.00    -0.359 OA
HETATM   13  H20         0      29.823  62.803 -11.612  1.00  0.00     0.218 HD
ENDBRANCH  10  12
BRANCH   4  14
HETATM   14  C5          0      33.792  67.981  -8.889  1.00  0.00     0.025 C 
HETATM   15  C6          0      35.152  68.104  -9.129  1.00  0.00     0.004 C 
HETATM   16  C7          0      35.614  69.327  -9.606  1.00  0.00     0.026 C 
HETATM   17  C8          0      34.776  70.431  -9.714  1.00  0.00     0.112 C 
HETATM   18  C10         0      33.662  70.397  -8.886  1.00  0.00     0.112 C 
HETATM   19  C12         0      33.170  69.158  -8.492  1.00  0.00     0.028 C 
BRANCH  17  20
HETATM   20  O9          0      34.955  71.361 -10.722  1.00  0.00    -0.357 OA
HETATM   21  H9          0      34.939  71.146 -11.648  1.00  0.00     0.218 HD
ENDBRANCH  17  20
BRANCH  18  22
HETATM   22  O11         0      32.896  71.552  -8.813  1.00  0.00    -0.357 OA
HETATM   23  H11         0      32.175  71.629  -9.427  1.00  0.00     0.218 HD
ENDBRANCH  18  22
ENDBRANCH   4  14
BRANCH   8  24
HETATM   24  O17         0      34.935  62.011 -11.814  1.00  0.00    -0.359 OA
HETATM   25  H17         0      35.806  62.389 -11.827  1.00  0.00     0.218 HD
ENDBRANCH   8  24
TORSDOF 5
ENDMDL
MODEL 6
REMARK VINA RESULT:      -8.1      1.673      2.027
REMARK  5 active torsions:
REMARK  status: ('A' for Active; 'I' for Inactive)
REMARK    1  A    between atoms: C4_4  and  C5_5 
REMARK    2  A    between atoms: C8_8  and  O9_9 
REMARK    3  A    between atoms: C10_11  and  O11_12 
REMARK    4  A    between atoms: C16_18  and  O17_19 
REMARK    5  A    between atoms: C19_22  and  O20_23 
ROOT
HETATM    1  O1          0      36.172  69.137  -9.247  1.00  0.00    -0.286 OA
HETATM    2  C2          0      35.099  68.506  -9.448  1.00  0.00     0.201 C 
HETATM    3  C3          0      35.054  67.129  -9.589  1.00  0.00     0.067 C 
HETATM    4  C4          0      33.874  66.468  -9.912  1.00  0.00     0.103 C 
HETATM    5  O13         0      32.770  67.178 -10.066  1.00  0.00    -0.307 OA
HETATM    6  C14         0      32.766  68.490  -9.980  1.00  0.00     0.107 C 
HETATM    7  C15         0      31.742  69.255 -10.520  1.00  0.00     0.049 C 
HETATM    8  C16         0      31.862  70.633 -10.653  1.00  0.00     0.093 C 
HETATM    9  C18         0      32.759  71.231  -9.776  1.00  0.00     0.048 C 
HETATM   10  C19         0      33.767  70.485  -9.181  1.00  0.00     0.096 C 
HETATM   11  C21         0      33.870  69.147  -9.447  1.00  0.00     0.084 C 
ENDROOT
BRANCH  10  12
HETATM   12  O20         0      34.888  71.137  -8.675  1.00  0.00    -0.359 OA
HETATM   13  H20         0      34.796  71.612  -7.858  1.00  0.00     0.218 HD
ENDBRANCH  10  12
BRANCH   4  14
HETATM   14  C5          0      33.994  65.190 -10.616  1.00  0.00     0.025 C 
HETATM   15  C6          0      35.019  64.288 -10.368  1.00  0.00     0.004 C 
HETATM   16  C7          0      34.702  62.933 -10.382  1.00  0.00     0.026 C 
HETATM   17  C8          0      33.443  62.482 -10.760  1.00  0.00     0.112 C 
HETATM   18  C10         0      32.731  63.358 -11.568  1.00  0.00     0.112 C 
HETATM   19  C12         0      33.008  64.717 -11.473  1.00  0.00     0.028 C 
BRANCH  17  20
HETATM   20  O9          0      32.894  61.349 -10.186  1.00  0.00    -0.357 OA
HETATM   21  H9          0      33.309  60.857  -9.487  1.00  0.00     0.218 HD
ENDBRANCH  17  20
BRANCH  18  22
HETATM   22  O11         0      31.554  62.883 -12.128  1.00  0.00    -0.357 OA
HETATM   23  H11         0      31.358  63.158 -13.016  1.00  0.00     0.218 HD
ENDBRANCH  18  22
ENDBRANCH   4  14
BRANCH   8  24
HETATM   24  O17         0      31.386  71.300 -11.787  1.00  0.00    -0.359 OA
HETATM   25  H17         0      31.863  71.292 -12.608  1.00  0.00     0.218 HD
ENDBRANCH   8  24
TORSDOF 5
ENDMDL
MODEL 7
REMARK VINA RESULT:      -8.0      1.330      1.591
REMARK  5 active torsions:
REMARK  status: ('A' for Active; 'I' for Inactive)
REMARK    1  A    between atoms: C4_4  and  C5_5 
REMARK    2  A    between atoms: C8_8  and  O9_9 
REMARK    3  A    between atoms: C10_11  and  O11_12 
REMARK    4  A    between atoms: C16_18  and  O17_19 
REMARK    5  A    between atoms: C19_22  and  O20_23 
ROOT
HETATM    1  O1          0      35.932  69.007  -9.258  1.00  0.00    -0.286 OA
HETATM    2  C2          0      34.769  68.519  -9.298  1.00  0.00     0.201 C 
HETATM    3  C3          0      34.525  67.157  -9.240  1.00  0.00     0.067 C 
HETATM    4  C4          0      33.243  66.640  -9.390  1.00  0.00     0.103 C 
HETATM    5  O13         0      32.238  67.478  -9.571  1.00  0.00    -0.307 OA
HETATM    6  C14         0      32.419  68.777  -9.671  1.00  0.00     0.107 C 
HETATM    7  C15         0      31.468  69.606 -10.247  1.00  0.00     0.049 C 
HETATM    8  C16         0      31.764  70.922 -10.581  1.00  0.00     0.093 C 
HETATM    9  C18         0      32.804  71.491  -9.856  1.00  0.00     0.048 C 
HETATM   10  C19         0      33.748  70.690  -9.228  1.00  0.00     0.096 C 
HETATM   11  C21         0      33.644  69.328  -9.309  1.00  0.00     0.084 C 
ENDROOT
BRANCH  10  12
HETATM   12  O20         0      34.985  71.231  -8.893  1.00  0.00    -0.359 OA
HETATM   13  H20         0      35.118  72.161  -9.036  1.00  0.00     0.218 HD
ENDBRANCH  10  12
BRANCH   4  14
HETATM   14  C5          0      33.127  65.277  -9.912  1.00  0.00     0.025 C 
HETATM   15  C6          0      31.912  64.707 -10.263  1.00  0.00     0.004 C 
HETATM   16  C7          0      31.885  63.891 -11.389  1.00  0.00     0.026 C 
HETATM   17  C8          0      33.049  63.543 -12.066  1.00  0.00     0.112 C 
HETATM   18  C10         0      34.208  63.620 -11.305  1.00  0.00     0.112 C 
HETATM   19  C12         0      34.237  64.507 -10.235  1.00  0.00     0.028 C 
BRANCH  17  20
HETATM   20  O9          0      33.041  63.350 -13.436  1.00  0.00    -0.357 OA
HETATM   21  H9          0      32.330  63.623 -14.004  1.00  0.00     0.218 HD
ENDBRANCH  17  20
BRANCH  18  22
HETATM   22  O11         0      35.366  63.107 -11.870  1.00  0.00    -0.357 OA
HETATM   23  H11         0      36.191  63.453 -11.549  1.00  0.00     0.218 HD
ENDBRANCH  18  22
ENDBRANCH   4  14
BRANCH   8  24
HETATM   24  O17         0      31.290  71.498 -11.765  1.00  0.00    -0.359 OA
HETATM   25  H17         0      31.715  72.251 -12.158  1.00  0.00     0.218 HD
ENDBRANCH   8  24
TORSDOF 5
ENDMDL
MODEL 8
REMARK VINA RESULT:      -7.9      1.774      6.851
REMARK  5 active torsions:
REMARK  status: ('A' for Active; 'I' for Inactive)
REMARK    1  A    between atoms: C4_4  and  C5_5 
REMARK    2  A    between atoms: C8_8  and  O9_9 
REMARK    3  A    between atoms: C10_11  and  O11_12 
REMARK    4  A    between atoms: C16_18  and  O17_19 
REMARK    5  A    between atoms: C19_22  and  O20_23 
ROOT
HETATM    1  O1          0      31.529  64.362 -10.159  1.00  0.00    -0.286 OA
HETATM    2  C2          0      32.450  65.189  -9.913  1.00  0.00     0.201 C 
HETATM    3  C3          0      32.202  66.490  -9.511  1.00  0.00     0.067 C 
HETATM    4  C4          0      33.231  67.411  -9.347  1.00  0.00     0.103 C 
HETATM    5  O13         0      34.474  67.018  -9.562  1.00  0.00    -0.307 OA
HETATM    6  C14         0      34.761  65.805  -9.981  1.00  0.00     0.107 C 
HETATM    7  C15         0      35.976  65.508 -10.582  1.00  0.00     0.049 C 
HETATM    8  C16         0      36.177  64.304 -11.246  1.00  0.00     0.093 C 
HETATM    9  C18         0      35.357  63.262 -10.833  1.00  0.00     0.048 C 
HETATM   10  C19         0      34.156  63.522 -10.187  1.00  0.00     0.096 C 
HETATM   11  C21         0      33.785  64.816  -9.940  1.00  0.00     0.084 C 
ENDROOT
BRANCH  10  12
HETATM   12  O20         0      33.165  62.545 -10.173  1.00  0.00    -0.359 OA
HETATM   13  H20         0      32.263  62.827 -10.081  1.00  0.00     0.218 HD
ENDBRANCH  10  12
BRANCH   4  14
HETATM   14  C5          0      32.898  68.826  -9.522  1.00  0.00     0.025 C 
HETATM   15  C6          0      33.123  69.510 -10.708  1.00  0.00     0.004 C 
HETATM   16  C7          0      32.168  70.440 -11.106  1.00  0.00     0.026 C 
HETATM   17  C8          0      31.094  70.778 -10.290  1.00  0.00     0.112 C 
HETATM   18  C10         0      31.298  70.544  -8.936  1.00  0.00     0.112 C 
HETATM   19  C12         0      32.196  69.549  -8.567  1.00  0.00     0.028 C 
BRANCH  17  20
HETATM   20  O9          0      29.868  71.115 -10.835  1.00  0.00    -0.357 OA
HETATM   21  H9          0      29.248  71.701 -10.417  1.00  0.00     0.218 HD
ENDBRANCH  17  20
BRANCH  18  22
HETATM   22  O11         0      30.340  71.035  -8.062  1.00  0.00    -0.357 OA
HETATM   23  H11         0      29.763  71.714  -8.393  1.00  0.00     0.218 HD
ENDBRANCH  18  22
ENDBRANCH   4  14
BRANCH   8  24
HETATM   24  O17         0      36.895  64.245 -12.446  1.00  0.00    -0.359 OA
HETATM   25  H17         0      36.547  63.809 -13.215  1.00  0.00     0.218 HD
ENDBRANCH   8  24
TORSDOF 5
ENDMDL
MODEL 9
REMARK VINA RESULT:      -7.9      8.733     11.301
REMARK  5 active torsions:
REMARK  status: ('A' for Active; 'I' for Inactive)
REMARK    1  A    between atoms: C4_4  and  C5_5 
REMARK    2  A    between atoms: C8_8  and  O9_9 
REMARK    3  A    between atoms: C10_11  and  O11_12 
REMARK    4  A    between atoms: C16_18  and  O17_19 
REMARK    5  A    between atoms: C19_22  and  O20_23 
ROOT
HETATM    1  O1          0      27.481  65.188  -9.679  1.00  0.00    -0.286 OA
HETATM    2  C2          0      26.888  64.329 -10.387  1.00  0.00     0.201 C 
HETATM    3  C3          0      25.510  64.287 -10.519  1.00  0.00     0.067 C 
HETATM    4  C4          0      24.876  63.269 -11.222  1.00  0.00     0.103 C 
HETATM    5  O13         0      25.616  62.335 -11.792  1.00  0.00    -0.307 OA
HETATM    6  C14         0      26.925  62.306 -11.666  1.00  0.00     0.107 C 
HETATM    7  C15         0      27.658  61.152 -11.904  1.00  0.00     0.049 C 
HETATM    8  C16         0      28.992  61.054 -11.528  1.00  0.00     0.093 C 
HETATM    9  C18         0      29.662  62.267 -11.419  1.00  0.00     0.048 C 
HETATM   10  C19         0      28.957  63.447 -11.228  1.00  0.00     0.096 C 
HETATM   11  C21         0      27.590  63.419 -11.163  1.00  0.00     0.084 C 
ENDROOT
BRANCH  10  12
HETATM   12  O20         0      29.613  64.553 -10.694  1.00  0.00    -0.359 OA
HETATM   13  H20         0      30.531  64.460 -10.472  1.00  0.00     0.218 HD
ENDBRANCH  10  12
BRANCH   4  14
HETATM   14  C5          0      23.503  62.941 -10.833  1.00  0.00     0.025 C 
HETATM   15  C6          0      23.203  62.049  -9.814  1.00  0.00     0.004 C 
HETATM   16  C7          0      22.123  62.351  -8.990  1.00  0.00     0.026 C 
HETATM   17  C8          0      21.287  63.431  -9.251  1.00  0.00     0.112 C 
HETATM   18  C10         0      21.276  63.849 -10.574  1.00  0.00     0.112 C 
HETATM   19  C12         0      22.402  63.610 -11.352  1.00  0.00     0.028 C 
BRANCH  17  20
HETATM   20  O9          0      20.698  64.136  -8.217  1.00  0.00    -0.357 OA
HETATM   21  H9          0      21.159  64.769  -7.679  1.00  0.00     0.218 HD
ENDBRANCH  17  20
BRANCH  18  22
HETATM   22  O11         0      20.323  64.794 -10.927  1.00  0.00    -0.357 OA
HETATM   23  H11         0      19.416  64.510 -10.931  1.00  0.00     0.218 HD
ENDBRANCH  18  22
ENDBRANCH   4  14
BRANCH   8  24
HETATM   24  O17         0      29.511  59.875 -10.981  1.00  0.00    -0.359 OA
HETATM   25  H17         0      29.447  59.044 -11.436  1.00  0.00     0.218 HD
ENDBRANCH   8  24
TORSDOF 5
ENDMDL
