MODEL 1
REMARK VINA RESULT:      -1.1      0.000      0.000
REMARK  5 active torsions:
REMARK  status: ('A' for Active; 'I' for Inactive)
REMARK    1  A    between atoms: C4_4  and  C5_5 
REMARK    2  A    between atoms: C8_8  and  O9_9 
REMARK    3  A    between atoms: C10_11  and  O11_12 
REMARK    4  A    between atoms: C16_18  and  O17_19 
REMARK    5  A    between atoms: C19_22  and  O20_23 
ROOT
HETATM    1  O1          0      18.533  54.852  13.031  1.00  0.00    -0.286 OA
HETATM    2  C2          0      18.999  55.894  13.568  1.00  0.00     0.201 C 
HETATM    3  C3          0      18.911  56.141  14.927  1.00  0.00     0.067 C 
HETATM    4  C4          0      19.341  57.343  15.478  1.00  0.00     0.103 C 
HETATM    5  O13         0      19.863  58.257  14.680  1.00  0.00    -0.307 OA
HETATM    6  C14         0      19.936  58.088  13.378  1.00  0.00     0.107 C 
HETATM    7  C15         0      20.099  59.158  12.510  1.00  0.00     0.049 C 
HETATM    8  C16         0      19.921  59.009  11.140  1.00  0.00     0.093 C 
HETATM    9  C18         0      20.107  57.718  10.660  1.00  0.00     0.048 C 
HETATM   10  C19         0      19.998  56.627  11.511  1.00  0.00     0.096 C 
HETATM   11  C21         0      19.721  56.825  12.837  1.00  0.00     0.084 C 
ENDROOT
BRANCH  10  12
HETATM   12  O20         0      19.750  55.368  10.974  1.00  0.00    -0.359 OA
HETATM   13  H20         0      20.401  54.689  11.112  1.00  0.00     0.218 HD
ENDBRANCH  10  12
BRANCH   4  14
HETATM   14  C5          0      18.700  57.776  16.722  1.00  0.00     0.025 C 
HETATM   15  C6          0      18.443  59.109  17.010  1.00  0.00     0.004 C 
HETATM   16  C7          0      17.251  59.409  17.662  1.00  0.00     0.026 C 
HETATM   17  C8          0      16.405  58.410  18.132  1.00  0.00     0.112 C 
HETATM   18  C10         0      17.023  57.188  18.364  1.00  0.00     0.112 C 
HETATM   19  C12         0      18.166  56.878  17.636  1.00  0.00     0.028 C 
BRANCH  17  20
HETATM   20  O9          0      15.034  58.593  18.149  1.00  0.00    -0.357 OA
HETATM   21  H9          0      14.603  59.316  18.590  1.00  0.00     0.218 HD
ENDBRANCH  17  20
BRANCH  18  22
HETATM   22  O11         0      16.272  56.216  19.008  1.00  0.00    -0.357 OA
HETATM   23  H11         0      15.616  55.765  18.489  1.00  0.00     0.218 HD
ENDBRANCH  18  22
ENDBRANCH   4  14
BRANCH   8  24
HETATM   24  O17         0      19.282  59.993  10.377  1.00  0.00    -0.359 OA
HETATM   25  H17         0      19.070  59.855   9.461  1.00  0.00     0.218 HD
ENDBRANCH   8  24
TORSDOF 5
ENDMDL
MODEL 2
REMARK VINA RESULT:      -1.0      1.924      6.842
REMARK  5 active torsions:
REMARK  status: ('A' for Active; 'I' for Inactive)
REMARK    1  A    between atoms: C4_4  and  C5_5 
REMARK    2  A    between atoms: C8_8  and  O9_9 
REMARK    3  A    between atoms: C10_11  and  O11_12 
REMARK    4  A    between atoms: C16_18  and  O17_19 
REMARK    5  A    between atoms: C19_22  and  O20_23 
ROOT
HETATM    1  O1          0      15.313  57.601  15.798  1.00  0.00    -0.286 OA
HETATM    2  C2          0      16.286  58.401  15.722  1.00  0.00     0.201 C 
HETATM    3  C3          0      16.990  58.617  14.550  1.00  0.00     0.067 C 
HETATM    4  C4          0      18.122  59.424  14.518  1.00  0.00     0.103 C 
HETATM    5  O13         0      18.514  60.012  15.634  1.00  0.00    -0.307 OA
HETATM    6  C14         0      17.904  59.811  16.782  1.00  0.00     0.107 C 
HETATM    7  C15         0      18.520  60.083  17.995  1.00  0.00     0.049 C 
HETATM    8  C16         0      17.980  59.636  19.195  1.00  0.00     0.093 C 
HETATM    9  C18         0      16.610  59.405  19.171  1.00  0.00     0.048 C 
HETATM   10  C19         0      15.953  59.175  17.970  1.00  0.00     0.096 C 
HETATM   11  C21         0      16.658  59.194  16.797  1.00  0.00     0.084 C 
ENDROOT
BRANCH  10  12
HETATM   12  O20         0      14.721  58.529  17.980  1.00  0.00    -0.359 OA
HETATM   13  H20         0      13.976  58.985  17.607  1.00  0.00     0.218 HD
ENDBRANCH  10  12
BRANCH   4  14
HETATM   14  C5          0      19.117  59.141  13.482  1.00  0.00     0.025 C 
HETATM   15  C6          0      19.864  57.973  13.457  1.00  0.00     0.004 C 
HETATM   16  C7          0      20.122  57.399  12.216  1.00  0.00     0.026 C 
HETATM   17  C8          0      19.767  58.035  11.031  1.00  0.00     0.112 C 
HETATM   18  C10         0      19.624  59.412  11.132  1.00  0.00     0.112 C 
HETATM   19  C12         0      19.282  59.952  12.366  1.00  0.00     0.028 C 
BRANCH  17  20
HETATM   20  O9          0      19.387  57.302   9.920  1.00  0.00    -0.357 OA
HETATM   21  H9          0      18.770  56.581   9.949  1.00  0.00     0.218 HD
ENDBRANCH  17  20
BRANCH  18  22
HETATM   22  O11         0      19.457  60.115   9.947  1.00  0.00    -0.357 OA
HETATM   23  H11         0      19.114  59.632   9.205  1.00  0.00     0.218 HD
ENDBRANCH  18  22
ENDBRANCH   4  14
BRANCH   8  24
HETATM   24  O17         0      18.792  59.141  20.221  1.00  0.00    -0.359 OA
HETATM   25  H17         0      18.513  58.423  20.776  1.00  0.00     0.218 HD
ENDBRANCH   8  24
TORSDOF 5
ENDMDL
MODEL 3
REMARK VINA RESULT:      -0.9      4.254      7.294
REMARK  5 active torsions:
REMARK  status: ('A' for Active; 'I' for Inactive)
REMARK    1  A    between atoms: C4_4  and  C5_5 
REMARK    2  A    between atoms: C8_8  and  O9_9 
REMARK    3  A    between atoms: C10_11  and  O11_12 
REMARK    4  A    between atoms: C16_18  and  O17_19 
REMARK    5  A    between atoms: C19_22  and  O20_23 
ROOT
HETATM    1  O1          0      13.058  56.140  11.666  1.00  0.00    -0.286 OA
HETATM    2  C2          0      13.807  57.071  12.069  1.00  0.00     0.201 C 
HETATM    3  C3          0      15.117  57.218  11.644  1.00  0.00     0.067 C 
HETATM    4  C4          0      15.952  58.192  12.181  1.00  0.00     0.103 C 
HETATM    5  O13         0      15.468  59.004  13.105  1.00  0.00    -0.307 OA
HETATM    6  C14         0      14.244  58.883  13.570  1.00  0.00     0.107 C 
HETATM    7  C15         0      13.865  59.441  14.782  1.00  0.00     0.049 C 
HETATM    8  C16         0      12.661  59.102  15.388  1.00  0.00     0.093 C 
HETATM    9  C18         0      11.678  58.640  14.521  1.00  0.00     0.048 C 
HETATM   10  C19         0      12.019  58.118  13.281  1.00  0.00     0.096 C 
HETATM   11  C21         0      13.333  58.073  12.901  1.00  0.00     0.084 C 
ENDROOT
BRANCH  10  12
HETATM   12  O20         0      11.121  57.282  12.625  1.00  0.00    -0.359 OA
HETATM   13  H20         0      10.820  56.506  13.082  1.00  0.00     0.218 HD
ENDBRANCH  10  12
BRANCH   4  14
HETATM   14  C5          0      17.391  57.924  12.161  1.00  0.00     0.025 C 
HETATM   15  C6          0      17.949  56.773  12.697  1.00  0.00     0.004 C 
HETATM   16  C7          0      19.017  56.197  12.016  1.00  0.00     0.026 C 
HETATM   17  C8          0      19.598  56.815  10.914  1.00  0.00     0.112 C 
HETATM   18  C10         0      19.410  58.189  10.855  1.00  0.00     0.112 C 
HETATM   19  C12         0      18.288  58.730  11.473  1.00  0.00     0.028 C 
BRANCH  17  20
HETATM   20  O9          0      20.125  56.066   9.877  1.00  0.00    -0.357 OA
HETATM   21  H9          0      20.677  56.427   9.193  1.00  0.00     0.218 HD
ENDBRANCH  17  20
BRANCH  18  22
HETATM   22  O11         0      20.123  58.880   9.885  1.00  0.00    -0.357 OA
HETATM   23  H11         0      19.619  59.302   9.199  1.00  0.00     0.218 HD
ENDBRANCH  18  22
ENDBRANCH   4  14
BRANCH   8  24
HETATM   24  O17         0      12.568  58.918  16.772  1.00  0.00    -0.359 OA
HETATM   25  H17         0      12.012  58.246  17.150  1.00  0.00     0.218 HD
ENDBRANCH   8  24
TORSDOF 5
ENDMDL
MODEL 4
REMARK VINA RESULT:      -0.8      2.406      6.449
REMARK  5 active torsions:
REMARK  status: ('A' for Active; 'I' for Inactive)
REMARK    1  A    between atoms: C4_4  and  C5_5 
REMARK    2  A    between atoms: C8_8  and  O9_9 
REMARK    3  A    between atoms: C10_11  and  O11_12 
REMARK    4  A    between atoms: C16_18  and  O17_19 
REMARK    5  A    between atoms: C19_22  and  O20_23 
ROOT
HETATM    1  O1          0      15.288  56.052  14.696  1.00  0.00    -0.286 OA
HETATM    2  C2          0      15.985  57.038  15.062  1.00  0.00     0.201 C 
HETATM    3  C3          0      16.323  58.075  14.209  1.00  0.00     0.067 C 
HETATM    4  C4          0      17.176  59.097  14.608  1.00  0.00     0.103 C 
HETATM    5  O13         0      17.655  59.080  15.839  1.00  0.00    -0.307 OA
HETATM    6  C14         0      17.396  58.100  16.677  1.00  0.00     0.107 C 
HETATM    7  C15         0      18.186  57.863  17.792  1.00  0.00     0.049 C 
HETATM    8  C16         0      18.067  56.689  18.525  1.00  0.00     0.093 C 
HETATM    9  C18         0      16.831  56.060  18.429  1.00  0.00     0.048 C 
HETATM   10  C19         0      15.995  56.309  17.349  1.00  0.00     0.096 C 
HETATM   11  C21         0      16.383  57.195  16.381  1.00  0.00     0.084 C 
ENDROOT
BRANCH  10  12
HETATM   12  O20         0      15.001  55.389  17.032  1.00  0.00    -0.359 OA
HETATM   13  H20         0      14.739  54.768  17.701  1.00  0.00     0.218 HD
ENDBRANCH  10  12
BRANCH   4  14
HETATM   14  C5          0      17.945  59.774  13.562  1.00  0.00     0.025 C 
HETATM   15  C6          0      19.313  59.985  13.652  1.00  0.00     0.004 C 
HETATM   16  C7          0      20.064  59.851  12.489  1.00  0.00     0.026 C 
HETATM   17  C8          0      19.463  59.647  11.252  1.00  0.00     0.112 C 
HETATM   18  C10         0      18.145  60.077  11.170  1.00  0.00     0.112 C 
HETATM   19  C12         0      17.391  60.120  12.336  1.00  0.00     0.028 C 
BRANCH  17  20
HETATM   20  O9          0      20.084  58.885  10.278  1.00  0.00    -0.357 OA
HETATM   21  H9          0      20.974  59.033   9.980  1.00  0.00     0.218 HD
ENDBRANCH  17  20
BRANCH  18  22
HETATM   22  O11         0      17.559  60.071   9.912  1.00  0.00    -0.357 OA
HETATM   23  H11         0      18.098  59.774   9.188  1.00  0.00     0.218 HD
ENDBRANCH  18  22
ENDBRANCH   4  14
BRANCH   8  24
HETATM   24  O17         0      19.191  56.028  19.032  1.00  0.00    -0.359 OA
HETATM   25  H17         0      19.746  55.490  18.479  1.00  0.00     0.218 HD
ENDBRANCH   8  24
TORSDOF 5
ENDMDL
MODEL 5
REMARK VINA RESULT:      -0.8      2.852      6.825
REMARK  5 active torsions:
REMARK  status: ('A' for Active; 'I' for Inactive)
REMARK    1  A    between atoms: C4_4  and  C5_5 
REMARK    2  A    between atoms: C8_8  and  O9_9 
REMARK    3  A    between atoms: C10_11  and  O11_12 
REMARK    4  A    between atoms: C16_18  and  O17_19 
REMARK    5  A    between atoms: C19_22  and  O20_23 
ROOT
HETATM    1  O1          0      16.501  54.466  17.951  1.00  0.00    -0.286 OA
HETATM    2  C2          0      16.445  54.711  16.715  1.00  0.00     0.201 C 
HETATM    3  C3          0      17.440  54.333  15.829  1.00  0.00     0.067 C 
HETATM    4  C4          0      17.403  54.706  14.490  1.00  0.00     0.103 C 
HETATM    5  O13         0      16.379  55.421  14.058  1.00  0.00    -0.307 OA
HETATM    6  C14         0      15.427  55.837  14.864  1.00  0.00     0.107 C 
HETATM    7  C15         0      14.591  56.891  14.525  1.00  0.00     0.049 C 
HETATM    8  C16         0      13.765  57.490  15.469  1.00  0.00     0.093 C 
HETATM    9  C18         0      13.430  56.684  16.551  1.00  0.00     0.048 C 
HETATM   10  C19         0      14.219  55.594  16.890  1.00  0.00     0.096 C 
HETATM   11  C21         0      15.327  55.299  16.143  1.00  0.00     0.084 C 
ENDROOT
BRANCH  10  12
HETATM   12  O20         0      14.144  55.074  18.178  1.00  0.00    -0.359 OA
HETATM   13  H20         0      14.592  55.540  18.873  1.00  0.00     0.218 HD
ENDBRANCH  10  12
BRANCH   4  14
HETATM   14  C5          0      18.684  54.815  13.789  1.00  0.00     0.025 C 
HETATM   15  C6          0      19.424  53.708  13.399  1.00  0.00     0.004 C 
HETATM   16  C7          0      20.078  53.770  12.173  1.00  0.00     0.026 C 
HETATM   17  C8          0      20.108  54.939  11.420  1.00  0.00     0.112 C 
HETATM   18  C10         0      19.911  56.104  12.150  1.00  0.00     0.112 C 
HETATM   19  C12         0      19.181  56.028  13.330  1.00  0.00     0.028 C 
BRANCH  17  20
HETATM   20  O9          0      20.121  54.892  10.037  1.00  0.00    -0.357 OA
HETATM   21  H9          0      19.336  54.909   9.502  1.00  0.00     0.218 HD
ENDBRANCH  17  20
BRANCH  18  22
HETATM   22  O11         0      20.118  57.304  11.486  1.00  0.00    -0.357 OA
HETATM   23  H11         0      20.987  57.686  11.548  1.00  0.00     0.218 HD
ENDBRANCH  18  22
ENDBRANCH   4  14
BRANCH   8  24
HETATM   24  O17         0      13.575  58.876  15.497  1.00  0.00    -0.359 OA
HETATM   25  H17         0      14.306  59.479  15.554  1.00  0.00     0.218 HD
ENDBRANCH   8  24
TORSDOF 5
ENDMDL
MODEL 6
REMARK VINA RESULT:      -0.8      3.239      6.271
REMARK  5 active torsions:
REMARK  status: ('A' for Active; 'I' for Inactive)
REMARK    1  A    between atoms: C4_4  and  C5_5 
REMARK    2  A    between atoms: C8_8  and  O9_9 
REMARK    3  A    between atoms: C10_11  and  O11_12 
REMARK    4  A    between atoms: C16_18  and  O17_19 
REMARK    5  A    between atoms: C19_22  and  O20_23 
ROOT
HETATM    1  O1          0      14.424  54.640  12.974  1.00  0.00    -0.286 OA
HETATM    2  C2          0      15.538  55.024  13.425  1.00  0.00     0.201 C 
HETATM    3  C3          0      15.970  56.337  13.341  1.00  0.00     0.067 C 
HETATM    4  C4          0      17.244  56.713  13.753  1.00  0.00     0.103 C 
HETATM    5  O13         0      18.046  55.791  14.255  1.00  0.00    -0.307 OA
HETATM    6  C14         0      17.700  54.524  14.322  1.00  0.00     0.107 C 
HETATM    7  C15         0      18.642  53.515  14.461  1.00  0.00     0.049 C 
HETATM    8  C16         0      18.302  52.180  14.277  1.00  0.00     0.093 C 
HETATM    9  C18         0      16.961  51.883  14.483  1.00  0.00     0.048 C 
HETATM   10  C19         0      15.996  52.877  14.398  1.00  0.00     0.096 C 
HETATM   11  C21         0      16.371  54.165  14.126  1.00  0.00     0.084 C 
ENDROOT
BRANCH  10  12
HETATM   12  O20         0      14.670  52.522  14.169  1.00  0.00    -0.359 OA
HETATM   13  H20         0      14.084  52.485  14.916  1.00  0.00     0.218 HD
ENDBRANCH  10  12
BRANCH   4  14
HETATM   14  C5          0      17.835  57.889  13.113  1.00  0.00     0.025 C 
HETATM   15  C6          0      19.135  58.305  13.357  1.00  0.00     0.004 C 
HETATM   16  C7          0      19.866  58.801  12.283  1.00  0.00     0.026 C 
HETATM   17  C8          0      19.284  59.004  11.036  1.00  0.00     0.112 C 
HETATM   18  C10         0      17.906  59.168  11.060  1.00  0.00     0.112 C 
HETATM   19  C12         0      17.190  58.589  12.101  1.00  0.00     0.028 C 
BRANCH  17  20
HETATM   20  O9          0      20.018  58.836   9.875  1.00  0.00    -0.357 OA
HETATM   21  H9          0      19.698  58.370   9.111  1.00  0.00     0.218 HD
ENDBRANCH  17  20
BRANCH  18  22
HETATM   22  O11         0      17.299  59.560   9.875  1.00  0.00    -0.357 OA
HETATM   23  H11         0      16.641  60.243   9.934  1.00  0.00     0.218 HD
ENDBRANCH  18  22
ENDBRANCH   4  14
BRANCH   8  24
HETATM   24  O17         0      19.160  51.294  13.616  1.00  0.00    -0.359 OA
HETATM   25  H17         0      18.833  50.650  12.999  1.00  0.00     0.218 HD
ENDBRANCH   8  24
TORSDOF 5
ENDMDL
MODEL 7
REMARK VINA RESULT:      -0.7      3.757      7.054
REMARK  5 active torsions:
REMARK  status: ('A' for Active; 'I' for Inactive)
REMARK    1  A    between atoms: C4_4  and  C5_5 
REMARK    2  A    between atoms: C8_8  and  O9_9 
REMARK    3  A    between atoms: C10_11  and  O11_12 
REMARK    4  A    between atoms: C16_18  and  O17_19 
REMARK    5  A    between atoms: C19_22  and  O20_23 
ROOT
HETATM    1  O1          0      15.618  52.723  15.956  1.00  0.00    -0.286 OA
HETATM    2  C2          0      16.702  53.027  15.387  1.00  0.00     0.201 C 
HETATM    3  C3          0      16.899  54.239  14.747  1.00  0.00     0.067 C 
HETATM    4  C4          0      18.066  54.507  14.040  1.00  0.00     0.103 C 
HETATM    5  O13         0      19.011  53.585  14.000  1.00  0.00    -0.307 OA
HETATM    6  C14         0      18.859  52.404  14.559  1.00  0.00     0.107 C 
HETATM    7  C15         0      19.642  51.318  14.196  1.00  0.00     0.049 C 
HETATM    8  C16         0      19.315  50.027  14.595  1.00  0.00     0.093 C 
HETATM    9  C18         0      18.545  49.947  15.749  1.00  0.00     0.048 C 
HETATM   10  C19         0      17.786  51.032  16.167  1.00  0.00     0.096 C 
HETATM   11  C21         0      17.810  52.195  15.447  1.00  0.00     0.084 C 
ENDROOT
BRANCH  10  12
HETATM   12  O20         0      16.715  50.821  17.030  1.00  0.00    -0.359 OA
HETATM   13  H20         0      16.827  50.192  17.733  1.00  0.00     0.218 HD
ENDBRANCH  10  12
BRANCH   4  14
HETATM   14  C5          0      17.976  55.472  12.942  1.00  0.00     0.025 C 
HETATM   15  C6          0      17.467  56.752  13.105  1.00  0.00     0.004 C 
HETATM   16  C7          0      18.087  57.786  12.411  1.00  0.00     0.026 C 
HETATM   17  C8          0      19.093  57.541  11.482  1.00  0.00     0.112 C 
HETATM   18  C10         0      19.082  56.262  10.940  1.00  0.00     0.112 C 
HETATM   19  C12         0      18.532  55.231  11.692  1.00  0.00     0.028 C 
BRANCH  17  20
HETATM   20  O9          0      20.125  58.444  11.300  1.00  0.00    -0.357 OA
HETATM   21  H9          0      20.690  58.749  12.001  1.00  0.00     0.218 HD
ENDBRANCH  17  20
BRANCH  18  22
HETATM   22  O11         0      19.940  56.024   9.876  1.00  0.00    -0.357 OA
HETATM   23  H11         0      20.299  56.785   9.434  1.00  0.00     0.218 HD
ENDBRANCH  18  22
ENDBRANCH   4  14
BRANCH   8  24
HETATM   24  O17         0      19.458  48.938  13.729  1.00  0.00    -0.359 OA
HETATM   25  H17         0      19.189  48.062  13.979  1.00  0.00     0.218 HD
ENDBRANCH   8  24
TORSDOF 5
ENDMDL
MODEL 8
REMARK VINA RESULT:      -0.6      3.397      6.680
REMARK  5 active torsions:
REMARK  status: ('A' for Active; 'I' for Inactive)
REMARK    1  A    between atoms: C4_4  and  C5_5 
REMARK    2  A    between atoms: C8_8  and  O9_9 
REMARK    3  A    between atoms: C10_11  and  O11_12 
REMARK    4  A    between atoms: C16_18  and  O17_19 
REMARK    5  A    between atoms: C19_22  and  O20_23 
ROOT
HETATM    1  O1          0      19.915  53.345  14.598  1.00  0.00    -0.286 OA
HETATM    2  C2          0      18.795  53.724  14.159  1.00  0.00     0.201 C 
HETATM    3  C3          0      18.642  54.348  12.932  1.00  0.00     0.067 C 
HETATM    4  C4          0      17.413  54.849  12.517  1.00  0.00     0.103 C 
HETATM    5  O13         0      16.368  54.702  13.312  1.00  0.00    -0.307 OA
HETATM    6  C14         0      16.465  54.151  14.502  1.00  0.00     0.107 C 
HETATM    7  C15         0      15.501  54.348  15.480  1.00  0.00     0.049 C 
HETATM    8  C16         0      15.729  53.981  16.801  1.00  0.00     0.093 C 
HETATM    9  C18         0      16.673  52.977  16.977  1.00  0.00     0.048 C 
HETATM   10  C19         0      17.623  52.722  15.998  1.00  0.00     0.096 C 
HETATM   11  C21         0      17.620  53.454  14.842  1.00  0.00     0.084 C 
ENDROOT
BRANCH  10  12
HETATM   12  O20         0      18.793  52.052  16.343  1.00  0.00    -0.359 OA
HETATM   13  H20         0      19.333  52.426  17.029  1.00  0.00     0.218 HD
ENDBRANCH  10  12
BRANCH   4  14
HETATM   14  C5          0      17.430  55.968  11.573  1.00  0.00     0.025 C 
HETATM   15  C6          0      16.427  56.925  11.525  1.00  0.00     0.004 C 
HETATM   16  C7          0      16.806  58.243  11.288  1.00  0.00     0.026 C 
HETATM   17  C8          0      18.119  58.580  10.977  1.00  0.00     0.112 C 
HETATM   18  C10         0      18.871  57.545  10.438  1.00  0.00     0.112 C 
HETATM   19  C12         0      18.522  56.238  10.759  1.00  0.00     0.028 C 
BRANCH  17  20
HETATM   20  O9          0      18.655  59.789  11.382  1.00  0.00    -0.357 OA
HETATM   21  H9          0      19.507  59.877  11.794  1.00  0.00     0.218 HD
ENDBRANCH  17  20
BRANCH  18  22
HETATM   22  O11         0      20.122  57.872   9.936  1.00  0.00    -0.357 OA
HETATM   23  H11         0      20.709  57.151   9.740  1.00  0.00     0.218 HD
ENDBRANCH  18  22
ENDBRANCH   4  14
BRANCH   8  24
HETATM   24  O17         0      15.301  54.784  17.864  1.00  0.00    -0.359 OA
HETATM   25  H17         0      14.383  54.856  18.097  1.00  0.00     0.218 HD
ENDBRANCH   8  24
TORSDOF 5
ENDMDL
MODEL 9
REMARK VINA RESULT:      -0.6      3.230      4.660
REMARK  5 active torsions:
REMARK  status: ('A' for Active; 'I' for Inactive)
REMARK    1  A    between atoms: C4_4  and  C5_5 
REMARK    2  A    between atoms: C8_8  and  O9_9 
REMARK    3  A    between atoms: C10_11  and  O11_12 
REMARK    4  A    between atoms: C16_18  and  O17_19 
REMARK    5  A    between atoms: C19_22  and  O20_23 
ROOT
HETATM    1  O1          0      18.738  57.794  12.775  1.00  0.00    -0.286 OA
HETATM    2  C2          0      17.931  56.868  12.490  1.00  0.00     0.201 C 
HETATM    3  C3          0      16.755  56.655  13.189  1.00  0.00     0.067 C 
HETATM    4  C4          0      15.934  55.565  12.921  1.00  0.00     0.103 C 
HETATM    5  O13         0      16.283  54.730  11.958  1.00  0.00    -0.307 OA
HETATM    6  C14         0      17.407  54.865  11.288  1.00  0.00     0.107 C 
HETATM    7  C15         0      17.968  53.811  10.582  1.00  0.00     0.049 C 
HETATM    8  C16         0      19.268  53.880  10.094  1.00  0.00     0.093 C 
HETATM    9  C18         0      19.746  55.167   9.877  1.00  0.00     0.048 C 
HETATM   10  C19         0      19.176  56.250  10.532  1.00  0.00     0.096 C 
HETATM   11  C21         0      18.125  56.052  11.385  1.00  0.00     0.084 C 
ENDROOT
BRANCH  10  12
HETATM   12  O20         0      19.905  57.429  10.658  1.00  0.00    -0.359 OA
HETATM   13  H20         0      20.070  57.937   9.873  1.00  0.00     0.218 HD
ENDBRANCH  10  12
BRANCH   4  14
HETATM   14  C5          0      15.100  55.069  14.016  1.00  0.00     0.025 C 
HETATM   15  C6          0      14.578  53.784  14.041  1.00  0.00     0.004 C 
HETATM   16  C7          0      14.537  53.129  15.268  1.00  0.00     0.026 C 
HETATM   17  C8          0      14.876  53.775  16.452  1.00  0.00     0.112 C 
HETATM   18  C10         0      14.762  55.159  16.410  1.00  0.00     0.112 C 
HETATM   19  C12         0      14.892  55.795  15.182  1.00  0.00     0.028 C 
BRANCH  17  20
HETATM   20  O9          0      15.476  53.085  17.490  1.00  0.00    -0.357 OA
HETATM   21  H9          0      15.870  53.505  18.245  1.00  0.00     0.218 HD
ENDBRANCH  17  20
BRANCH  18  22
HETATM   22  O11         0      14.905  55.837  17.612  1.00  0.00    -0.357 OA
HETATM   23  H11         0      14.651  55.372  18.401  1.00  0.00     0.218 HD
ENDBRANCH  18  22
ENDBRANCH   4  14
BRANCH   8  24
HETATM   24  O17         0      20.125  52.775  10.144  1.00  0.00    -0.359 OA
HETATM   25  H17         0      20.741  52.653  10.857  1.00  0.00     0.218 HD
ENDBRANCH   8  24
TORSDOF 5
ENDMDL
