MODEL 1
REMARK VINA RESULT:      -0.0      0.000      0.000
REMARK  5 active torsions:
REMARK  status: ('A' for Active; 'I' for Inactive)
REMARK    1  A    between atoms: C4_4  and  C5_5 
REMARK    2  A    between atoms: C8_8  and  O9_9 
REMARK    3  A    between atoms: C10_11  and  O11_12 
REMARK    4  A    between atoms: C16_18  and  O17_19 
REMARK    5  A    between atoms: C19_22  and  O20_23 
ROOT
HETATM    1  O1          0      19.530  22.453 -33.825  1.00  0.00    -0.286 OA
HETATM    2  C2          0      19.454  21.210 -34.033  1.00  0.00     0.201 C 
HETATM    3  C3          0      20.548  20.440 -34.385  1.00  0.00     0.067 C 
HETATM    4  C4          0      20.419  19.094 -34.708  1.00  0.00     0.103 C 
HETATM    5  O13         0      19.220  18.541 -34.654  1.00  0.00    -0.307 OA
HETATM    6  C14         0      18.142  19.236 -34.362  1.00  0.00     0.107 C 
HETATM    7  C15         0      16.871  18.784 -34.687  1.00  0.00     0.049 C 
HETATM    8  C16         0      15.766  19.623 -34.610  1.00  0.00     0.093 C 
HETATM    9  C18         0      15.897  20.689 -33.728  1.00  0.00     0.048 C 
HETATM   10  C19         0      17.155  21.136 -33.345  1.00  0.00     0.096 C 
HETATM   11  C21         0      18.273  20.513 -33.827  1.00  0.00     0.084 C 
ENDROOT
BRANCH  10  12
HETATM   12  O20         0      17.293  22.425 -32.839  1.00  0.00    -0.359 OA
HETATM   13  H20         0      16.905  22.615 -31.993  1.00  0.00     0.218 HD
ENDBRANCH  10  12
BRANCH   4  14
HETATM   14  C5          0      21.418  18.522 -35.612  1.00  0.00     0.025 C 
HETATM   15  C6          0      21.157  17.432 -36.429  1.00  0.00     0.004 C 
HETATM   16  C7          0      21.710  17.438 -37.706  1.00  0.00     0.026 C 
HETATM   17  C8          0      22.601  18.425 -38.111  1.00  0.00     0.112 C 
HETATM   18  C10         0      23.267  19.066 -37.075  1.00  0.00     0.112 C 
HETATM   19  C12         0      22.653  19.120 -35.829  1.00  0.00     0.028 C 
BRANCH  17  20
HETATM   20  O9          0      22.636  18.853 -39.427  1.00  0.00    -0.357 OA
HETATM   21  H9          0      21.883  18.836 -40.007  1.00  0.00     0.218 HD
ENDBRANCH  17  20
BRANCH  18  22
HETATM   22  O11         0      24.300  19.922 -37.426  1.00  0.00    -0.357 OA
HETATM   23  H11         0      24.846  19.660 -38.159  1.00  0.00     0.218 HD
ENDBRANCH  18  22
ENDBRANCH   4  14
BRANCH   8  24
HETATM   24  O17         0      14.758  19.592 -35.581  1.00  0.00    -0.359 OA
HETATM   25  H17         0      14.120  18.889 -35.615  1.00  0.00     0.218 HD
ENDBRANCH   8  24
TORSDOF 5
ENDMDL
MODEL 2
REMARK VINA RESULT:      -0.0     11.118     13.105
REMARK  5 active torsions:
REMARK  status: ('A' for Active; 'I' for Inactive)
REMARK    1  A    between atoms: C4_4  and  C5_5 
REMARK    2  A    between atoms: C8_8  and  O9_9 
REMARK    3  A    between atoms: C10_11  and  O11_12 
REMARK    4  A    between atoms: C16_18  and  O17_19 
REMARK    5  A    between atoms: C19_22  and  O20_23 
ROOT
HETATM    1  O1          0      18.263  21.094 -20.509  1.00  0.00    -0.286 OA
HETATM    2  C2          0      18.773  21.247 -21.652  1.00  0.00     0.201 C 
HETATM    3  C3          0      19.183  22.479 -22.132  1.00  0.00     0.067 C 
HETATM    4  C4          0      19.646  22.637 -23.433  1.00  0.00     0.103 C 
HETATM    5  O13         0      19.711  21.575 -24.217  1.00  0.00    -0.307 OA
HETATM    6  C14         0      19.299  20.390 -23.824  1.00  0.00     0.107 C 
HETATM    7  C15         0      18.990  19.386 -24.730  1.00  0.00     0.049 C 
HETATM    8  C16         0      18.319  18.236 -24.332  1.00  0.00     0.093 C 
HETATM    9  C18         0      18.458  17.911 -22.988  1.00  0.00     0.048 C 
HETATM   10  C19         0      18.813  18.882 -22.061  1.00  0.00     0.096 C 
HETATM   11  C21         0      19.044  20.165 -22.476  1.00  0.00     0.084 C 
ENDROOT
BRANCH  10  12
HETATM   12  O20         0      18.530  18.672 -20.715  1.00  0.00    -0.359 OA
HETATM   13  H20         0      17.841  19.193 -20.318  1.00  0.00     0.218 HD
ENDBRANCH  10  12
BRANCH   4  14
HETATM   14  C5          0      19.485  23.957 -24.046  1.00  0.00     0.025 C 
HETATM   15  C6          0      19.380  24.142 -25.417  1.00  0.00     0.004 C 
HETATM   16  C7          0      18.493  25.113 -25.871  1.00  0.00     0.026 C 
HETATM   17  C8          0      17.833  25.965 -24.993  1.00  0.00     0.112 C 
HETATM   18  C10         0      18.459  26.130 -23.764  1.00  0.00     0.112 C 
HETATM   19  C12         0      19.273  25.106 -23.295  1.00  0.00     0.028 C 
BRANCH  17  20
HETATM   20  O9          0      16.557  26.421 -25.272  1.00  0.00    -0.357 OA
HETATM   21  H9          0      15.823  26.337 -24.674  1.00  0.00     0.218 HD
ENDBRANCH  17  20
BRANCH  18  22
HETATM   22  O11         0      17.947  27.110 -22.925  1.00  0.00    -0.357 OA
HETATM   23  H11         0      18.364  27.209 -22.076  1.00  0.00     0.218 HD
ENDBRANCH  18  22
ENDBRANCH   4  14
BRANCH   8  24
HETATM   24  O17         0      17.325  17.658 -25.129  1.00  0.00    -0.359 OA
HETATM   25  H17         0      16.573  17.220 -24.750  1.00  0.00     0.218 HD
ENDBRANCH   8  24
TORSDOF 5
ENDMDL
MODEL 3
REMARK VINA RESULT:       0.0      3.151      6.574
REMARK  5 active torsions:
REMARK  status: ('A' for Active; 'I' for Inactive)
REMARK    1  A    between atoms: C4_4  and  C5_5 
REMARK    2  A    between atoms: C8_8  and  O9_9 
REMARK    3  A    between atoms: C10_11  and  O11_12 
REMARK    4  A    between atoms: C16_18  and  O17_19 
REMARK    5  A    between atoms: C19_22  and  O20_23 
ROOT
HETATM    1  O1          0      24.708  20.414 -35.715  1.00  0.00    -0.286 OA
HETATM    2  C2          0      23.525  20.593 -35.315  1.00  0.00     0.201 C 
HETATM    3  C3          0      23.109  21.762 -34.700  1.00  0.00     0.067 C 
HETATM    4  C4          0      21.828  21.895 -34.177  1.00  0.00     0.103 C 
HETATM    5  O13         0      20.987  20.882 -34.292  1.00  0.00    -0.307 OA
HETATM    6  C14         0      21.342  19.737 -34.833  1.00  0.00     0.107 C 
HETATM    7  C15         0      20.630  18.569 -34.604  1.00  0.00     0.049 C 
HETATM    8  C16         0      21.144  17.328 -34.962  1.00  0.00     0.093 C 
HETATM    9  C18         0      22.084  17.355 -35.986  1.00  0.00     0.048 C 
HETATM   10  C19         0      22.781  18.521 -36.272  1.00  0.00     0.096 C 
HETATM   11  C21         0      22.530  19.657 -35.552  1.00  0.00     0.084 C 
ENDROOT
BRANCH  10  12
HETATM   12  O20         0      23.986  18.440 -36.964  1.00  0.00    -0.359 OA
HETATM   13  H20         0      23.966  18.550 -37.907  1.00  0.00     0.218 HD
ENDBRANCH  10  12
BRANCH   4  14
HETATM   14  C5          0      21.651  22.835 -33.068  1.00  0.00     0.025 C 
HETATM   15  C6          0      20.647  22.700 -32.121  1.00  0.00     0.004 C 
HETATM   16  C7          0      20.958  23.016 -30.802  1.00  0.00     0.026 C 
HETATM   17  C8          0      22.184  23.575 -30.456  1.00  0.00     0.112 C 
HETATM   18  C10         0      22.831  24.239 -31.490  1.00  0.00     0.112 C 
HETATM   19  C12         0      22.565  23.845 -32.796  1.00  0.00     0.028 C 
BRANCH  17  20
HETATM   20  O9          0      22.774  23.291 -29.237  1.00  0.00    -0.357 OA
HETATM   21  H9          0      22.742  22.437 -28.822  1.00  0.00     0.218 HD
ENDBRANCH  17  20
BRANCH  18  22
HETATM   22  O11         0      23.960  24.973 -31.156  1.00  0.00    -0.357 OA
HETATM   23  H11         0      24.549  24.589 -30.517  1.00  0.00     0.218 HD
ENDBRANCH  18  22
ENDBRANCH   4  14
BRANCH   8  24
HETATM   24  O17         0      20.985  16.208 -34.139  1.00  0.00    -0.359 OA
HETATM   25  H17         0      20.286  16.155 -33.498  1.00  0.00     0.218 HD
ENDBRANCH   8  24
TORSDOF 5
ENDMDL
MODEL 4
REMARK VINA RESULT:       0.0     10.985     12.659
REMARK  5 active torsions:
REMARK  status: ('A' for Active; 'I' for Inactive)
REMARK    1  A    between atoms: C4_4  and  C5_5 
REMARK    2  A    between atoms: C8_8  and  O9_9 
REMARK    3  A    between atoms: C10_11  and  O11_12 
REMARK    4  A    between atoms: C16_18  and  O17_19 
REMARK    5  A    between atoms: C19_22  and  O20_23 
ROOT
HETATM    1  O1          0      24.656  14.227 -26.255  1.00  0.00    -0.286 OA
HETATM    2  C2          0      24.005  15.025 -25.527  1.00  0.00     0.201 C 
HETATM    3  C3          0      23.138  15.973 -26.042  1.00  0.00     0.067 C 
HETATM    4  C4          0      22.511  16.907 -25.225  1.00  0.00     0.103 C 
HETATM    5  O13         0      22.741  16.869 -23.924  1.00  0.00    -0.307 OA
HETATM    6  C14         0      23.585  16.014 -23.388  1.00  0.00     0.107 C 
HETATM    7  C15         0      24.129  16.216 -22.128  1.00  0.00     0.049 C 
HETATM    8  C16         0      25.201  15.457 -21.675  1.00  0.00     0.093 C 
HETATM    9  C18         0      25.331  14.209 -22.273  1.00  0.00     0.048 C 
HETATM   10  C19         0      24.759  13.958 -23.512  1.00  0.00     0.096 C 
HETATM   11  C21         0      24.047  14.941 -24.143  1.00  0.00     0.084 C 
ENDROOT
BRANCH  10  12
HETATM   12  O20         0      25.241  12.905 -24.283  1.00  0.00    -0.359 OA
HETATM   13  H20         0      25.257  12.039 -23.894  1.00  0.00     0.218 HD
ENDBRANCH  10  12
BRANCH   4  14
HETATM   14  C5          0      22.130  18.182 -25.836  1.00  0.00     0.025 C 
HETATM   15  C6          0      22.015  19.359 -25.110  1.00  0.00     0.004 C 
HETATM   16  C7          0      22.447  20.534 -25.716  1.00  0.00     0.026 C 
HETATM   17  C8          0      22.855  20.563 -27.045  1.00  0.00     0.112 C 
HETATM   18  C10         0      22.347  19.536 -27.829  1.00  0.00     0.112 C 
HETATM   19  C12         0      22.002  18.340 -27.209  1.00  0.00     0.028 C 
BRANCH  17  20
HETATM   20  O9          0      23.850  21.429 -27.463  1.00  0.00    -0.357 OA
HETATM   21  H9          0      24.665  21.144 -27.859  1.00  0.00     0.218 HD
ENDBRANCH  17  20
BRANCH  18  22
HETATM   22  O11         0      22.567  19.622 -29.197  1.00  0.00    -0.357 OA
HETATM   23  H11         0      22.179  18.944 -29.738  1.00  0.00     0.218 HD
ENDBRANCH  18  22
ENDBRANCH   4  14
BRANCH   8  24
HETATM   24  O17         0      26.243  16.032 -20.939  1.00  0.00    -0.359 OA
HETATM   25  H17         0      27.144  15.752 -21.047  1.00  0.00     0.218 HD
ENDBRANCH   8  24
TORSDOF 5
ENDMDL
MODEL 5
REMARK VINA RESULT:       0.0      2.715      3.581
REMARK  5 active torsions:
REMARK  status: ('A' for Active; 'I' for Inactive)
REMARK    1  A    between atoms: C4_4  and  C5_5 
REMARK    2  A    between atoms: C8_8  and  O9_9 
REMARK    3  A    between atoms: C10_11  and  O11_12 
REMARK    4  A    between atoms: C16_18  and  O17_19 
REMARK    5  A    between atoms: C19_22  and  O20_23 
ROOT
HETATM    1  O1          0      22.183  22.892 -31.695  1.00  0.00    -0.286 OA
HETATM    2  C2          0      22.273  21.747 -32.216  1.00  0.00     0.201 C 
HETATM    3  C3          0      23.455  21.251 -32.739  1.00  0.00     0.067 C 
HETATM    4  C4          0      23.503  20.028 -33.399  1.00  0.00     0.103 C 
HETATM    5  O13         0      22.393  19.320 -33.505  1.00  0.00    -0.307 OA
HETATM    6  C14         0      21.237  19.761 -33.059  1.00  0.00     0.107 C 
HETATM    7  C15         0      20.033  19.237 -33.506  1.00  0.00     0.049 C 
HETATM    8  C16         0      18.825  19.867 -33.232  1.00  0.00     0.093 C 
HETATM    9  C18         0      18.829  20.678 -32.103  1.00  0.00     0.048 C 
HETATM   10  C19         0      20.022  21.182 -31.601  1.00  0.00     0.096 C 
HETATM   11  C21         0      21.204  20.864 -32.212  1.00  0.00     0.084 C 
ENDROOT
BRANCH  10  12
HETATM   12  O20         0      19.994  22.304 -30.779  1.00  0.00    -0.359 OA
HETATM   13  H20         0      19.556  23.083 -31.104  1.00  0.00     0.218 HD
ENDBRANCH  10  12
BRANCH   4  14
HETATM   14  C5          0      24.551  19.851 -34.405  1.00  0.00     0.025 C 
HETATM   15  C6          0      24.423  18.982 -35.479  1.00  0.00     0.004 C 
HETATM   16  C7          0      24.941  19.391 -36.704  1.00  0.00     0.026 C 
HETATM   17  C8          0      25.679  20.562 -36.830  1.00  0.00     0.112 C 
HETATM   18  C10         0      26.275  21.001 -35.655  1.00  0.00     0.112 C 
HETATM   19  C12         0      25.688  20.649 -34.445  1.00  0.00     0.028 C 
BRANCH  17  20
HETATM   20  O9          0      25.626  21.313 -37.991  1.00  0.00    -0.357 OA
HETATM   21  H9          0      25.841  20.972 -38.851  1.00  0.00     0.218 HD
ENDBRANCH  17  20
BRANCH  18  22
HETATM   22  O11         0      27.173  22.054 -35.760  1.00  0.00    -0.357 OA
HETATM   23  H11         0      27.549  22.381 -34.951  1.00  0.00     0.218 HD
ENDBRANCH  18  22
ENDBRANCH   4  14
BRANCH   8  24
HETATM   24  O17         0      17.809  19.946 -34.191  1.00  0.00    -0.359 OA
HETATM   25  H17         0      17.997  19.907 -35.121  1.00  0.00     0.218 HD
ENDBRANCH   8  24
TORSDOF 5
ENDMDL
MODEL 6
REMARK VINA RESULT:       0.0      6.881      7.963
REMARK  5 active torsions:
REMARK  status: ('A' for Active; 'I' for Inactive)
REMARK    1  A    between atoms: C4_4  and  C5_5 
REMARK    2  A    between atoms: C8_8  and  O9_9 
REMARK    3  A    between atoms: C10_11  and  O11_12 
REMARK    4  A    between atoms: C16_18  and  O17_19 
REMARK    5  A    between atoms: C19_22  and  O20_23 
ROOT
HETATM    1  O1          0      19.338  21.788 -28.115  1.00  0.00    -0.286 OA
HETATM    2  C2          0      19.436  22.538 -29.125  1.00  0.00     0.201 C 
HETATM    3  C3          0      20.653  22.936 -29.649  1.00  0.00     0.067 C 
HETATM    4  C4          0      20.733  23.844 -30.699  1.00  0.00     0.103 C 
HETATM    5  O13         0      19.612  24.317 -31.215  1.00  0.00    -0.307 OA
HETATM    6  C14         0      18.431  24.001 -30.730  1.00  0.00     0.107 C 
HETATM    7  C15         0      17.306  24.773 -30.983  1.00  0.00     0.049 C 
HETATM    8  C16         0      16.127  24.585 -30.272  1.00  0.00     0.093 C 
HETATM    9  C18         0      15.966  23.317 -29.728  1.00  0.00     0.048 C 
HETATM   10  C19         0      17.065  22.499 -29.505  1.00  0.00     0.096 C 
HETATM   11  C21         0      18.317  22.939 -29.839  1.00  0.00     0.084 C 
ENDROOT
BRANCH  10  12
HETATM   12  O20         0      16.963  21.456 -28.590  1.00  0.00    -0.359 OA
HETATM   13  H20         0      16.150  21.364 -28.109  1.00  0.00     0.218 HD
ENDBRANCH  10  12
BRANCH   4  14
HETATM   14  C5          0      21.949  24.654 -30.794  1.00  0.00     0.025 C 
HETATM   15  C6          0      21.974  25.907 -31.389  1.00  0.00     0.004 C 
HETATM   16  C7          0      22.770  26.884 -30.801  1.00  0.00     0.026 C 
HETATM   17  C8          0      23.618  26.591 -29.737  1.00  0.00     0.112 C 
HETATM   18  C10         0      23.989  25.257 -29.642  1.00  0.00     0.112 C 
HETATM   19  C12         0      23.133  24.294 -30.164  1.00  0.00     0.028 C 
BRANCH  17  20
HETATM   20  O9          0      23.874  27.532 -28.756  1.00  0.00    -0.357 OA
HETATM   21  H9          0      24.743  27.855 -28.547  1.00  0.00     0.218 HD
ENDBRANCH  17  20
BRANCH  18  22
HETATM   22  O11         0      24.977  24.944 -28.720  1.00  0.00    -0.357 OA
HETATM   23  H11         0      24.765  24.285 -28.068  1.00  0.00     0.218 HD
ENDBRANCH  18  22
ENDBRANCH   4  14
BRANCH   8  24
HETATM   24  O17         0      15.346  25.669 -29.856  1.00  0.00    -0.359 OA
HETATM   25  H17         0      15.734  26.446 -29.472  1.00  0.00     0.218 HD
ENDBRANCH   8  24
TORSDOF 5
ENDMDL
MODEL 7
REMARK VINA RESULT:       0.0      8.427      9.403
REMARK  5 active torsions:
REMARK  status: ('A' for Active; 'I' for Inactive)
REMARK    1  A    between atoms: C4_4  and  C5_5 
REMARK    2  A    between atoms: C8_8  and  O9_9 
REMARK    3  A    between atoms: C10_11  and  O11_12 
REMARK    4  A    between atoms: C16_18  and  O17_19 
REMARK    5  A    between atoms: C19_22  and  O20_23 
ROOT
HETATM    1  O1          0      18.215  21.869 -28.746  1.00  0.00    -0.286 OA
HETATM    2  C2          0      18.254  21.338 -27.602  1.00  0.00     0.201 C 
HETATM    3  C3          0      19.413  21.262 -26.849  1.00  0.00     0.067 C 
HETATM    4  C4          0      19.451  20.582 -25.637  1.00  0.00     0.103 C 
HETATM    5  O13         0      18.343  20.014 -25.192  1.00  0.00    -0.307 OA
HETATM    6  C14         0      17.226  20.025 -25.885  1.00  0.00     0.107 C 
HETATM    7  C15         0      16.203  19.121 -25.636  1.00  0.00     0.049 C 
HETATM    8  C16         0      15.144  18.967 -26.523  1.00  0.00     0.093 C 
HETATM    9  C18         0      14.888  20.071 -27.328  1.00  0.00     0.048 C 
HETATM   10  C19         0      15.875  21.019 -27.561  1.00  0.00     0.096 C 
HETATM   11  C21         0      17.105  20.875 -26.979  1.00  0.00     0.084 C 
ENDROOT
BRANCH  10  12
HETATM   12  O20         0      15.771  21.850 -28.672  1.00  0.00    -0.359 OA
HETATM   13  H20         0      15.848  22.786 -28.536  1.00  0.00     0.218 HD
ENDBRANCH  10  12
BRANCH   4  14
HETATM   14  C5          0      20.742  20.032 -25.218  1.00  0.00     0.025 C 
HETATM   15  C6          0      20.854  18.928 -24.385  1.00  0.00     0.004 C 
HETATM   16  C7          0      21.874  18.021 -24.651  1.00  0.00     0.026 C 
HETATM   17  C8          0      22.833  18.268 -25.628  1.00  0.00     0.112 C 
HETATM   18  C10         0      23.012  19.609 -25.938  1.00  0.00     0.112 C 
HETATM   19  C12         0      21.947  20.480 -25.742  1.00  0.00     0.028 C 
BRANCH  17  20
HETATM   20  O9          0      23.387  17.230 -26.356  1.00  0.00    -0.357 OA
HETATM   21  H9          0      23.309  17.147 -27.299  1.00  0.00     0.218 HD
ENDBRANCH  17  20
BRANCH  18  22
HETATM   22  O11         0      24.082  19.926 -26.763  1.00  0.00    -0.357 OA
HETATM   23  H11         0      24.723  19.242 -26.918  1.00  0.00     0.218 HD
ENDBRANCH  18  22
ENDBRANCH   4  14
BRANCH   8  24
HETATM   24  O17         0      14.614  17.705 -26.814  1.00  0.00    -0.359 OA
HETATM   25  H17         0      14.520  17.397 -27.707  1.00  0.00     0.218 HD
ENDBRANCH   8  24
TORSDOF 5
ENDMDL
MODEL 8
REMARK VINA RESULT:       0.0     11.122     13.274
REMARK  5 active torsions:
REMARK  status: ('A' for Active; 'I' for Inactive)
REMARK    1  A    between atoms: C4_4  and  C5_5 
REMARK    2  A    between atoms: C8_8  and  O9_9 
REMARK    3  A    between atoms: C10_11  and  O11_12 
REMARK    4  A    between atoms: C16_18  and  O17_19 
REMARK    5  A    between atoms: C19_22  and  O20_23 
ROOT
HETATM    1  O1          0      15.882  22.187 -26.631  1.00  0.00    -0.286 OA
HETATM    2  C2          0      15.510  23.201 -25.978  1.00  0.00     0.201 C 
HETATM    3  C3          0      16.309  24.319 -25.809  1.00  0.00     0.067 C 
HETATM    4  C4          0      15.917  25.380 -25.001  1.00  0.00     0.103 C 
HETATM    5  O13         0      14.742  25.318 -24.399  1.00  0.00    -0.307 OA
HETATM    6  C14         0      13.961  24.265 -24.496  1.00  0.00     0.107 C 
HETATM    7  C15         0      12.948  24.019 -23.580  1.00  0.00     0.049 C 
HETATM    8  C16         0      12.299  22.791 -23.534  1.00  0.00     0.093 C 
HETATM    9  C18         0      12.324  22.069 -24.721  1.00  0.00     0.048 C 
HETATM   10  C19         0      13.297  22.321 -25.680  1.00  0.00     0.096 C 
HETATM   11  C21         0      14.227  23.300 -25.462  1.00  0.00     0.084 C 
ENDROOT
BRANCH  10  12
HETATM   12  O20         0      13.587  21.345 -26.628  1.00  0.00    -0.359 OA
HETATM   13  H20         0      14.113  21.595 -27.378  1.00  0.00     0.218 HD
ENDBRANCH  10  12
BRANCH   4  14
HETATM   14  C5          0      16.977  26.189 -24.396  1.00  0.00     0.025 C 
HETATM   15  C6          0      16.807  26.883 -23.207  1.00  0.00     0.004 C 
HETATM   16  C7          0      17.882  26.922 -22.324  1.00  0.00     0.026 C 
HETATM   17  C8          0      19.126  26.404 -22.667  1.00  0.00     0.112 C 
HETATM   18  C10         0      19.365  26.324 -24.032  1.00  0.00     0.112 C 
HETATM   19  C12         0      18.276  26.201 -24.887  1.00  0.00     0.028 C 
BRANCH  17  20
HETATM   20  O9          0      19.943  25.829 -21.709  1.00  0.00    -0.357 OA
HETATM   21  H9          0      19.710  25.052 -21.214  1.00  0.00     0.218 HD
ENDBRANCH  17  20
BRANCH  18  22
HETATM   22  O11         0      20.654  25.994 -24.426  1.00  0.00    -0.357 OA
HETATM   23  H11         0      20.779  25.134 -24.810  1.00  0.00     0.218 HD
ENDBRANCH  18  22
ENDBRANCH   4  14
BRANCH   8  24
HETATM   24  O17         0      11.954  22.194 -22.317  1.00  0.00    -0.359 OA
HETATM   25  H17         0      12.158  22.604 -21.485  1.00  0.00     0.218 HD
ENDBRANCH   8  24
TORSDOF 5
ENDMDL
MODEL 9
REMARK VINA RESULT:       0.0      8.023     10.315
REMARK  5 active torsions:
REMARK  status: ('A' for Active; 'I' for Inactive)
REMARK    1  A    between atoms: C4_4  and  C5_5 
REMARK    2  A    between atoms: C8_8  and  O9_9 
REMARK    3  A    between atoms: C10_11  and  O11_12 
REMARK    4  A    between atoms: C16_18  and  O17_19 
REMARK    5  A    between atoms: C19_22  and  O20_23 
ROOT
HETATM    1  O1          0      13.724  18.009 -25.491  1.00  0.00    -0.286 OA
HETATM    2  C2          0      13.167  18.588 -26.463  1.00  0.00     0.201 C 
HETATM    3  C3          0      12.617  17.901 -27.532  1.00  0.00     0.067 C 
HETATM    4  C4          0      12.102  18.565 -28.639  1.00  0.00     0.103 C 
HETATM    5  O13         0      12.125  19.886 -28.653  1.00  0.00    -0.307 OA
HETATM    6  C14         0      12.669  20.587 -27.683  1.00  0.00     0.107 C 
HETATM    7  C15         0      13.055  21.908 -27.862  1.00  0.00     0.049 C 
HETATM    8  C16         0      13.853  22.559 -26.929  1.00  0.00     0.093 C 
HETATM    9  C18         0      13.787  22.045 -25.639  1.00  0.00     0.048 C 
HETATM   10  C19         0      13.361  20.742 -25.420  1.00  0.00     0.096 C 
HETATM   11  C21         0      12.986  19.963 -26.481  1.00  0.00     0.084 C 
ENDROOT
BRANCH  10  12
HETATM   12  O20         0      13.705  20.105 -24.232  1.00  0.00    -0.359 OA
HETATM   13  H20         0      13.256  20.372 -23.438  1.00  0.00     0.218 HD
ENDBRANCH  10  12
BRANCH   4  14
HETATM   14  C5          0      12.108  17.846 -29.914  1.00  0.00     0.025 C 
HETATM   15  C6          0      12.153  18.492 -31.141  1.00  0.00     0.004 C 
HETATM   16  C7          0      12.920  17.912 -32.147  1.00  0.00     0.026 C 
HETATM   17  C8          0      13.513  16.665 -31.984  1.00  0.00     0.112 C 
HETATM   18  C10         0      12.910  15.856 -31.031  1.00  0.00     0.112 C 
HETATM   19  C12         0      12.221  16.464 -29.989  1.00  0.00     0.028 C 
BRANCH  17  20
HETATM   20  O9          0      14.726  16.374 -32.583  1.00  0.00    -0.357 OA
HETATM   21  H9          0      15.538  16.825 -32.379  1.00  0.00     0.218 HD
ENDBRANCH  17  20
BRANCH  18  22
HETATM   22  O11         0      13.341  14.538 -30.962  1.00  0.00    -0.357 OA
HETATM   23  H11         0      13.470  14.084 -31.787  1.00  0.00     0.218 HD
ENDBRANCH  18  22
ENDBRANCH   4  14
BRANCH   8  24
HETATM   24  O17         0      14.877  23.426 -27.324  1.00  0.00    -0.359 OA
HETATM   25  H17         0      15.760  23.114 -27.488  1.00  0.00     0.218 HD
ENDBRANCH   8  24
TORSDOF 5
ENDMDL
