MODEL 1
REMARK VINA RESULT:      -0.8      0.000      0.000
REMARK  5 active torsions:
REMARK  status: ('A' for Active; 'I' for Inactive)
REMARK    1  A    between atoms: C4_4  and  C5_5 
REMARK    2  A    between atoms: C8_8  and  O9_9 
REMARK    3  A    between atoms: C10_11  and  O11_12 
REMARK    4  A    between atoms: C16_18  and  O17_19 
REMARK    5  A    between atoms: C19_22  and  O20_23 
ROOT
HETATM    1  O1          0      17.456  18.630  15.560  1.00  0.00    -0.286 OA
HETATM    2  C2          0      17.232  18.795  14.329  1.00  0.00     0.201 C 
HETATM    3  C3          0      16.067  19.366  13.848  1.00  0.00     0.067 C 
HETATM    4  C4          0      15.801  19.442  12.485  1.00  0.00     0.103 C 
HETATM    5  O13         0      16.699  18.974  11.636  1.00  0.00    -0.307 OA
HETATM    6  C14         0      17.805  18.389  12.041  1.00  0.00     0.107 C 
HETATM    7  C15         0      18.539  17.558  11.207  1.00  0.00     0.049 C 
HETATM    8  C16         0      19.552  16.747  11.706  1.00  0.00     0.093 C 
HETATM    9  C18         0      20.125  17.188  12.893  1.00  0.00     0.048 C 
HETATM   10  C19         0      19.437  18.057  13.729  1.00  0.00     0.096 C 
HETATM   11  C21         0      18.191  18.497  13.373  1.00  0.00     0.084 C 
ENDROOT
BRANCH  10  12
HETATM   12  O20         0      19.801  18.144  15.069  1.00  0.00    -0.359 OA
HETATM   13  H20         0      19.396  17.540  15.680  1.00  0.00     0.218 HD
ENDBRANCH  10  12
BRANCH   4  14
HETATM   14  C5          0      14.395  19.475  12.078  1.00  0.00     0.025 C 
HETATM   15  C6          0      13.947  18.937  10.880  1.00  0.00     0.004 C 
HETATM   16  C7          0      12.718  18.285  10.886  1.00  0.00     0.026 C 
HETATM   17  C8          0      11.899  18.282  12.010  1.00  0.00     0.112 C 
HETATM   18  C10         0      12.121  19.332  12.891  1.00  0.00     0.112 C 
HETATM   19  C12         0      13.384  19.910  12.925  1.00  0.00     0.028 C 
BRANCH  17  20
HETATM   20  O9          0      11.094  17.195  12.298  1.00  0.00    -0.357 OA
HETATM   21  H9          0      11.150  16.361  11.844  1.00  0.00     0.218 HD
ENDBRANCH  17  20
BRANCH  18  22
HETATM   22  O11         0      11.212  19.485  13.928  1.00  0.00    -0.357 OA
HETATM   23  H11         0      10.890  18.691  14.338  1.00  0.00     0.218 HD
ENDBRANCH  18  22
ENDBRANCH   4  14
BRANCH   8  24
HETATM   24  O17         0      19.737  15.441  11.239  1.00  0.00    -0.359 OA
HETATM   25  H17         0      19.313  14.699  11.653  1.00  0.00     0.218 HD
ENDBRANCH   8  24
TORSDOF 5
ENDMDL
MODEL 2
REMARK VINA RESULT:      -0.7      3.621      6.484
REMARK  5 active torsions:
REMARK  status: ('A' for Active; 'I' for Inactive)
REMARK    1  A    between atoms: C4_4  and  C5_5 
REMARK    2  A    between atoms: C8_8  and  O9_9 
REMARK    3  A    between atoms: C10_11  and  O11_12 
REMARK    4  A    between atoms: C16_18  and  O17_19 
REMARK    5  A    between atoms: C19_22  and  O20_23 
ROOT
HETATM    1  O1          0      15.456  19.665  17.667  1.00  0.00    -0.286 OA
HETATM    2  C2          0      16.689  19.671  17.402  1.00  0.00     0.201 C 
HETATM    3  C3          0      17.179  19.799  16.113  1.00  0.00     0.067 C 
HETATM    4  C4          0      18.538  19.699  15.837  1.00  0.00     0.103 C 
HETATM    5  O13         0      19.376  19.497  16.839  1.00  0.00    -0.307 OA
HETATM    6  C14         0      18.961  19.331  18.075  1.00  0.00     0.107 C 
HETATM    7  C15         0      19.759  18.735  19.041  1.00  0.00     0.049 C 
HETATM    8  C16         0      19.234  18.333  20.263  1.00  0.00     0.093 C 
HETATM    9  C18         0      18.087  19.009  20.661  1.00  0.00     0.048 C 
HETATM   10  C19         0      17.290  19.657  19.726  1.00  0.00     0.096 C 
HETATM   11  C21         0      17.646  19.643  18.405  1.00  0.00     0.084 C 
ENDROOT
BRANCH  10  12
HETATM   12  O20         0      15.966  19.942  20.042  1.00  0.00    -0.359 OA
HETATM   13  H20         0      15.625  19.617  20.867  1.00  0.00     0.218 HD
ENDBRANCH  10  12
BRANCH   4  14
HETATM   14  C5          0      18.918  19.245  14.498  1.00  0.00     0.025 C 
HETATM   15  C6          0      20.125  18.614  14.232  1.00  0.00     0.004 C 
HETATM   16  C7          0      20.118  17.571  13.311  1.00  0.00     0.026 C 
HETATM   17  C8          0      18.980  17.252  12.579  1.00  0.00     0.112 C 
HETATM   18  C10         0      18.067  18.290  12.444  1.00  0.00     0.112 C 
HETATM   19  C12         0      18.038  19.275  13.424  1.00  0.00     0.028 C 
BRANCH  17  20
HETATM   20  O9          0      18.714  15.944  12.216  1.00  0.00    -0.357 OA
HETATM   21  H9          0      18.136  15.701  11.502  1.00  0.00     0.218 HD
ENDBRANCH  17  20
BRANCH  18  22
HETATM   22  O11         0      17.009  18.087  11.570  1.00  0.00    -0.357 OA
HETATM   23  H11         0      17.163  18.287  10.654  1.00  0.00     0.218 HD
ENDBRANCH  18  22
ENDBRANCH   4  14
BRANCH   8  24
HETATM   24  O17         0      19.626  17.132  20.866  1.00  0.00    -0.359 OA
HETATM   25  H17         0      20.539  16.878  20.925  1.00  0.00     0.218 HD
ENDBRANCH   8  24
TORSDOF 5
ENDMDL
MODEL 3
REMARK VINA RESULT:      -0.7      1.322      1.397
REMARK  5 active torsions:
REMARK  status: ('A' for Active; 'I' for Inactive)
REMARK    1  A    between atoms: C4_4  and  C5_5 
REMARK    2  A    between atoms: C8_8  and  O9_9 
REMARK    3  A    between atoms: C10_11  and  O11_12 
REMARK    4  A    between atoms: C16_18  and  O17_19 
REMARK    5  A    between atoms: C19_22  and  O20_23 
ROOT
HETATM    1  O1          0      17.837  19.623  16.122  1.00  0.00    -0.286 OA
HETATM    2  C2          0      17.353  19.380  14.983  1.00  0.00     0.201 C 
HETATM    3  C3          0      16.042  19.673  14.647  1.00  0.00     0.067 C 
HETATM    4  C4          0      15.503  19.302  13.420  1.00  0.00     0.103 C 
HETATM    5  O13         0      16.276  18.672  12.552  1.00  0.00    -0.307 OA
HETATM    6  C14         0      17.515  18.337  12.835  1.00  0.00     0.107 C 
HETATM    7  C15         0      18.187  17.354  12.122  1.00  0.00     0.049 C 
HETATM    8  C16         0      19.390  16.827  12.577  1.00  0.00     0.093 C 
HETATM    9  C18         0      20.113  17.659  13.423  1.00  0.00     0.048 C 
HETATM   10  C19         0      19.480  18.683  14.116  1.00  0.00     0.096 C 
HETATM   11  C21         0      18.137  18.884  13.952  1.00  0.00     0.084 C 
ENDROOT
BRANCH  10  12
HETATM   12  O20         0      20.085  19.210  15.253  1.00  0.00    -0.359 OA
HETATM   13  H20         0      19.687  19.026  16.095  1.00  0.00     0.218 HD
ENDBRANCH  10  12
BRANCH   4  14
HETATM   14  C5          0      14.056  19.087  13.361  1.00  0.00     0.025 C 
HETATM   15  C6          0      13.443  18.371  12.343  1.00  0.00     0.004 C 
HETATM   16  C7          0      12.374  17.550  12.686  1.00  0.00     0.026 C 
HETATM   17  C8          0      11.844  17.541  13.972  1.00  0.00     0.112 C 
HETATM   18  C10         0      12.083  18.696  14.705  1.00  0.00     0.112 C 
HETATM   19  C12         0      13.206  19.453  14.397  1.00  0.00     0.028 C 
BRANCH  17  20
HETATM   20  O9          0      11.317  16.383  14.514  1.00  0.00    -0.357 OA
HETATM   21  H9          0      10.481  16.011  14.255  1.00  0.00     0.218 HD
ENDBRANCH  17  20
BRANCH  18  22
HETATM   22  O11         0      11.420  18.819  15.918  1.00  0.00    -0.357 OA
HETATM   23  H11         0      11.840  19.348  16.586  1.00  0.00     0.218 HD
ENDBRANCH  18  22
ENDBRANCH   4  14
BRANCH   8  24
HETATM   24  O17         0      19.675  15.461  12.469  1.00  0.00    -0.359 OA
HETATM   25  H17         0      19.519  14.981  11.664  1.00  0.00     0.218 HD
ENDBRANCH   8  24
TORSDOF 5
ENDMDL
MODEL 4
REMARK VINA RESULT:      -0.7      3.505      5.718
REMARK  5 active torsions:
REMARK  status: ('A' for Active; 'I' for Inactive)
REMARK    1  A    between atoms: C4_4  and  C5_5 
REMARK    2  A    between atoms: C8_8  and  O9_9 
REMARK    3  A    between atoms: C10_11  and  O11_12 
REMARK    4  A    between atoms: C16_18  and  O17_19 
REMARK    5  A    between atoms: C19_22  and  O20_23 
ROOT
HETATM    1  O1          0      16.478  18.463  17.529  1.00  0.00    -0.286 OA
HETATM    2  C2          0      17.288  17.752  16.873  1.00  0.00     0.201 C 
HETATM    3  C3          0      17.980  18.226  15.772  1.00  0.00     0.067 C 
HETATM    4  C4          0      18.789  17.394  15.005  1.00  0.00     0.103 C 
HETATM    5  O13         0      18.908  16.126  15.357  1.00  0.00    -0.307 OA
HETATM    6  C14         0      18.244  15.616  16.371  1.00  0.00     0.107 C 
HETATM    7  C15         0      18.047  14.249  16.502  1.00  0.00     0.049 C 
HETATM    8  C16         0      17.139  13.736  17.422  1.00  0.00     0.093 C 
HETATM    9  C18         0      16.871  14.563  18.506  1.00  0.00     0.048 C 
HETATM   10  C19         0      17.101  15.930  18.424  1.00  0.00     0.096 C 
HETATM   11  C21         0      17.612  16.465  17.273  1.00  0.00     0.084 C 
ENDROOT
BRANCH  10  12
HETATM   12  O20         0      16.445  16.784  19.306  1.00  0.00    -0.359 OA
HETATM   13  H20         0      16.955  17.188  19.997  1.00  0.00     0.218 HD
ENDBRANCH  10  12
BRANCH   4  14
HETATM   14  C5          0      18.983  17.757  13.600  1.00  0.00     0.025 C 
HETATM   15  C6          0      20.022  17.255  12.830  1.00  0.00     0.004 C 
HETATM   16  C7          0      19.749  16.948  11.501  1.00  0.00     0.026 C 
HETATM   17  C8          0      18.524  17.255  10.918  1.00  0.00     0.112 C 
HETATM   18  C10         0      17.827  18.282  11.540  1.00  0.00     0.112 C 
HETATM   19  C12         0      18.057  18.512  12.892  1.00  0.00     0.028 C 
BRANCH  17  20
HETATM   20  O9          0      17.983  16.444   9.937  1.00  0.00    -0.357 OA
HETATM   21  H9          0      17.659  15.565  10.097  1.00  0.00     0.218 HD
ENDBRANCH  17  20
BRANCH  18  22
HETATM   22  O11         0      16.694  18.755  10.893  1.00  0.00    -0.357 OA
HETATM   23  H11         0      16.402  19.630  11.123  1.00  0.00     0.218 HD
ENDBRANCH  18  22
ENDBRANCH   4  14
BRANCH   8  24
HETATM   24  O17         0      16.320  12.646  17.107  1.00  0.00    -0.359 OA
HETATM   25  H17         0      16.288  12.283  16.230  1.00  0.00     0.218 HD
ENDBRANCH   8  24
TORSDOF 5
ENDMDL
MODEL 5
REMARK VINA RESULT:      -0.6      1.991      6.468
REMARK  5 active torsions:
REMARK  status: ('A' for Active; 'I' for Inactive)
REMARK    1  A    between atoms: C4_4  and  C5_5 
REMARK    2  A    between atoms: C8_8  and  O9_9 
REMARK    3  A    between atoms: C10_11  and  O11_12 
REMARK    4  A    between atoms: C16_18  and  O17_19 
REMARK    5  A    between atoms: C19_22  and  O20_23 
ROOT
HETATM    1  O1          0      14.020  15.128  13.805  1.00  0.00    -0.286 OA
HETATM    2  C2          0      14.473  15.978  12.991  1.00  0.00     0.201 C 
HETATM    3  C3          0      15.804  16.359  12.965  1.00  0.00     0.067 C 
HETATM    4  C4          0      16.256  17.372  12.127  1.00  0.00     0.103 C 
HETATM    5  O13         0      15.390  17.965  11.325  1.00  0.00    -0.307 OA
HETATM    6  C14         0      14.109  17.668  11.336  1.00  0.00     0.107 C 
HETATM    7  C15         0      13.154  18.529  10.814  1.00  0.00     0.049 C 
HETATM    8  C16         0      11.799  18.335  11.054  1.00  0.00     0.093 C 
HETATM    9  C18         0      11.437  17.026  11.347  1.00  0.00     0.048 C 
HETATM   10  C19         0      12.378  16.124  11.827  1.00  0.00     0.096 C 
HETATM   11  C21         0      13.676  16.523  11.995  1.00  0.00     0.084 C 
ENDROOT
BRANCH  10  12
HETATM   12  O20         0      11.948  14.994  12.515  1.00  0.00    -0.359 OA
HETATM   13  H20         0      11.048  14.971  12.815  1.00  0.00     0.218 HD
ENDBRANCH  10  12
BRANCH   4  14
HETATM   14  C5          0      17.445  18.112  12.553  1.00  0.00     0.025 C 
HETATM   15  C6          0      17.516  19.497  12.531  1.00  0.00     0.004 C 
HETATM   16  C7          0      18.183  20.125  13.578  1.00  0.00     0.026 C 
HETATM   17  C8          0      18.872  19.399  14.543  1.00  0.00     0.112 C 
HETATM   18  C10         0      19.271  18.131  14.140  1.00  0.00     0.112 C 
HETATM   19  C12         0      18.534  17.491  13.150  1.00  0.00     0.028 C 
BRANCH  17  20
HETATM   20  O9          0      18.948  19.849  15.850  1.00  0.00    -0.357 OA
HETATM   21  H9          0      18.189  20.064  16.379  1.00  0.00     0.218 HD
ENDBRANCH  17  20
BRANCH  18  22
HETATM   22  O11         0      20.121  17.439  14.991  1.00  0.00    -0.357 OA
HETATM   23  H11         0      20.740  16.842  14.588  1.00  0.00     0.218 HD
ENDBRANCH  18  22
ENDBRANCH   4  14
BRANCH   8  24
HETATM   24  O17         0      10.942  19.411  11.311  1.00  0.00    -0.359 OA
HETATM   25  H17         0      11.207  20.139  11.860  1.00  0.00     0.218 HD
ENDBRANCH   8  24
TORSDOF 5
ENDMDL
MODEL 6
REMARK VINA RESULT:      -0.6      2.106      2.307
REMARK  5 active torsions:
REMARK  status: ('A' for Active; 'I' for Inactive)
REMARK    1  A    between atoms: C4_4  and  C5_5 
REMARK    2  A    between atoms: C8_8  and  O9_9 
REMARK    3  A    between atoms: C10_11  and  O11_12 
REMARK    4  A    between atoms: C16_18  and  O17_19 
REMARK    5  A    between atoms: C19_22  and  O20_23 
ROOT
HETATM    1  O1          0      17.659  15.640  15.339  1.00  0.00    -0.286 OA
HETATM    2  C2          0      17.197  16.367  14.418  1.00  0.00     0.201 C 
HETATM    3  C3          0      15.858  16.710  14.333  1.00  0.00     0.067 C 
HETATM    4  C4          0      15.356  17.427  13.253  1.00  0.00     0.103 C 
HETATM    5  O13         0      16.190  17.802  12.298  1.00  0.00    -0.307 OA
HETATM    6  C14         0      17.462  17.471  12.311  1.00  0.00     0.107 C 
HETATM    7  C15         0      18.237  17.504  11.161  1.00  0.00     0.049 C 
HETATM    8  C16         0      19.497  16.917  11.122  1.00  0.00     0.093 C 
HETATM    9  C18         0      20.125  16.794  12.355  1.00  0.00     0.048 C 
HETATM   10  C19         0      19.384  16.804  13.529  1.00  0.00     0.096 C 
HETATM   11  C21         0      18.025  16.953  13.472  1.00  0.00     0.084 C 
ENDROOT
BRANCH  10  12
HETATM   12  O20         0      19.933  16.258  14.685  1.00  0.00    -0.359 OA
HETATM   13  H20         0      20.489  15.493  14.595  1.00  0.00     0.218 HD
ENDBRANCH  10  12
BRANCH   4  14
HETATM   14  C5          0      13.944  17.235  12.920  1.00  0.00     0.025 C 
HETATM   15  C6          0      13.444  17.402  11.636  1.00  0.00     0.004 C 
HETATM   16  C7          0      12.459  16.518  11.208  1.00  0.00     0.026 C 
HETATM   17  C8          0      11.892  15.585  12.069  1.00  0.00     0.112 C 
HETATM   18  C10         0      11.981  15.910  13.416  1.00  0.00     0.112 C 
HETATM   19  C12         0      13.027  16.727  13.831  1.00  0.00     0.028 C 
BRANCH  17  20
HETATM   20  O9          0      11.476  14.351  11.603  1.00  0.00    -0.357 OA
HETATM   21  H9          0      10.592  14.170  11.303  1.00  0.00     0.218 HD
ENDBRANCH  17  20
BRANCH  18  22
HETATM   22  O11         0      11.271  15.113  14.303  1.00  0.00    -0.357 OA
HETATM   23  H11         0      10.405  15.415  14.554  1.00  0.00     0.218 HD
ENDBRANCH  18  22
ENDBRANCH   4  14
BRANCH   8  24
HETATM   24  O17         0      19.937  16.209   9.998  1.00  0.00    -0.359 OA
HETATM   25  H17         0      19.928  15.260   9.971  1.00  0.00     0.218 HD
ENDBRANCH   8  24
TORSDOF 5
ENDMDL
MODEL 7
REMARK VINA RESULT:      -0.5      3.972      5.632
REMARK  5 active torsions:
REMARK  status: ('A' for Active; 'I' for Inactive)
REMARK    1  A    between atoms: C4_4  and  C5_5 
REMARK    2  A    between atoms: C8_8  and  O9_9 
REMARK    3  A    between atoms: C10_11  and  O11_12 
REMARK    4  A    between atoms: C16_18  and  O17_19 
REMARK    5  A    between atoms: C19_22  and  O20_23 
ROOT
HETATM    1  O1          0      15.714  14.359  15.852  1.00  0.00    -0.286 OA
HETATM    2  C2          0      16.892  14.683  15.537  1.00  0.00     0.201 C 
HETATM    3  C3          0      17.193  15.859  14.870  1.00  0.00     0.067 C 
HETATM    4  C4          0      18.485  16.144  14.444  1.00  0.00     0.103 C 
HETATM    5  O13         0      19.445  15.274  14.703  1.00  0.00    -0.307 OA
HETATM    6  C14         0      19.207  14.126  15.299  1.00  0.00     0.107 C 
HETATM    7  C15         0      20.094  13.063  15.218  1.00  0.00     0.049 C 
HETATM    8  C16         0      19.729  11.786  15.627  1.00  0.00     0.093 C 
HETATM    9  C18         0      18.706  11.740  16.566  1.00  0.00     0.048 C 
HETATM   10  C19         0      17.828  12.807  16.706  1.00  0.00     0.096 C 
HETATM   11  C21         0      17.982  13.919  15.924  1.00  0.00     0.084 C 
ENDROOT
BRANCH  10  12
HETATM   12  O20         0      16.589  12.595  17.302  1.00  0.00    -0.359 OA
HETATM   13  H20         0      15.834  12.491  16.735  1.00  0.00     0.218 HD
ENDBRANCH  10  12
BRANCH   4  14
HETATM   14  C5          0      18.628  17.027  13.285  1.00  0.00     0.025 C 
HETATM   15  C6          0      19.140  16.596  12.070  1.00  0.00     0.004 C 
HETATM   16  C7          0      18.558  17.099  10.910  1.00  0.00     0.026 C 
HETATM   17  C8          0      17.590  18.097  10.954  1.00  0.00     0.112 C 
HETATM   18  C10         0      17.613  18.878  12.101  1.00  0.00     0.112 C 
HETATM   19  C12         0      18.123  18.321  13.268  1.00  0.00     0.028 C 
BRANCH  17  20
HETATM   20  O9          0      16.574  18.140  10.016  1.00  0.00    -0.357 OA
HETATM   21  H9          0      15.659  17.984  10.221  1.00  0.00     0.218 HD
ENDBRANCH  17  20
BRANCH  18  22
HETATM   22  O11         0      16.799  20.001  12.114  1.00  0.00    -0.357 OA
HETATM   23  H11         0      16.299  20.160  12.906  1.00  0.00     0.218 HD
ENDBRANCH  18  22
ENDBRANCH   4  14
BRANCH   8  24
HETATM   24  O17         0      20.118  10.651  14.907  1.00  0.00    -0.359 OA
HETATM   25  H17         0      20.937  10.204  15.084  1.00  0.00     0.218 HD
ENDBRANCH   8  24
TORSDOF 5
ENDMDL
MODEL 8
REMARK VINA RESULT:      -0.5      4.459      6.443
REMARK  5 active torsions:
REMARK  status: ('A' for Active; 'I' for Inactive)
REMARK    1  A    between atoms: C4_4  and  C5_5 
REMARK    2  A    between atoms: C8_8  and  O9_9 
REMARK    3  A    between atoms: C10_11  and  O11_12 
REMARK    4  A    between atoms: C16_18  and  O17_19 
REMARK    5  A    between atoms: C19_22  and  O20_23 
ROOT
HETATM    1  O1          0      16.499  13.196  15.797  1.00  0.00    -0.286 OA
HETATM    2  C2          0      16.787  13.457  14.597  1.00  0.00     0.201 C 
HETATM    3  C3          0      17.656  14.474  14.238  1.00  0.00     0.067 C 
HETATM    4  C4          0      17.877  14.807  12.906  1.00  0.00     0.103 C 
HETATM    5  O13         0      17.254  14.117  11.968  1.00  0.00    -0.307 OA
HETATM    6  C14         0      16.391  13.167  12.255  1.00  0.00     0.107 C 
HETATM    7  C15         0      15.456  12.725  11.330  1.00  0.00     0.049 C 
HETATM    8  C16         0      14.392  11.915  11.709  1.00  0.00     0.093 C 
HETATM    9  C18         0      14.606  11.168  12.861  1.00  0.00     0.048 C 
HETATM   10  C19         0      15.566  11.556  13.786  1.00  0.00     0.096 C 
HETATM   11  C21         0      16.320  12.673  13.553  1.00  0.00     0.084 C 
ENDROOT
BRANCH  10  12
HETATM   12  O20         0      15.480  11.088  15.094  1.00  0.00    -0.359 OA
HETATM   13  H20         0      14.644  10.749  15.391  1.00  0.00     0.218 HD
ENDBRANCH  10  12
BRANCH   4  14
HETATM   14  C5          0      18.280  16.184  12.619  1.00  0.00     0.025 C 
HETATM   15  C6          0      17.565  17.014  11.767  1.00  0.00     0.004 C 
HETATM   16  C7          0      17.455  18.356  12.118  1.00  0.00     0.026 C 
HETATM   17  C8          0      18.142  18.885  13.204  1.00  0.00     0.112 C 
HETATM   18  C10         0      19.273  18.171  13.579  1.00  0.00     0.112 C 
HETATM   19  C12         0      19.320  16.812  13.292  1.00  0.00     0.028 C 
BRANCH  17  20
HETATM   20  O9          0      17.599  19.912  13.956  1.00  0.00    -0.357 OA
HETATM   21  H9          0      16.695  19.929  14.250  1.00  0.00     0.218 HD
ENDBRANCH  17  20
BRANCH  18  22
HETATM   22  O11         0      20.098  18.754  14.530  1.00  0.00    -0.357 OA
HETATM   23  H11         0      20.343  19.661  14.389  1.00  0.00     0.218 HD
ENDBRANCH  18  22
ENDBRANCH   4  14
BRANCH   8  24
HETATM   24  O17         0      13.111  12.096  11.176  1.00  0.00    -0.359 OA
HETATM   25  H17         0      12.959  12.118  10.239  1.00  0.00     0.218 HD
ENDBRANCH   8  24
TORSDOF 5
ENDMDL
MODEL 9
REMARK VINA RESULT:      -0.5      3.344      6.898
REMARK  5 active torsions:
REMARK  status: ('A' for Active; 'I' for Inactive)
REMARK    1  A    between atoms: C4_4  and  C5_5 
REMARK    2  A    between atoms: C8_8  and  O9_9 
REMARK    3  A    between atoms: C10_11  and  O11_12 
REMARK    4  A    between atoms: C16_18  and  O17_19 
REMARK    5  A    between atoms: C19_22  and  O20_23 
ROOT
HETATM    1  O1          0      15.001  14.524  16.342  1.00  0.00    -0.286 OA
HETATM    2  C2          0      14.758  15.527  15.616  1.00  0.00     0.201 C 
HETATM    3  C3          0      15.662  16.021  14.691  1.00  0.00     0.067 C 
HETATM    4  C4          0      15.410  17.188  13.978  1.00  0.00     0.103 C 
HETATM    5  O13         0      14.269  17.822  14.181  1.00  0.00    -0.307 OA
HETATM    6  C14         0      13.393  17.417  15.074  1.00  0.00     0.107 C 
HETATM    7  C15         0      12.414  18.263  15.573  1.00  0.00     0.049 C 
HETATM    8  C16         0      11.661  17.917  16.689  1.00  0.00     0.093 C 
HETATM    9  C18         0      11.557  16.552  16.926  1.00  0.00     0.048 C 
HETATM   10  C19         0      12.494  15.671  16.402  1.00  0.00     0.096 C 
HETATM   11  C21         0      13.519  16.150  15.632  1.00  0.00     0.084 C 
ENDROOT
BRANCH  10  12
HETATM   12  O20         0      12.643  14.414  16.979  1.00  0.00    -0.359 OA
HETATM   13  H20         0      13.496  14.182  17.325  1.00  0.00     0.218 HD
ENDBRANCH  10  12
BRANCH   4  14
HETATM   14  C5          0      16.570  17.953  13.516  1.00  0.00     0.025 C 
HETATM   15  C6          0      16.689  19.323  13.700  1.00  0.00     0.004 C 
HETATM   16  C7          0      17.950  19.825  14.007  1.00  0.00     0.026 C 
HETATM   17  C8          0      19.079  19.014  14.000  1.00  0.00     0.112 C 
HETATM   18  C10         0      18.969  17.874  13.215  1.00  0.00     0.112 C 
HETATM   19  C12         0      17.704  17.344  12.994  1.00  0.00     0.028 C 
BRANCH  17  20
HETATM   20  O9          0      20.123  19.243  14.879  1.00  0.00    -0.357 OA
HETATM   21  H9          0      20.192  20.018  15.425  1.00  0.00     0.218 HD
ENDBRANCH  17  20
BRANCH  18  22
HETATM   22  O11         0      20.125  17.130  13.021  1.00  0.00    -0.357 OA
HETATM   23  H11         0      20.346  16.905  12.124  1.00  0.00     0.218 HD
ENDBRANCH  18  22
ENDBRANCH   4  14
BRANCH   8  24
HETATM   24  O17         0      11.331  18.861  17.667  1.00  0.00    -0.359 OA
HETATM   25  H17         0      11.005  18.602  18.521  1.00  0.00     0.218 HD
ENDBRANCH   8  24
TORSDOF 5
ENDMDL
