MODEL 1
REMARK VINA RESULT:      -8.3      0.000      0.000
REMARK  5 active torsions:
REMARK  status: ('A' for Active; 'I' for Inactive)
REMARK    1  A    between atoms: C4_4  and  C5_5 
REMARK    2  A    between atoms: C8_8  and  O9_9 
REMARK    3  A    between atoms: C10_11  and  O11_12 
REMARK    4  A    between atoms: C16_18  and  O17_19 
REMARK    5  A    between atoms: C19_22  and  O20_23 
ROOT
HETATM    1  O1          0      33.701  60.063 -13.733  1.00  0.00    -0.286 OA
HETATM    2  C2          0      33.370  60.605 -12.643  1.00  0.00     0.201 C 
HETATM    3  C3          0      32.056  60.693 -12.216  1.00  0.00     0.067 C 
HETATM    4  C4          0      31.709  61.386 -11.062  1.00  0.00     0.103 C 
HETATM    5  O13         0      32.666  61.955 -10.352  1.00  0.00    -0.307 OA
HETATM    6  C14         0      33.925  61.934 -10.731  1.00  0.00     0.107 C 
HETATM    7  C15         0      34.853  62.838 -10.235  1.00  0.00     0.049 C 
HETATM    8  C16         0      36.106  62.980 -10.818  1.00  0.00     0.093 C 
HETATM    9  C18         0      36.557  61.867 -11.519  1.00  0.00     0.048 C 
HETATM   10  C19         0      35.659  60.919 -11.990  1.00  0.00     0.096 C 
HETATM   11  C21         0      34.321  61.072 -11.748  1.00  0.00     0.084 C 
ENDROOT
BRANCH  10  12
HETATM   12  O20         0      36.042  60.076 -13.029  1.00  0.00    -0.359 OA
HETATM   13  H20         0      36.952  60.089 -13.300  1.00  0.00     0.218 HD
ENDBRANCH  10  12
BRANCH   4  14
HETATM   14  C5          0      30.356  61.943 -10.997  1.00  0.00     0.025 C 
HETATM   15  C6          0      30.090  63.293 -11.176  1.00  0.00     0.004 C 
HETATM   16  C7          0      28.937  63.635 -11.876  1.00  0.00     0.026 C 
HETATM   17  C8          0      28.010  62.676 -12.268  1.00  0.00     0.112 C 
HETATM   18  C10         0      28.035  61.506 -11.521  1.00  0.00     0.112 C 
HETATM   19  C12         0      29.225  61.143 -10.901  1.00  0.00     0.028 C 
BRANCH  17  20
HETATM   20  O9          0      27.290  62.823 -13.440  1.00  0.00    -0.357 OA
HETATM   21  H9          0      26.578  62.249 -13.698  1.00  0.00     0.218 HD
ENDBRANCH  17  20
BRANCH  18  22
HETATM   22  O11         0      27.012  60.595 -11.745  1.00  0.00    -0.357 OA
HETATM   23  H11         0      26.697  60.109 -10.992  1.00  0.00     0.218 HD
ENDBRANCH  18  22
ENDBRANCH   4  14
BRANCH   8  24
HETATM   24  O17         0      36.701  64.237 -10.974  1.00  0.00    -0.359 OA
HETATM   25  H17         0      36.660  64.710 -11.796  1.00  0.00     0.218 HD
ENDBRANCH   8  24
TORSDOF 5
ENDMDL
MODEL 2
REMARK VINA RESULT:      -8.2      5.271      8.080
REMARK  5 active torsions:
REMARK  status: ('A' for Active; 'I' for Inactive)
REMARK    1  A    between atoms: C4_4  and  C5_5 
REMARK    2  A    between atoms: C8_8  and  O9_9 
REMARK    3  A    between atoms: C10_11  and  O11_12 
REMARK    4  A    between atoms: C16_18  and  O17_19 
REMARK    5  A    between atoms: C19_22  and  O20_23 
ROOT
HETATM    1  O1          0      33.588  70.099 -10.938  1.00  0.00    -0.286 OA
HETATM    2  C2          0      32.706  69.208 -10.801  1.00  0.00     0.201 C 
HETATM    3  C3          0      32.998  67.920 -10.387  1.00  0.00     0.067 C 
HETATM    4  C4          0      32.023  66.929 -10.343  1.00  0.00     0.103 C 
HETATM    5  O13         0      30.786  67.240 -10.688  1.00  0.00    -0.307 OA
HETATM    6  C14         0      30.463  68.438 -11.124  1.00  0.00     0.107 C 
HETATM    7  C15         0      29.302  68.662 -11.850  1.00  0.00     0.049 C 
HETATM    8  C16         0      29.091  69.861 -12.522  1.00  0.00     0.093 C 
HETATM    9  C18         0      29.788  70.949 -12.013  1.00  0.00     0.048 C 
HETATM   10  C19         0      30.928  70.760 -11.243  1.00  0.00     0.096 C 
HETATM   11  C21         0      31.358  69.490 -10.969  1.00  0.00     0.084 C 
ENDROOT
BRANCH  10  12
HETATM   12  O20         0      31.841  71.801 -11.112  1.00  0.00    -0.359 OA
HETATM   13  H20         0      31.795  72.515 -11.736  1.00  0.00     0.218 HD
ENDBRANCH  10  12
BRANCH   4  14
HETATM   14  C5          0      32.470  65.543 -10.494  1.00  0.00     0.025 C 
HETATM   15  C6          0      31.596  64.465 -10.475  1.00  0.00     0.004 C 
HETATM   16  C7          0      31.851  63.414 -11.349  1.00  0.00     0.026 C 
HETATM   17  C8          0      33.006  63.370 -12.121  1.00  0.00     0.112 C 
HETATM   18  C10         0      34.066  64.116 -11.622  1.00  0.00     0.112 C 
HETATM   19  C12         0      33.779  65.214 -10.819  1.00  0.00     0.028 C 
BRANCH  17  20
HETATM   20  O9          0      32.996  62.798 -13.381  1.00  0.00    -0.357 OA
HETATM   21  H9          0      33.023  63.298 -14.188  1.00  0.00     0.218 HD
ENDBRANCH  17  20
BRANCH  18  22
HETATM   22  O11         0      35.295  63.959 -12.246  1.00  0.00    -0.357 OA
HETATM   23  H11         0      35.294  63.533 -13.096  1.00  0.00     0.218 HD
ENDBRANCH  18  22
ENDBRANCH   4  14
BRANCH   8  24
HETATM   24  O17         0      28.504  69.891 -13.792  1.00  0.00    -0.359 OA
HETATM   25  H17         0      28.768  69.291 -14.478  1.00  0.00     0.218 HD
ENDBRANCH   8  24
TORSDOF 5
ENDMDL
MODEL 3
REMARK VINA RESULT:      -7.8      2.764      3.905
REMARK  5 active torsions:
REMARK  status: ('A' for Active; 'I' for Inactive)
REMARK    1  A    between atoms: C4_4  and  C5_5 
REMARK    2  A    between atoms: C8_8  and  O9_9 
REMARK    3  A    between atoms: C10_11  and  O11_12 
REMARK    4  A    between atoms: C16_18  and  O17_19 
REMARK    5  A    between atoms: C19_22  and  O20_23 
ROOT
HETATM    1  O1          0      35.336  63.425 -11.316  1.00  0.00    -0.286 OA
HETATM    2  C2          0      34.223  63.871 -10.922  1.00  0.00     0.201 C 
HETATM    3  C3          0      33.056  63.129 -10.977  1.00  0.00     0.067 C 
HETATM    4  C4          0      31.826  63.678 -10.633  1.00  0.00     0.103 C 
HETATM    5  O13         0      31.784  64.935 -10.227  1.00  0.00    -0.307 OA
HETATM    6  C14         0      32.857  65.695 -10.192  1.00  0.00     0.107 C 
HETATM    7  C15         0      32.771  67.079 -10.160  1.00  0.00     0.049 C 
HETATM    8  C16         0      33.888  67.877 -10.380  1.00  0.00     0.093 C 
HETATM    9  C18         0      35.106  67.270 -10.100  1.00  0.00     0.048 C 
HETATM   10  C19         0      35.217  65.886 -10.077  1.00  0.00     0.096 C 
HETATM   11  C21         0      34.114  65.113 -10.316  1.00  0.00     0.084 C 
ENDROOT
BRANCH  10  12
HETATM   12  O20         0      36.470  65.302 -10.233  1.00  0.00    -0.359 OA
HETATM   13  H20         0      37.214  65.874 -10.373  1.00  0.00     0.218 HD
ENDBRANCH  10  12
BRANCH   4  14
HETATM   14  C5          0      30.635  63.100 -11.259  1.00  0.00     0.025 C 
HETATM   15  C6          0      30.460  61.733 -11.421  1.00  0.00     0.004 C 
HETATM   16  C7          0      29.180  61.221 -11.235  1.00  0.00     0.026 C 
HETATM   17  C8          0      28.085  62.052 -11.027  1.00  0.00     0.112 C 
HETATM   18  C10         0      28.241  63.347 -11.503  1.00  0.00     0.112 C 
HETATM   19  C12         0      29.527  63.865 -11.599  1.00  0.00     0.028 C 
BRANCH  17  20
HETATM   20  O9          0      27.034  61.651 -10.221  1.00  0.00    -0.357 OA
HETATM   21  H9          0      27.147  61.248  -9.368  1.00  0.00     0.218 HD
ENDBRANCH  17  20
BRANCH  18  22
HETATM   22  O11         0      27.117  64.160 -11.492  1.00  0.00    -0.357 OA
HETATM   23  H11         0      26.972  64.704 -12.258  1.00  0.00     0.218 HD
ENDBRANCH  18  22
ENDBRANCH   4  14
BRANCH   8  24
HETATM   24  O17         0      33.807  69.052 -11.134  1.00  0.00    -0.359 OA
HETATM   25  H17         0      33.425  69.847 -10.781  1.00  0.00     0.218 HD
ENDBRANCH   8  24
TORSDOF 5
ENDMDL
MODEL 4
REMARK VINA RESULT:      -7.7      1.993      7.078
REMARK  5 active torsions:
REMARK  status: ('A' for Active; 'I' for Inactive)
REMARK    1  A    between atoms: C4_4  and  C5_5 
REMARK    2  A    between atoms: C8_8  and  O9_9 
REMARK    3  A    between atoms: C10_11  and  O11_12 
REMARK    4  A    between atoms: C16_18  and  O17_19 
REMARK    5  A    between atoms: C19_22  and  O20_23 
ROOT
HETATM    1  O1          0      29.035  65.627 -11.379  1.00  0.00    -0.286 OA
HETATM    2  C2          0      29.717  64.585 -11.179  1.00  0.00     0.201 C 
HETATM    3  C3          0      31.098  64.599 -11.078  1.00  0.00     0.067 C 
HETATM    4  C4          0      31.831  63.424 -10.960  1.00  0.00     0.103 C 
HETATM    5  O13         0      31.184  62.272 -10.924  1.00  0.00    -0.307 OA
HETATM    6  C14         0      29.878  62.200 -11.054  1.00  0.00     0.107 C 
HETATM    7  C15         0      29.243  61.020 -11.415  1.00  0.00     0.049 C 
HETATM    8  C16         0      27.907  61.008 -11.796  1.00  0.00     0.093 C 
HETATM    9  C18         0      27.145  62.059 -11.301  1.00  0.00     0.048 C 
HETATM   10  C19         0      27.752  63.237 -10.887  1.00  0.00     0.096 C 
HETATM   11  C21         0      29.113  63.357 -10.951  1.00  0.00     0.084 C 
ENDROOT
BRANCH  10  12
HETATM   12  O20         0      26.996  64.403 -10.814  1.00  0.00    -0.359 OA
HETATM   13  H20         0      26.323  64.456 -10.146  1.00  0.00     0.218 HD
ENDBRANCH  10  12
BRANCH   4  14
HETATM   14  C5          0      33.210  63.442 -11.454  1.00  0.00     0.025 C 
HETATM   15  C6          0      33.681  64.407 -12.333  1.00  0.00     0.004 C 
HETATM   16  C7          0      34.978  64.872 -12.144  1.00  0.00     0.026 C 
HETATM   17  C8          0      35.826  64.305 -11.200  1.00  0.00     0.112 C 
HETATM   18  C10         0      35.509  63.001 -10.844  1.00  0.00     0.112 C 
HETATM   19  C12         0      34.188  62.587 -10.963  1.00  0.00     0.028 C 
BRANCH  17  20
HETATM   20  O9          0      36.764  65.076 -10.536  1.00  0.00    -0.357 OA
HETATM   21  H9          0      36.791  66.025 -10.575  1.00  0.00     0.218 HD
ENDBRANCH  17  20
BRANCH  18  22
HETATM   22  O11         0      36.427  62.325 -10.053  1.00  0.00    -0.357 OA
HETATM   23  H11         0      37.114  61.848 -10.503  1.00  0.00     0.218 HD
ENDBRANCH  18  22
ENDBRANCH   4  14
BRANCH   8  24
HETATM   24  O17         0      27.458  60.207 -12.853  1.00  0.00    -0.359 OA
HETATM   25  H17         0      27.105  60.585 -13.650  1.00  0.00     0.218 HD
ENDBRANCH   8  24
TORSDOF 5
ENDMDL
MODEL 5
REMARK VINA RESULT:      -7.5      3.016      4.227
REMARK  5 active torsions:
REMARK  status: ('A' for Active; 'I' for Inactive)
REMARK    1  A    between atoms: C4_4  and  C5_5 
REMARK    2  A    between atoms: C8_8  and  O9_9 
REMARK    3  A    between atoms: C10_11  and  O11_12 
REMARK    4  A    between atoms: C16_18  and  O17_19 
REMARK    5  A    between atoms: C19_22  and  O20_23 
ROOT
HETATM    1  O1          0      32.935  63.056 -11.912  1.00  0.00    -0.286 OA
HETATM    2  C2          0      31.979  63.652 -11.344  1.00  0.00     0.201 C 
HETATM    3  C3          0      30.678  63.180 -11.371  1.00  0.00     0.067 C 
HETATM    4  C4          0      29.627  63.909 -10.826  1.00  0.00     0.103 C 
HETATM    5  O13         0      29.890  65.070 -10.252  1.00  0.00    -0.307 OA
HETATM    6  C14         0      31.102  65.581 -10.232  1.00  0.00     0.107 C 
HETATM    7  C15         0      31.321  66.932 -10.005  1.00  0.00     0.049 C 
HETATM    8  C16         0      32.564  67.510 -10.235  1.00  0.00     0.093 C 
HETATM    9  C18         0      33.640  66.633 -10.173  1.00  0.00     0.048 C 
HETATM   10  C19         0      33.449  65.269 -10.349  1.00  0.00     0.096 C 
HETATM   11  C21         0      32.189  64.782 -10.569  1.00  0.00     0.084 C 
ENDROOT
BRANCH  10  12
HETATM   12  O20         0      34.529  64.473 -10.717  1.00  0.00    -0.359 OA
HETATM   13  H20         0      34.427  63.904 -11.471  1.00  0.00     0.218 HD
ENDBRANCH  10  12
BRANCH   4  14
HETATM   14  C5          0      28.295  63.688 -11.390  1.00  0.00     0.025 C 
HETATM   15  C6          0      28.029  62.698 -12.326  1.00  0.00     0.004 C 
HETATM   16  C7          0      26.818  62.021 -12.221  1.00  0.00     0.026 C 
HETATM   17  C8          0      25.846  62.402 -11.303  1.00  0.00     0.112 C 
HETATM   18  C10         0      25.928  63.724 -10.887  1.00  0.00     0.112 C 
HETATM   19  C12         0      27.168  64.352 -10.922  1.00  0.00     0.028 C 
BRANCH  17  20
HETATM   20  O9          0      25.018  61.462 -10.715  1.00  0.00    -0.357 OA
HETATM   21  H9          0      24.134  61.279 -11.011  1.00  0.00     0.218 HD
ENDBRANCH  17  20
BRANCH  18  22
HETATM   22  O11         0      24.877  64.209 -10.121  1.00  0.00    -0.357 OA
HETATM   23  H11         0      24.108  63.656 -10.048  1.00  0.00     0.218 HD
ENDBRANCH  18  22
ENDBRANCH   4  14
BRANCH   8  24
HETATM   24  O17         0      32.682  68.779 -10.812  1.00  0.00    -0.359 OA
HETATM   25  H17         0      33.111  68.909 -11.649  1.00  0.00     0.218 HD
ENDBRANCH   8  24
TORSDOF 5
ENDMDL
MODEL 6
REMARK VINA RESULT:      -7.4      2.182      2.896
REMARK  5 active torsions:
REMARK  status: ('A' for Active; 'I' for Inactive)
REMARK    1  A    between atoms: C4_4  and  C5_5 
REMARK    2  A    between atoms: C8_8  and  O9_9 
REMARK    3  A    between atoms: C10_11  and  O11_12 
REMARK    4  A    between atoms: C16_18  and  O17_19 
REMARK    5  A    between atoms: C19_22  and  O20_23 
ROOT
HETATM    1  O1          0      31.880  60.077 -12.050  1.00  0.00    -0.286 OA
HETATM    2  C2          0      31.450  61.203 -11.677  1.00  0.00     0.201 C 
HETATM    3  C3          0      30.102  61.475 -11.516  1.00  0.00     0.067 C 
HETATM    4  C4          0      29.649  62.752 -11.204  1.00  0.00     0.103 C 
HETATM    5  O13         0      30.535  63.717 -11.040  1.00  0.00    -0.307 OA
HETATM    6  C14         0      31.823  63.522 -11.218  1.00  0.00     0.107 C 
HETATM    7  C15         0      32.699  64.574 -11.443  1.00  0.00     0.049 C 
HETATM    8  C16         0      33.999  64.351 -11.880  1.00  0.00     0.093 C 
HETATM    9  C18         0      34.516  63.100 -11.569  1.00  0.00     0.048 C 
HETATM   10  C19         0      33.669  62.035 -11.293  1.00  0.00     0.096 C 
HETATM   11  C21         0      32.314  62.223 -11.311  1.00  0.00     0.084 C 
ENDROOT
BRANCH  10  12
HETATM   12  O20         0      34.148  60.735 -11.416  1.00  0.00    -0.359 OA
HETATM   13  H20         0      34.524  60.324 -10.646  1.00  0.00     0.218 HD
ENDBRANCH  10  12
BRANCH   4  14
HETATM   14  C5          0      28.294  63.104 -11.632  1.00  0.00     0.025 C 
HETATM   15  C6          0      27.620  62.421 -12.634  1.00  0.00     0.004 C 
HETATM   16  C7          0      26.255  62.211 -12.466  1.00  0.00     0.026 C 
HETATM   17  C8          0      25.556  62.776 -11.404  1.00  0.00     0.112 C 
HETATM   18  C10         0      26.147  63.906 -10.856  1.00  0.00     0.112 C 
HETATM   19  C12         0      27.525  64.049 -10.965  1.00  0.00     0.028 C 
BRANCH  17  20
HETATM   20  O9          0      24.481  62.117 -10.833  1.00  0.00    -0.357 OA
HETATM   21  H9          0      23.579  62.402 -10.922  1.00  0.00     0.218 HD
ENDBRANCH  17  20
BRANCH  18  22
HETATM   22  O11         0      25.402  64.616  -9.925  1.00  0.00    -0.357 OA
HETATM   23  H11         0      24.886  64.108  -9.310  1.00  0.00     0.218 HD
ENDBRANCH  18  22
ENDBRANCH   4  14
BRANCH   8  24
HETATM   24  O17         0      34.599  65.179 -12.836  1.00  0.00    -0.359 OA
HETATM   25  H17         0      34.556  64.981 -13.764  1.00  0.00     0.218 HD
ENDBRANCH   8  24
TORSDOF 5
ENDMDL
MODEL 7
REMARK VINA RESULT:      -7.3      3.290      6.215
REMARK  5 active torsions:
REMARK  status: ('A' for Active; 'I' for Inactive)
REMARK    1  A    between atoms: C4_4  and  C5_5 
REMARK    2  A    between atoms: C8_8  and  O9_9 
REMARK    3  A    between atoms: C10_11  and  O11_12 
REMARK    4  A    between atoms: C16_18  and  O17_19 
REMARK    5  A    between atoms: C19_22  and  O20_23 
ROOT
HETATM    1  O1          0      34.969  66.816 -10.723  1.00  0.00    -0.286 OA
HETATM    2  C2          0      33.952  66.107 -10.489  1.00  0.00     0.201 C 
HETATM    3  C3          0      34.010  64.729 -10.367  1.00  0.00     0.067 C 
HETATM    4  C4          0      32.861  63.962 -10.212  1.00  0.00     0.103 C 
HETATM    5  O13         0      31.691  64.575 -10.160  1.00  0.00    -0.307 OA
HETATM    6  C14         0      31.577  65.877 -10.308  1.00  0.00     0.107 C 
HETATM    7  C15         0      30.371  66.470 -10.652  1.00  0.00     0.049 C 
HETATM    8  C16         0      30.309  67.799 -11.055  1.00  0.00     0.093 C 
HETATM    9  C18         0      31.348  68.600 -10.595  1.00  0.00     0.048 C 
HETATM   10  C19         0      32.552  68.035 -10.198  1.00  0.00     0.096 C 
HETATM   11  C21         0      32.712  66.677 -10.243  1.00  0.00     0.084 C 
ENDROOT
BRANCH  10  12
HETATM   12  O20         0      33.696  68.827 -10.163  1.00  0.00    -0.359 OA
HETATM   13  H20         0      34.198  68.918 -10.963  1.00  0.00     0.218 HD
ENDBRANCH  10  12
BRANCH   4  14
HETATM   14  C5          0      32.911  62.577 -10.684  1.00  0.00     0.025 C 
HETATM   15  C6          0      31.784  61.886 -11.105  1.00  0.00     0.004 C 
HETATM   16  C7          0      31.923  61.032 -12.195  1.00  0.00     0.026 C 
HETATM   17  C8          0      33.165  60.770 -12.763  1.00  0.00     0.112 C 
HETATM   18  C10         0      34.245  60.980 -11.917  1.00  0.00     0.112 C 
HETATM   19  C12         0      34.108  61.903 -10.887  1.00  0.00     0.028 C 
BRANCH  17  20
HETATM   20  O9          0      33.287  60.530 -14.120  1.00  0.00    -0.357 OA
HETATM   21  H9          0      33.258  61.211 -14.782  1.00  0.00     0.218 HD
ENDBRANCH  17  20
BRANCH  18  22
HETATM   22  O11         0      35.488  60.557 -12.367  1.00  0.00    -0.357 OA
HETATM   23  H11         0      36.232  60.733 -11.803  1.00  0.00     0.218 HD
ENDBRANCH  18  22
ENDBRANCH   4  14
BRANCH   8  24
HETATM   24  O17         0      29.473  68.206 -12.100  1.00  0.00    -0.359 OA
HETATM   25  H17         0      29.798  68.315 -12.986  1.00  0.00     0.218 HD
ENDBRANCH   8  24
TORSDOF 5
ENDMDL
MODEL 8
REMARK VINA RESULT:      -7.0      3.081      4.416
REMARK  5 active torsions:
REMARK  status: ('A' for Active; 'I' for Inactive)
REMARK    1  A    between atoms: C4_4  and  C5_5 
REMARK    2  A    between atoms: C8_8  and  O9_9 
REMARK    3  A    between atoms: C10_11  and  O11_12 
REMARK    4  A    between atoms: C16_18  and  O17_19 
REMARK    5  A    between atoms: C19_22  and  O20_23 
ROOT
HETATM    1  O1          0      32.064  62.602 -12.209  1.00  0.00    -0.286 OA
HETATM    2  C2          0      31.106  63.057 -11.525  1.00  0.00     0.201 C 
HETATM    3  C3          0      29.910  62.379 -11.366  1.00  0.00     0.067 C 
HETATM    4  C4          0      28.834  62.947 -10.693  1.00  0.00     0.103 C 
HETATM    5  O13         0      28.974  64.156 -10.179  1.00  0.00    -0.307 OA
HETATM    6  C14         0      30.076  64.858 -10.333  1.00  0.00     0.107 C 
HETATM    7  C15         0      30.095  66.235 -10.160  1.00  0.00     0.049 C 
HETATM    8  C16         0      31.183  66.998 -10.568  1.00  0.00     0.093 C 
HETATM    9  C18         0      32.388  66.310 -10.640  1.00  0.00     0.048 C 
HETATM   10  C19         0      32.405  64.928 -10.766  1.00  0.00     0.096 C 
HETATM   11  C21         0      31.226  64.235 -10.804  1.00  0.00     0.084 C 
ENDROOT
BRANCH  10  12
HETATM   12  O20         0      33.544  64.304 -11.267  1.00  0.00    -0.359 OA
HETATM   13  H20         0      34.041  64.757 -11.938  1.00  0.00     0.218 HD
ENDBRANCH  10  12
BRANCH   4  14
HETATM   14  C5          0      27.494  62.491 -11.066  1.00  0.00     0.025 C 
HETATM   15  C6          0      26.421  62.511 -10.187  1.00  0.00     0.004 C 
HETATM   16  C7          0      25.174  62.857 -10.699  1.00  0.00     0.026 C 
HETATM   17  C8          0      24.973  63.046 -12.062  1.00  0.00     0.112 C 
HETATM   18  C10         0      25.894  62.404 -12.879  1.00  0.00     0.112 C 
HETATM   19  C12         0      27.161  62.146 -12.370  1.00  0.00     0.028 C 
BRANCH  17  20
HETATM   20  O9          0      24.054  63.973 -12.521  1.00  0.00    -0.357 OA
HETATM   21  H9          0      23.225  63.741 -12.923  1.00  0.00     0.218 HD
ENDBRANCH  17  20
BRANCH  18  22
HETATM   22  O11         0      25.631  62.402 -14.241  1.00  0.00    -0.357 OA
HETATM   23  H11         0      26.145  62.992 -14.779  1.00  0.00     0.218 HD
ENDBRANCH  18  22
ENDBRANCH   4  14
BRANCH   8  24
HETATM   24  O17         0      31.011  68.247 -11.175  1.00  0.00    -0.359 OA
HETATM   25  H17         0      31.213  69.055 -10.719  1.00  0.00     0.218 HD
ENDBRANCH   8  24
TORSDOF 5
ENDMDL
MODEL 9
REMARK VINA RESULT:      -6.6      2.217      2.742
REMARK  5 active torsions:
REMARK  status: ('A' for Active; 'I' for Inactive)
REMARK    1  A    between atoms: C4_4  and  C5_5 
REMARK    2  A    between atoms: C8_8  and  O9_9 
REMARK    3  A    between atoms: C10_11  and  O11_12 
REMARK    4  A    between atoms: C16_18  and  O17_19 
REMARK    5  A    between atoms: C19_22  and  O20_23 
ROOT
HETATM    1  O1          0      32.717  61.506 -13.562  1.00  0.00    -0.286 OA
HETATM    2  C2          0      32.801  62.003 -12.405  1.00  0.00     0.201 C 
HETATM    3  C3          0      31.760  62.693 -11.808  1.00  0.00     0.067 C 
HETATM    4  C4          0      31.914  63.319 -10.576  1.00  0.00     0.103 C 
HETATM    5  O13         0      33.079  63.229  -9.959  1.00  0.00    -0.307 OA
HETATM    6  C14         0      34.110  62.618 -10.499  1.00  0.00     0.107 C 
HETATM    7  C15         0      35.408  62.855 -10.068  1.00  0.00     0.049 C 
HETATM    8  C16         0      36.503  62.411 -10.798  1.00  0.00     0.093 C 
HETATM    9  C18         0      36.255  61.319 -11.622  1.00  0.00     0.048 C 
HETATM   10  C19         0      34.963  61.026 -12.034  1.00  0.00     0.096 C 
HETATM   11  C21         0      33.922  61.807 -11.612  1.00  0.00     0.084 C 
ENDROOT
BRANCH  10  12
HETATM   12  O20         0      34.771  60.240 -13.167  1.00  0.00    -0.359 OA
HETATM   13  H20         0      35.105  60.564 -13.995  1.00  0.00     0.218 HD
ENDBRANCH  10  12
BRANCH   4  14
HETATM   14  C5          0      31.057  64.473 -10.300  1.00  0.00     0.025 C 
HETATM   15  C6          0      31.562  65.724  -9.975  1.00  0.00     0.004 C 
HETATM   16  C7          0      30.907  66.837 -10.492  1.00  0.00     0.026 C 
HETATM   17  C8          0      29.714  66.720 -11.197  1.00  0.00     0.112 C 
HETATM   18  C10         0      28.991  65.567 -10.924  1.00  0.00     0.112 C 
HETATM   19  C12         0      29.681  64.442 -10.489  1.00  0.00     0.028 C 
BRANCH  17  20
HETATM   20  O9          0      29.411  67.591 -12.229  1.00  0.00    -0.357 OA
HETATM   21  H9          0      29.800  67.538 -13.095  1.00  0.00     0.218 HD
ENDBRANCH  17  20
BRANCH  18  22
HETATM   22  O11         0      27.710  65.488 -11.453  1.00  0.00    -0.357 OA
HETATM   23  H11         0      27.115  66.199 -11.244  1.00  0.00     0.218 HD
ENDBRANCH  18  22
ENDBRANCH   4  14
BRANCH   8  24
HETATM   24  O17         0      37.650  63.199 -10.946  1.00  0.00    -0.359 OA
HETATM   25  H17         0      38.040  63.655 -10.210  1.00  0.00     0.218 HD
ENDBRANCH   8  24
TORSDOF 5
ENDMDL
