MODEL 1
REMARK VINA RESULT:      -7.9      0.000      0.000
REMARK  5 active torsions:
REMARK  status: ('A' for Active; 'I' for Inactive)
REMARK    1  A    between atoms: C4_4  and  C5_5 
REMARK    2  A    between atoms: C8_8  and  O9_9 
REMARK    3  A    between atoms: C10_11  and  O11_12 
REMARK    4  A    between atoms: C16_18  and  O17_19 
REMARK    5  A    between atoms: C19_22  and  O20_23 
ROOT
HETATM    1  O1          0      37.164  86.121 -10.514  1.00  0.00    -0.286 OA
HETATM    2  C2          0      36.273  85.262 -10.268  1.00  0.00     0.201 C 
HETATM    3  C3          0      36.542  83.907 -10.178  1.00  0.00     0.067 C 
HETATM    4  C4          0      35.527  82.972 -10.009  1.00  0.00     0.103 C 
HETATM    5  O13         0      34.280  83.400  -9.912  1.00  0.00    -0.307 OA
HETATM    6  C14         0      33.966  84.671 -10.028  1.00  0.00     0.107 C 
HETATM    7  C15         0      32.675  85.081 -10.326  1.00  0.00     0.049 C 
HETATM    8  C16         0      32.401  86.392 -10.697  1.00  0.00     0.093 C 
HETATM    9  C18         0      33.320  87.333 -10.248  1.00  0.00     0.048 C 
HETATM   10  C19         0      34.607  86.950  -9.896  1.00  0.00     0.096 C 
HETATM   11  C21         0      34.969  85.633  -9.976  1.00  0.00     0.084 C 
ENDROOT
BRANCH  10  12
HETATM   12  O20         0      35.619  87.905  -9.875  1.00  0.00    -0.359 OA
HETATM   13  H20         0      35.630  88.557 -10.565  1.00  0.00     0.218 HD
ENDBRANCH  10  12
BRANCH   4  14
HETATM   14  C5          0      35.771  81.619 -10.512  1.00  0.00     0.025 C 
HETATM   15  C6          0      35.035  81.058 -11.546  1.00  0.00     0.004 C 
HETATM   16  C7          0      35.716  80.262 -12.463  1.00  0.00     0.026 C 
HETATM   17  C8          0      37.053  79.925 -12.285  1.00  0.00     0.112 C 
HETATM   18  C10         0      37.496  79.986 -10.970  1.00  0.00     0.112 C 
HETATM   19  C12         0      36.852  80.854 -10.096  1.00  0.00     0.028 C 
BRANCH  17  20
HETATM   20  O9          0      37.893  79.757 -13.371  1.00  0.00    -0.357 OA
HETATM   21  H9          0      38.418  80.455 -13.745  1.00  0.00     0.218 HD
ENDBRANCH  17  20
BRANCH  18  22
HETATM   22  O11         0      38.762  79.481 -10.710  1.00  0.00    -0.357 OA
HETATM   23  H11         0      39.147  78.921 -11.374  1.00  0.00     0.218 HD
ENDBRANCH  18  22
ENDBRANCH   4  14
BRANCH   8  24
HETATM   24  O17         0      31.482  86.687 -11.710  1.00  0.00    -0.359 OA
HETATM   25  H17         0      31.241  87.581 -11.921  1.00  0.00     0.218 HD
ENDBRANCH   8  24
TORSDOF 5
ENDMDL
MODEL 2
REMARK VINA RESULT:      -7.7      2.333      3.015
REMARK  5 active torsions:
REMARK  status: ('A' for Active; 'I' for Inactive)
REMARK    1  A    between atoms: C4_4  and  C5_5 
REMARK    2  A    between atoms: C8_8  and  O9_9 
REMARK    3  A    between atoms: C10_11  and  O11_12 
REMARK    4  A    between atoms: C16_18  and  O17_19 
REMARK    5  A    between atoms: C19_22  and  O20_23 
ROOT
HETATM    1  O1          0      35.445  85.898 -10.284  1.00  0.00    -0.286 OA
HETATM    2  C2          0      34.347  85.289 -10.160  1.00  0.00     0.201 C 
HETATM    3  C3          0      34.267  83.930  -9.905  1.00  0.00     0.067 C 
HETATM    4  C4          0      33.047  83.265  -9.875  1.00  0.00     0.103 C 
HETATM    5  O13         0      31.941  83.959 -10.076  1.00  0.00    -0.307 OA
HETATM    6  C14         0      31.963  85.243 -10.360  1.00  0.00     0.107 C 
HETATM    7  C15         0      30.882  85.879 -10.955  1.00  0.00     0.049 C 
HETATM    8  C16         0      30.999  87.160 -11.481  1.00  0.00     0.093 C 
HETATM    9  C18         0      32.015  87.931 -10.929  1.00  0.00     0.048 C 
HETATM   10  C19         0      33.087  87.329 -10.286  1.00  0.00     0.096 C 
HETATM   11  C21         0      33.137  85.966 -10.179  1.00  0.00     0.084 C 
ENDROOT
BRANCH  10  12
HETATM   12  O20         0      34.274  88.039 -10.132  1.00  0.00    -0.359 OA
HETATM   13  H20         0      34.790  87.880  -9.350  1.00  0.00     0.218 HD
ENDBRANCH  10  12
BRANCH   4  14
HETATM   14  C5          0      33.053  81.838 -10.203  1.00  0.00     0.025 C 
HETATM   15  C6          0      31.996  80.993  -9.903  1.00  0.00     0.004 C 
HETATM   16  C7          0      31.670  80.011 -10.834  1.00  0.00     0.026 C 
HETATM   17  C8          0      32.452  79.789 -11.962  1.00  0.00     0.112 C 
HETATM   18  C10         0      33.768  80.216 -11.849  1.00  0.00     0.112 C 
HETATM   19  C12         0      34.052  81.256 -10.973  1.00  0.00     0.028 C 
BRANCH  17  20
HETATM   20  O9          0      31.878  79.373 -13.151  1.00  0.00    -0.357 OA
HETATM   21  H9          0      32.131  79.707 -14.004  1.00  0.00     0.218 HD
ENDBRANCH  17  20
BRANCH  18  22
HETATM   22  O11         0      34.637  79.851 -12.868  1.00  0.00    -0.357 OA
HETATM   23  H11         0      34.464  79.024 -13.305  1.00  0.00     0.218 HD
ENDBRANCH  18  22
ENDBRANCH   4  14
BRANCH   8  24
HETATM   24  O17         0      30.379  87.513 -12.685  1.00  0.00    -0.359 OA
HETATM   25  H17         0      30.376  88.409 -13.001  1.00  0.00     0.218 HD
ENDBRANCH   8  24
TORSDOF 5
ENDMDL
MODEL 3
REMARK VINA RESULT:      -7.0      1.909      2.428
REMARK  5 active torsions:
REMARK  status: ('A' for Active; 'I' for Inactive)
REMARK    1  A    between atoms: C4_4  and  C5_5 
REMARK    2  A    between atoms: C8_8  and  O9_9 
REMARK    3  A    between atoms: C10_11  and  O11_12 
REMARK    4  A    between atoms: C16_18  and  O17_19 
REMARK    5  A    between atoms: C19_22  and  O20_23 
ROOT
HETATM    1  O1          0      37.118  85.192 -10.286  1.00  0.00    -0.286 OA
HETATM    2  C2          0      35.925  84.816 -10.125  1.00  0.00     0.201 C 
HETATM    3  C3          0      35.573  83.489  -9.948  1.00  0.00     0.067 C 
HETATM    4  C4          0      34.243  83.091  -9.876  1.00  0.00     0.103 C 
HETATM    5  O13         0      33.299  84.012  -9.959  1.00  0.00    -0.307 OA
HETATM    6  C14         0      33.577  85.281 -10.165  1.00  0.00     0.107 C 
HETATM    7  C15         0      32.626  86.169 -10.646  1.00  0.00     0.049 C 
HETATM    8  C16         0      32.983  87.432 -11.100  1.00  0.00     0.093 C 
HETATM    9  C18         0      34.166  87.934 -10.573  1.00  0.00     0.048 C 
HETATM   10  C19         0      35.120  87.076 -10.041  1.00  0.00     0.096 C 
HETATM   11  C21         0      34.886  85.728 -10.021  1.00  0.00     0.084 C 
ENDROOT
BRANCH  10  12
HETATM   12  O20         0      36.437  87.512  -9.925  1.00  0.00    -0.359 OA
HETATM   13  H20         0      37.076  87.164 -10.535  1.00  0.00     0.218 HD
ENDBRANCH  10  12
BRANCH   4  14
HETATM   14  C5          0      33.930  81.722 -10.290  1.00  0.00     0.025 C 
HETATM   15  C6          0      32.700  81.127 -10.052  1.00  0.00     0.004 C 
HETATM   16  C7          0      32.181  80.301 -11.044  1.00  0.00     0.026 C 
HETATM   17  C8          0      32.918  79.969 -12.176  1.00  0.00     0.112 C 
HETATM   18  C10         0      34.294  80.073 -12.023  1.00  0.00     0.112 C 
HETATM   19  C12         0      34.787  80.969 -11.082  1.00  0.00     0.028 C 
BRANCH  17  20
HETATM   20  O9          0      32.293  79.764 -13.394  1.00  0.00    -0.357 OA
HETATM   21  H9          0      31.760  79.003 -13.592  1.00  0.00     0.218 HD
ENDBRANCH  17  20
BRANCH  18  22
HETATM   22  O11         0      35.080  79.576 -13.053  1.00  0.00    -0.357 OA
HETATM   23  H11         0      34.641  79.059 -13.718  1.00  0.00     0.218 HD
ENDBRANCH  18  22
ENDBRANCH   4  14
BRANCH   8  24
HETATM   24  O17         0      32.387  87.994 -12.235  1.00  0.00    -0.359 OA
HETATM   25  H17         0      32.440  87.575 -13.086  1.00  0.00     0.218 HD
ENDBRANCH   8  24
TORSDOF 5
ENDMDL
MODEL 4
REMARK VINA RESULT:      -6.4      1.965      2.957
REMARK  5 active torsions:
REMARK  status: ('A' for Active; 'I' for Inactive)
REMARK    1  A    between atoms: C4_4  and  C5_5 
REMARK    2  A    between atoms: C8_8  and  O9_9 
REMARK    3  A    between atoms: C10_11  and  O11_12 
REMARK    4  A    between atoms: C16_18  and  O17_19 
REMARK    5  A    between atoms: C19_22  and  O20_23 
ROOT
HETATM    1  O1          0      34.885  88.248 -11.244  1.00  0.00    -0.286 OA
HETATM    2  C2          0      34.097  87.369 -10.800  1.00  0.00     0.201 C 
HETATM    3  C3          0      34.535  86.168 -10.268  1.00  0.00     0.067 C 
HETATM    4  C4          0      33.643  85.174  -9.881  1.00  0.00     0.103 C 
HETATM    5  O13         0      32.347  85.399 -10.010  1.00  0.00    -0.307 OA
HETATM    6  C14         0      31.879  86.506 -10.544  1.00  0.00     0.107 C 
HETATM    7  C15         0      30.588  86.587 -11.044  1.00  0.00     0.049 C 
HETATM    8  C16         0      30.184  87.661 -11.828  1.00  0.00     0.093 C 
HETATM    9  C18         0      30.908  88.832 -11.638  1.00  0.00     0.048 C 
HETATM   10  C19         0      32.185  88.791 -11.097  1.00  0.00     0.096 C 
HETATM   11  C21         0      32.730  87.590 -10.731  1.00  0.00     0.084 C 
ENDROOT
BRANCH  10  12
HETATM   12  O20         0      33.049  89.861 -11.309  1.00  0.00    -0.359 OA
HETATM   13  H20         0      33.980  89.711 -11.197  1.00  0.00     0.218 HD
ENDBRANCH  10  12
BRANCH   4  14
HETATM   14  C5          0      34.125  83.792  -9.913  1.00  0.00     0.025 C 
HETATM   15  C6          0      33.287  82.708 -10.133  1.00  0.00     0.004 C 
HETATM   16  C7          0      33.776  81.664 -10.912  1.00  0.00     0.026 C 
HETATM   17  C8          0      35.097  81.634 -11.345  1.00  0.00     0.112 C 
HETATM   18  C10         0      35.977  82.384 -10.576  1.00  0.00     0.112 C 
HETATM   19  C12         0      35.477  83.474  -9.875  1.00  0.00     0.028 C 
BRANCH  17  20
HETATM   20  O9          0      35.431  81.069 -12.564  1.00  0.00    -0.357 OA
HETATM   21  H9          0      35.649  81.575 -13.338  1.00  0.00     0.218 HD
ENDBRANCH  17  20
BRANCH  18  22
HETATM   22  O11         0      37.330  82.239 -10.848  1.00  0.00    -0.357 OA
HETATM   23  H11         0      37.852  81.777 -10.202  1.00  0.00     0.218 HD
ENDBRANCH  18  22
ENDBRANCH   4  14
BRANCH   8  24
HETATM   24  O17         0      29.357  87.480 -12.942  1.00  0.00    -0.359 OA
HETATM   25  H17         0      29.672  87.062 -13.735  1.00  0.00     0.218 HD
ENDBRANCH   8  24
TORSDOF 5
ENDMDL
MODEL 5
REMARK VINA RESULT:      -6.2      1.692      6.517
REMARK  5 active torsions:
REMARK  status: ('A' for Active; 'I' for Inactive)
REMARK    1  A    between atoms: C4_4  and  C5_5 
REMARK    2  A    between atoms: C8_8  and  O9_9 
REMARK    3  A    between atoms: C10_11  and  O11_12 
REMARK    4  A    between atoms: C16_18  and  O17_19 
REMARK    5  A    between atoms: C19_22  and  O20_23 
ROOT
HETATM    1  O1          0      37.867  81.690  -9.883  1.00  0.00    -0.286 OA
HETATM    2  C2          0      36.879  82.224 -10.459  1.00  0.00     0.201 C 
HETATM    3  C3          0      36.530  83.551 -10.275  1.00  0.00     0.067 C 
HETATM    4  C4          0      35.378  84.086 -10.840  1.00  0.00     0.103 C 
HETATM    5  O13         0      34.615  83.306 -11.586  1.00  0.00    -0.307 OA
HETATM    6  C14         0      34.881  82.030 -11.762  1.00  0.00     0.107 C 
HETATM    7  C15         0      33.912  81.134 -12.188  1.00  0.00     0.049 C 
HETATM    8  C16         0      34.122  79.762 -12.128  1.00  0.00     0.093 C 
HETATM    9  C18         0      35.455  79.371 -12.145  1.00  0.00     0.048 C 
HETATM   10  C19         0      36.455  80.257 -11.769  1.00  0.00     0.096 C 
HETATM   11  C21         0      36.127  81.532 -11.396  1.00  0.00     0.084 C 
ENDROOT
BRANCH  10  12
HETATM   12  O20         0      37.692  79.759 -11.372  1.00  0.00    -0.359 OA
HETATM   13  H20         0      37.914  78.870 -11.620  1.00  0.00     0.218 HD
ENDBRANCH  10  12
BRANCH   4  14
HETATM   14  C5          0      34.765  85.227 -10.157  1.00  0.00     0.025 C 
HETATM   15  C6          0      35.458  86.396  -9.875  1.00  0.00     0.004 C 
HETATM   16  C7          0      34.772  87.599 -10.007  1.00  0.00     0.026 C 
HETATM   17  C8          0      33.408  87.635 -10.277  1.00  0.00     0.112 C 
HETATM   18  C10         0      32.714  86.488  -9.916  1.00  0.00     0.112 C 
HETATM   19  C12         0      33.406  85.283  -9.875  1.00  0.00     0.028 C 
BRANCH  17  20
HETATM   20  O9          0      32.863  88.655 -11.036  1.00  0.00    -0.357 OA
HETATM   21  H9          0      32.257  88.513 -11.754  1.00  0.00     0.218 HD
ENDBRANCH  17  20
BRANCH  18  22
HETATM   22  O11         0      31.330  86.542  -9.988  1.00  0.00    -0.357 OA
HETATM   23  H11         0      30.955  87.035 -10.709  1.00  0.00     0.218 HD
ENDBRANCH  18  22
ENDBRANCH   4  14
BRANCH   8  24
HETATM   24  O17         0      33.102  78.884 -11.742  1.00  0.00    -0.359 OA
HETATM   25  H17         0      32.242  78.911 -12.144  1.00  0.00     0.218 HD
ENDBRANCH   8  24
TORSDOF 5
ENDMDL
MODEL 6
REMARK VINA RESULT:      -6.0      1.899      3.664
REMARK  5 active torsions:
REMARK  status: ('A' for Active; 'I' for Inactive)
REMARK    1  A    between atoms: C4_4  and  C5_5 
REMARK    2  A    between atoms: C8_8  and  O9_9 
REMARK    3  A    between atoms: C10_11  and  O11_12 
REMARK    4  A    between atoms: C16_18  and  O17_19 
REMARK    5  A    between atoms: C19_22  and  O20_23 
ROOT
HETATM    1  O1          0      30.136  85.329  -9.875  1.00  0.00    -0.286 OA
HETATM    2  C2          0      31.312  85.373 -10.329  1.00  0.00     0.201 C 
HETATM    3  C3          0      32.169  84.286 -10.301  1.00  0.00     0.067 C 
HETATM    4  C4          0      33.493  84.391 -10.714  1.00  0.00     0.103 C 
HETATM    5  O13         0      33.928  85.556 -11.161  1.00  0.00    -0.307 OA
HETATM    6  C14         0      33.167  86.628 -11.174  1.00  0.00     0.107 C 
HETATM    7  C15         0      33.704  87.905 -11.252  1.00  0.00     0.049 C 
HETATM    8  C16         0      32.927  89.031 -11.010  1.00  0.00     0.093 C 
HETATM    9  C18         0      31.564  88.860 -11.218  1.00  0.00     0.048 C 
HETATM   10  C19         0      31.001  87.591 -11.193  1.00  0.00     0.096 C 
HETATM   11  C21         0      31.796  86.499 -10.978  1.00  0.00     0.084 C 
ENDROOT
BRANCH  10  12
HETATM   12  O20         0      29.634  87.458 -10.965  1.00  0.00    -0.359 OA
HETATM   13  H20         0      29.261  86.586 -10.995  1.00  0.00     0.218 HD
ENDBRANCH  10  12
BRANCH   4  14
HETATM   14  C5          0      34.454  83.459 -10.123  1.00  0.00     0.025 C 
HETATM   15  C6          0      34.160  82.125  -9.884  1.00  0.00     0.004 C 
HETATM   16  C7          0      35.167  81.192 -10.111  1.00  0.00     0.026 C 
HETATM   17  C8          0      36.462  81.581 -10.434  1.00  0.00     0.112 C 
HETATM   18  C10         0      36.798  82.866 -10.032  1.00  0.00     0.112 C 
HETATM   19  C12         0      35.781  83.803  -9.895  1.00  0.00     0.028 C 
BRANCH  17  20
HETATM   20  O9          0      37.247  80.808 -11.271  1.00  0.00    -0.357 OA
HETATM   21  H9          0      38.197  80.825 -11.269  1.00  0.00     0.218 HD
ENDBRANCH  17  20
BRANCH  18  22
HETATM   22  O11         0      38.130  83.236 -10.158  1.00  0.00    -0.357 OA
HETATM   23  H11         0      38.700  83.049  -9.422  1.00  0.00     0.218 HD
ENDBRANCH  18  22
ENDBRANCH   4  14
BRANCH   8  24
HETATM   24  O17         0      33.431  90.125 -10.296  1.00  0.00    -0.359 OA
HETATM   25  H17         0      34.350  90.190 -10.065  1.00  0.00     0.218 HD
ENDBRANCH   8  24
TORSDOF 5
ENDMDL
