MODEL 1
REMARK VINA RESULT:      -8.6      0.000      0.000
REMARK  5 active torsions:
REMARK  status: ('A' for Active; 'I' for Inactive)
REMARK    1  A    between atoms: C4_4  and  C5_5 
REMARK    2  A    between atoms: C8_8  and  O9_9 
REMARK    3  A    between atoms: C10_11  and  O11_12 
REMARK    4  A    between atoms: C16_18  and  O17_19 
REMARK    5  A    between atoms: C19_22  and  O20_23 
ROOT
HETATM    1  O1          0      32.761  85.956  -5.370  1.00  0.00    -0.286 OA
HETATM    2  C2          0      32.604  85.512  -6.540  1.00  0.00     0.201 C 
HETATM    3  C3          0      33.660  85.095  -7.333  1.00  0.00     0.067 C 
HETATM    4  C4          0      33.471  84.707  -8.654  1.00  0.00     0.103 C 
HETATM    5  O13         0      32.247  84.722  -9.151  1.00  0.00    -0.307 OA
HETATM    6  C14         0      31.215  85.144  -8.454  1.00  0.00     0.107 C 
HETATM    7  C15         0      30.032  85.538  -9.064  1.00  0.00     0.049 C 
HETATM    8  C16         0      29.047  86.217  -8.358  1.00  0.00     0.093 C 
HETATM    9  C18         0      29.059  86.007  -6.984  1.00  0.00     0.048 C 
HETATM   10  C19         0      30.212  85.568  -6.348  1.00  0.00     0.096 C 
HETATM   11  C21         0      31.341  85.324  -7.081  1.00  0.00     0.084 C 
ENDROOT
BRANCH  10  12
HETATM   12  O20         0      30.355  85.775  -4.979  1.00  0.00    -0.359 OA
HETATM   13  H20         0      30.588  85.030  -4.438  1.00  0.00     0.218 HD
ENDBRANCH  10  12
BRANCH   4  14
HETATM   14  C5          0      34.604  84.866  -9.568  1.00  0.00     0.025 C 
HETATM   15  C6          0      35.053  86.106 -10.000  1.00  0.00     0.004 C 
HETATM   16  C7          0      36.426  86.284 -10.130  1.00  0.00     0.026 C 
HETATM   17  C8          0      37.318  85.229  -9.967  1.00  0.00     0.112 C 
HETATM   18  C10         0      36.769  83.970 -10.170  1.00  0.00     0.112 C 
HETATM   19  C12         0      35.407  83.800  -9.950  1.00  0.00     0.028 C 
BRANCH  17  20
HETATM   20  O9          0      38.579  85.442  -9.439  1.00  0.00    -0.357 OA
HETATM   21  H9          0      38.756  86.036  -8.719  1.00  0.00     0.218 HD
ENDBRANCH  17  20
BRANCH  18  22
HETATM   22  O11         0      37.651  82.899 -10.206  1.00  0.00    -0.357 OA
HETATM   23  H11         0      37.668  82.384 -11.004  1.00  0.00     0.218 HD
ENDBRANCH  18  22
ENDBRANCH   4  14
BRANCH   8  24
HETATM   24  O17         0      28.334  87.275  -8.934  1.00  0.00    -0.359 OA
HETATM   25  H17         0      28.417  87.489  -9.855  1.00  0.00     0.218 HD
ENDBRANCH   8  24
TORSDOF 5
ENDMDL
MODEL 2
REMARK VINA RESULT:      -8.5      3.135      4.830
REMARK  5 active torsions:
REMARK  status: ('A' for Active; 'I' for Inactive)
REMARK    1  A    between atoms: C4_4  and  C5_5 
REMARK    2  A    between atoms: C8_8  and  O9_9 
REMARK    3  A    between atoms: C10_11  and  O11_12 
REMARK    4  A    between atoms: C16_18  and  O17_19 
REMARK    5  A    between atoms: C19_22  and  O20_23 
ROOT
HETATM    1  O1          0      31.948  86.591 -10.566  1.00  0.00    -0.286 OA
HETATM    2  C2          0      32.500  85.746  -9.810  1.00  0.00     0.201 C 
HETATM    3  C3          0      32.864  84.481 -10.239  1.00  0.00     0.067 C 
HETATM    4  C4          0      33.376  83.533  -9.360  1.00  0.00     0.103 C 
HETATM    5  O13         0      33.534  83.864  -8.091  1.00  0.00    -0.307 OA
HETATM    6  C14         0      33.170  85.038  -7.624  1.00  0.00     0.107 C 
HETATM    7  C15         0      32.957  85.252  -6.270  1.00  0.00     0.049 C 
HETATM    8  C16         0      32.333  86.406  -5.811  1.00  0.00     0.093 C 
HETATM    9  C18         0      32.428  87.502  -6.660  1.00  0.00     0.048 C 
HETATM   10  C19         0      32.687  87.326  -8.013  1.00  0.00     0.096 C 
HETATM   11  C21         0      32.866  86.065  -8.511  1.00  0.00     0.084 C 
ENDROOT
BRANCH  10  12
HETATM   12  O20         0      32.355  88.340  -8.906  1.00  0.00    -0.359 OA
HETATM   13  H20         0      32.824  88.378  -9.731  1.00  0.00     0.218 HD
ENDBRANCH  10  12
BRANCH   4  14
HETATM   14  C5          0      33.171  82.124  -9.701  1.00  0.00     0.025 C 
HETATM   15  C6          0      32.156  81.356  -9.147  1.00  0.00     0.004 C 
HETATM   16  C7          0      31.515  80.441  -9.976  1.00  0.00     0.026 C 
HETATM   17  C8          0      31.954  80.199 -11.273  1.00  0.00     0.112 C 
HETATM   18  C10         0      33.288  80.511 -11.501  1.00  0.00     0.112 C 
HETATM   19  C12         0      33.880  81.491 -10.714  1.00  0.00     0.028 C 
BRANCH  17  20
HETATM   20  O9          0      31.058  79.877 -12.276  1.00  0.00    -0.357 OA
HETATM   21  H9          0      31.046  79.039 -12.725  1.00  0.00     0.218 HD
ENDBRANCH  17  20
BRANCH  18  22
HETATM   22  O11         0      33.827  80.115 -12.717  1.00  0.00    -0.357 OA
HETATM   23  H11         0      33.430  79.362 -13.138  1.00  0.00     0.218 HD
ENDBRANCH  18  22
ENDBRANCH   4  14
BRANCH   8  24
HETATM   24  O17         0      31.409  86.367  -4.761  1.00  0.00    -0.359 OA
HETATM   25  H17         0      30.935  87.142  -4.485  1.00  0.00     0.218 HD
ENDBRANCH   8  24
TORSDOF 5
ENDMDL
MODEL 3
REMARK VINA RESULT:      -8.5      2.566      6.553
REMARK  5 active torsions:
REMARK  status: ('A' for Active; 'I' for Inactive)
REMARK    1  A    between atoms: C4_4  and  C5_5 
REMARK    2  A    between atoms: C8_8  and  O9_9 
REMARK    3  A    between atoms: C10_11  and  O11_12 
REMARK    4  A    between atoms: C16_18  and  O17_19 
REMARK    5  A    between atoms: C19_22  and  O20_23 
ROOT
HETATM    1  O1          0      38.364  85.454  -9.864  1.00  0.00    -0.286 OA
HETATM    2  C2          0      37.126  85.307 -10.057  1.00  0.00     0.201 C 
HETATM    3  C3          0      36.270  86.371 -10.284  1.00  0.00     0.067 C 
HETATM    4  C4          0      34.895  86.190 -10.391  1.00  0.00     0.103 C 
HETATM    5  O13         0      34.406  84.967 -10.292  1.00  0.00    -0.307 OA
HETATM    6  C14         0      35.170  83.927 -10.040  1.00  0.00     0.107 C 
HETATM    7  C15         0      34.649  82.739  -9.546  1.00  0.00     0.049 C 
HETATM    8  C16         0      35.476  81.742  -9.044  1.00  0.00     0.093 C 
HETATM    9  C18         0      36.776  81.755  -9.536  1.00  0.00     0.048 C 
HETATM   10  C19         0      37.313  82.913 -10.080  1.00  0.00     0.096 C 
HETATM   11  C21         0      36.552  84.048 -10.148  1.00  0.00     0.084 C 
ENDROOT
BRANCH  10  12
HETATM   12  O20         0      38.696  83.050 -10.159  1.00  0.00    -0.359 OA
HETATM   13  H20         0      39.103  83.752  -9.666  1.00  0.00     0.218 HD
ENDBRANCH  10  12
BRANCH   4  14
HETATM   14  C5          0      34.041  87.322 -10.028  1.00  0.00     0.025 C 
HETATM   15  C6          0      33.931  88.463 -10.810  1.00  0.00     0.004 C 
HETATM   16  C7          0      32.676  89.054 -10.914  1.00  0.00     0.026 C 
HETATM   17  C8          0      31.594  88.608 -10.162  1.00  0.00     0.112 C 
HETATM   18  C10         0      31.937  87.931  -8.999  1.00  0.00     0.112 C 
HETATM   19  C12         0      33.162  87.277  -8.952  1.00  0.00     0.028 C 
BRANCH  17  20
HETATM   20  O9          0      30.308  88.664 -10.667  1.00  0.00    -0.357 OA
HETATM   21  H9          0      30.106  88.822 -11.582  1.00  0.00     0.218 HD
ENDBRANCH  17  20
BRANCH  18  22
HETATM   22  O11         0      30.907  87.632  -8.119  1.00  0.00    -0.357 OA
HETATM   23  H11         0      30.026  87.622  -8.476  1.00  0.00     0.218 HD
ENDBRANCH  18  22
ENDBRANCH   4  14
BRANCH   8  24
HETATM   24  O17         0      35.129  81.013  -7.901  1.00  0.00    -0.359 OA
HETATM   25  H17         0      34.378  80.432  -7.889  1.00  0.00     0.218 HD
ENDBRANCH   8  24
TORSDOF 5
ENDMDL
MODEL 4
REMARK VINA RESULT:      -8.4      2.012      7.049
REMARK  5 active torsions:
REMARK  status: ('A' for Active; 'I' for Inactive)
REMARK    1  A    between atoms: C4_4  and  C5_5 
REMARK    2  A    between atoms: C8_8  and  O9_9 
REMARK    3  A    between atoms: C10_11  and  O11_12 
REMARK    4  A    between atoms: C16_18  and  O17_19 
REMARK    5  A    between atoms: C19_22  and  O20_23 
ROOT
HETATM    1  O1          0      35.950  86.404  -9.116  1.00  0.00    -0.286 OA
HETATM    2  C2          0      35.469  85.320  -9.545  1.00  0.00     0.201 C 
HETATM    3  C3          0      34.108  85.107  -9.687  1.00  0.00     0.067 C 
HETATM    4  C4          0      33.599  83.870 -10.064  1.00  0.00     0.103 C 
HETATM    5  O13         0      34.445  82.884 -10.310  1.00  0.00    -0.307 OA
HETATM    6  C14         0      35.743  83.022 -10.154  1.00  0.00     0.107 C 
HETATM    7  C15         0      36.583  81.926 -10.017  1.00  0.00     0.049 C 
HETATM    8  C16         0      37.901  82.074  -9.601  1.00  0.00     0.093 C 
HETATM    9  C18         0      38.457  83.323  -9.848  1.00  0.00     0.048 C 
HETATM   10  C19         0      37.645  84.433 -10.037  1.00  0.00     0.096 C 
HETATM   11  C21         0      36.284  84.293  -9.995  1.00  0.00     0.084 C 
ENDROOT
BRANCH  10  12
HETATM   12  O20         0      38.176  85.705  -9.847  1.00  0.00    -0.359 OA
HETATM   13  H20         0      38.773  85.835  -9.120  1.00  0.00     0.218 HD
ENDBRANCH  10  12
BRANCH   4  14
HETATM   14  C5          0      32.242  83.541  -9.624  1.00  0.00     0.025 C 
HETATM   15  C6          0      31.949  82.416  -8.867  1.00  0.00     0.004 C 
HETATM   16  C7          0      30.987  82.543  -7.870  1.00  0.00     0.026 C 
HETATM   17  C8          0      30.243  83.708  -7.719  1.00  0.00     0.112 C 
HETATM   18  C10         0      30.151  84.490  -8.862  1.00  0.00     0.112 C 
HETATM   19  C12         0      31.171  84.407  -9.802  1.00  0.00     0.028 C 
BRANCH  17  20
HETATM   20  O9          0      29.826  84.125  -6.467  1.00  0.00    -0.357 OA
HETATM   21  H9          0      29.210  84.834  -6.325  1.00  0.00     0.218 HD
ENDBRANCH  17  20
BRANCH  18  22
HETATM   22  O11         0      29.270  85.562  -8.822  1.00  0.00    -0.357 OA
HETATM   23  H11         0      29.024  85.947  -9.654  1.00  0.00     0.218 HD
ENDBRANCH  18  22
ENDBRANCH   4  14
BRANCH   8  24
HETATM   24  O17         0      38.492  81.168  -8.713  1.00  0.00    -0.359 OA
HETATM   25  H17         0      38.697  81.409  -7.818  1.00  0.00     0.218 HD
ENDBRANCH   8  24
TORSDOF 5
ENDMDL
MODEL 5
REMARK VINA RESULT:      -8.4      2.467      3.820
REMARK  5 active torsions:
REMARK  status: ('A' for Active; 'I' for Inactive)
REMARK    1  A    between atoms: C4_4  and  C5_5 
REMARK    2  A    between atoms: C8_8  and  O9_9 
REMARK    3  A    between atoms: C10_11  and  O11_12 
REMARK    4  A    between atoms: C16_18  and  O17_19 
REMARK    5  A    between atoms: C19_22  and  O20_23 
ROOT
HETATM    1  O1          0      32.629  86.836 -10.535  1.00  0.00    -0.286 OA
HETATM    2  C2          0      33.239  86.101  -9.711  1.00  0.00     0.201 C 
HETATM    3  C3          0      34.014  85.021 -10.099  1.00  0.00     0.067 C 
HETATM    4  C4          0      34.592  84.166  -9.167  1.00  0.00     0.103 C 
HETATM    5  O13         0      34.408  84.411  -7.881  1.00  0.00    -0.307 OA
HETATM    6  C14         0      33.651  85.400  -7.460  1.00  0.00     0.107 C 
HETATM    7  C15         0      33.133  85.427  -6.173  1.00  0.00     0.049 C 
HETATM    8  C16         0      32.138  86.329  -5.814  1.00  0.00     0.093 C 
HETATM    9  C18         0      32.086  87.483  -6.585  1.00  0.00     0.048 C 
HETATM   10  C19         0      32.636  87.505  -7.860  1.00  0.00     0.096 C 
HETATM   11  C21         0      33.249  86.387  -8.354  1.00  0.00     0.084 C 
ENDROOT
BRANCH  10  12
HETATM   12  O20         0      32.212  88.472  -8.767  1.00  0.00    -0.359 OA
HETATM   13  H20         0      32.758  89.240  -8.886  1.00  0.00     0.218 HD
ENDBRANCH  10  12
BRANCH   4  14
HETATM   14  C5          0      34.853  82.790  -9.591  1.00  0.00     0.025 C 
HETATM   15  C6          0      33.898  82.002 -10.218  1.00  0.00     0.004 C 
HETATM   16  C7          0      34.326  81.161 -11.240  1.00  0.00     0.026 C 
HETATM   17  C8          0      35.675  81.007 -11.541  1.00  0.00     0.112 C 
HETATM   18  C10         0      36.540  81.312 -10.499  1.00  0.00     0.112 C 
HETATM   19  C12         0      36.119  82.221  -9.536  1.00  0.00     0.028 C 
BRANCH  17  20
HETATM   20  O9          0      36.089  80.775 -12.841  1.00  0.00    -0.357 OA
HETATM   21  H9          0      36.904  80.341 -13.066  1.00  0.00     0.218 HD
ENDBRANCH  17  20
BRANCH  18  22
HETATM   22  O11         0      37.880  80.997 -10.681  1.00  0.00    -0.357 OA
HETATM   23  H11         0      38.365  80.722  -9.912  1.00  0.00     0.218 HD
ENDBRANCH  18  22
ENDBRANCH   4  14
BRANCH   8  24
HETATM   24  O17         0      31.079  85.952  -4.980  1.00  0.00    -0.359 OA
HETATM   25  H17         0      30.593  85.149  -5.123  1.00  0.00     0.218 HD
ENDBRANCH   8  24
TORSDOF 5
ENDMDL
MODEL 6
REMARK VINA RESULT:      -8.3      3.660      4.986
REMARK  5 active torsions:
REMARK  status: ('A' for Active; 'I' for Inactive)
REMARK    1  A    between atoms: C4_4  and  C5_5 
REMARK    2  A    between atoms: C8_8  and  O9_9 
REMARK    3  A    between atoms: C10_11  and  O11_12 
REMARK    4  A    between atoms: C16_18  and  O17_19 
REMARK    5  A    between atoms: C19_22  and  O20_23 
ROOT
HETATM    1  O1          0      30.045  87.717 -10.238  1.00  0.00    -0.286 OA
HETATM    2  C2          0      31.225  87.746 -10.682  1.00  0.00     0.201 C 
HETATM    3  C3          0      32.157  86.760 -10.401  1.00  0.00     0.067 C 
HETATM    4  C4          0      33.479  86.868 -10.817  1.00  0.00     0.103 C 
HETATM    5  O13         0      33.841  87.931 -11.514  1.00  0.00    -0.307 OA
HETATM    6  C14         0      33.006  88.912 -11.776  1.00  0.00     0.107 C 
HETATM    7  C15         0      33.452  90.174 -12.140  1.00  0.00     0.049 C 
HETATM    8  C16         0      32.591  91.265 -12.166  1.00  0.00     0.093 C 
HETATM    9  C18         0      31.249  90.949 -12.340  1.00  0.00     0.048 C 
HETATM   10  C19         0      30.777  89.681 -12.031  1.00  0.00     0.096 C 
HETATM   11  C21         0      31.643  88.728 -11.566  1.00  0.00     0.084 C 
ENDROOT
BRANCH  10  12
HETATM   12  O20         0      29.419  89.501 -11.789  1.00  0.00    -0.359 OA
HETATM   13  H20         0      28.852  89.336 -12.533  1.00  0.00     0.218 HD
ENDBRANCH  10  12
BRANCH   4  14
HETATM   14  C5          0      34.490  86.169 -10.022  1.00  0.00     0.025 C 
HETATM   15  C6          0      34.239  84.969  -9.373  1.00  0.00     0.004 C 
HETATM   16  C7          0      35.256  84.019  -9.358  1.00  0.00     0.026 C 
HETATM   17  C8          0      36.525  84.302  -9.852  1.00  0.00     0.112 C 
HETATM   18  C10         0      36.849  85.651  -9.880  1.00  0.00     0.112 C 
HETATM   19  C12         0      35.817  86.577  -9.981  1.00  0.00     0.028 C 
BRANCH  17  20
HETATM   20  O9          0      37.286  83.316 -10.455  1.00  0.00    -0.357 OA
HETATM   21  H9          0      37.129  82.385 -10.343  1.00  0.00     0.218 HD
ENDBRANCH  17  20
BRANCH  18  22
HETATM   22  O11         0      38.164  85.975 -10.184  1.00  0.00    -0.357 OA
HETATM   23  H11         0      38.815  85.805  -9.513  1.00  0.00     0.218 HD
ENDBRANCH  18  22
ENDBRANCH   4  14
BRANCH   8  24
HETATM   24  O17         0      32.998  92.526 -11.716  1.00  0.00    -0.359 OA
HETATM   25  H17         0      33.915  92.739 -11.589  1.00  0.00     0.218 HD
ENDBRANCH   8  24
TORSDOF 5
ENDMDL
MODEL 7
REMARK VINA RESULT:      -8.2      3.299      5.263
REMARK  5 active torsions:
REMARK  status: ('A' for Active; 'I' for Inactive)
REMARK    1  A    between atoms: C4_4  and  C5_5 
REMARK    2  A    between atoms: C8_8  and  O9_9 
REMARK    3  A    between atoms: C10_11  and  O11_12 
REMARK    4  A    between atoms: C16_18  and  O17_19 
REMARK    5  A    between atoms: C19_22  and  O20_23 
ROOT
HETATM    1  O1          0      29.214  87.912  -9.973  1.00  0.00    -0.286 OA
HETATM    2  C2          0      30.327  87.475 -10.375  1.00  0.00     0.201 C 
HETATM    3  C3          0      30.721  86.158 -10.209  1.00  0.00     0.067 C 
HETATM    4  C4          0      31.993  85.727 -10.569  1.00  0.00     0.103 C 
HETATM    5  O13         0      32.832  86.598 -11.100  1.00  0.00    -0.307 OA
HETATM    6  C14         0      32.522  87.868 -11.245  1.00  0.00     0.107 C 
HETATM    7  C15         0      33.495  88.843 -11.415  1.00  0.00     0.049 C 
HETATM    8  C16         0      33.188  90.194 -11.312  1.00  0.00     0.093 C 
HETATM    9  C18         0      31.860  90.515 -11.566  1.00  0.00     0.048 C 
HETATM   10  C19         0      30.867  89.552 -11.451  1.00  0.00     0.096 C 
HETATM   11  C21         0      31.199  88.272 -11.101  1.00  0.00     0.084 C 
ENDROOT
BRANCH  10  12
HETATM   12  O20         0      29.546  89.955 -11.275  1.00  0.00    -0.359 OA
HETATM   13  H20         0      29.032  89.515 -10.608  1.00  0.00     0.218 HD
ENDBRANCH  10  12
BRANCH   4  14
HETATM   14  C5          0      32.536  84.572  -9.852  1.00  0.00     0.025 C 
HETATM   15  C6          0      33.897  84.367  -9.678  1.00  0.00     0.004 C 
HETATM   16  C7          0      34.320  83.848  -8.458  1.00  0.00     0.026 C 
HETATM   17  C8          0      33.414  83.421  -7.493  1.00  0.00     0.112 C 
HETATM   18  C10         0      32.162  83.078  -7.985  1.00  0.00     0.112 C 
HETATM   19  C12         0      31.728  83.676  -9.163  1.00  0.00     0.028 C 
BRANCH  17  20
HETATM   20  O9          0      33.702  83.546  -6.146  1.00  0.00    -0.357 OA
HETATM   21  H9          0      33.273  84.167  -5.569  1.00  0.00     0.218 HD
ENDBRANCH  17  20
BRANCH  18  22
HETATM   22  O11         0      31.284  82.469  -7.100  1.00  0.00    -0.357 OA
HETATM   23  H11         0      31.259  82.814  -6.215  1.00  0.00     0.218 HD
ENDBRANCH  18  22
ENDBRANCH   4  14
BRANCH   8  24
HETATM   24  O17         0      34.054  91.093 -10.679  1.00  0.00    -0.359 OA
HETATM   25  H17         0      33.750  91.686 -10.002  1.00  0.00     0.218 HD
ENDBRANCH   8  24
TORSDOF 5
ENDMDL
MODEL 8
REMARK VINA RESULT:      -8.2      3.093      4.584
REMARK  5 active torsions:
REMARK  status: ('A' for Active; 'I' for Inactive)
REMARK    1  A    between atoms: C4_4  and  C5_5 
REMARK    2  A    between atoms: C8_8  and  O9_9 
REMARK    3  A    between atoms: C10_11  and  O11_12 
REMARK    4  A    between atoms: C16_18  and  O17_19 
REMARK    5  A    between atoms: C19_22  and  O20_23 
ROOT
HETATM    1  O1          0      34.568  87.708  -9.965  1.00  0.00    -0.286 OA
HETATM    2  C2          0      33.513  87.237  -9.459  1.00  0.00     0.201 C 
HETATM    3  C3          0      33.513  86.157  -8.594  1.00  0.00     0.067 C 
HETATM    4  C4          0      32.329  85.593  -8.132  1.00  0.00     0.103 C 
HETATM    5  O13         0      31.181  86.121  -8.518  1.00  0.00    -0.307 OA
HETATM    6  C14         0      31.124  87.123  -9.368  1.00  0.00     0.107 C 
HETATM    7  C15         0      29.967  87.416 -10.076  1.00  0.00     0.049 C 
HETATM    8  C16         0      29.981  88.301 -11.147  1.00  0.00     0.093 C 
HETATM    9  C18         0      31.012  89.232 -11.126  1.00  0.00     0.048 C 
HETATM   10  C19         0      32.165  88.992 -10.390  1.00  0.00     0.096 C 
HETATM   11  C21         0      32.280  87.837  -9.667  1.00  0.00     0.084 C 
ENDROOT
BRANCH  10  12
HETATM   12  O20         0      33.331  89.682 -10.708  1.00  0.00    -0.359 OA
HETATM   13  H20         0      33.580  90.413 -10.156  1.00  0.00     0.218 HD
ENDBRANCH  10  12
BRANCH   4  14
HETATM   14  C5          0      32.363  84.178  -7.756  1.00  0.00     0.025 C 
HETATM   15  C6          0      31.222  83.393  -7.679  1.00  0.00     0.004 C 
HETATM   16  C7          0      31.315  82.075  -8.115  1.00  0.00     0.026 C 
HETATM   17  C8          0      32.532  81.515  -8.489  1.00  0.00     0.112 C 
HETATM   18  C10         0      33.648  82.137  -7.945  1.00  0.00     0.112 C 
HETATM   19  C12         0      33.552  83.479  -7.596  1.00  0.00     0.028 C 
BRANCH  17  20
HETATM   20  O9          0      32.595  80.559  -9.487  1.00  0.00    -0.357 OA
HETATM   21  H9          0      33.374  80.052  -9.684  1.00  0.00     0.218 HD
ENDBRANCH  17  20
BRANCH  18  22
HETATM   22  O11         0      34.870  81.508  -8.131  1.00  0.00    -0.357 OA
HETATM   23  H11         0      35.645  82.057  -8.105  1.00  0.00     0.218 HD
ENDBRANCH  18  22
ENDBRANCH   4  14
BRANCH   8  24
HETATM   24  O17         0      29.235  88.055 -12.306  1.00  0.00    -0.359 OA
HETATM   25  H17         0      29.269  87.218 -12.752  1.00  0.00     0.218 HD
ENDBRANCH   8  24
TORSDOF 5
ENDMDL
MODEL 9
REMARK VINA RESULT:      -8.1      3.302      4.900
REMARK  5 active torsions:
REMARK  status: ('A' for Active; 'I' for Inactive)
REMARK    1  A    between atoms: C4_4  and  C5_5 
REMARK    2  A    between atoms: C8_8  and  O9_9 
REMARK    3  A    between atoms: C10_11  and  O11_12 
REMARK    4  A    between atoms: C16_18  and  O17_19 
REMARK    5  A    between atoms: C19_22  and  O20_23 
ROOT
HETATM    1  O1          0      29.701  87.383  -9.616  1.00  0.00    -0.286 OA
HETATM    2  C2          0      30.830  87.096 -10.100  1.00  0.00     0.201 C 
HETATM    3  C3          0      31.420  85.853  -9.942  1.00  0.00     0.067 C 
HETATM    4  C4          0      32.708  85.596 -10.398  1.00  0.00     0.103 C 
HETATM    5  O13         0      33.369  86.561 -11.013  1.00  0.00    -0.307 OA
HETATM    6  C14         0      32.870  87.769 -11.156  1.00  0.00     0.107 C 
HETATM    7  C15         0      33.675  88.866 -11.424  1.00  0.00     0.049 C 
HETATM    8  C16         0      33.187  90.163 -11.322  1.00  0.00     0.093 C 
HETATM    9  C18         0      31.810  90.285 -11.472  1.00  0.00     0.048 C 
HETATM   10  C19         0      30.978  89.195 -11.256  1.00  0.00     0.096 C 
HETATM   11  C21         0      31.518  87.986 -10.910  1.00  0.00     0.084 C 
ENDROOT
BRANCH  10  12
HETATM   12  O20         0      29.632  89.411 -10.979  1.00  0.00    -0.359 OA
HETATM   13  H20         0      29.091  88.656 -10.782  1.00  0.00     0.218 HD
ENDBRANCH  10  12
BRANCH   4  14
HETATM   14  C5          0      33.467  84.552  -9.706  1.00  0.00     0.025 C 
HETATM   15  C6          0      33.423  84.377  -8.330  1.00  0.00     0.004 C 
HETATM   16  C7          0      33.433  83.073  -7.846  1.00  0.00     0.026 C 
HETATM   17  C8          0      33.616  81.983  -8.690  1.00  0.00     0.112 C 
HETATM   18  C10         0      34.266  82.275  -9.882  1.00  0.00     0.112 C 
HETATM   19  C12         0      34.168  83.566 -10.388  1.00  0.00     0.028 C 
BRANCH  17  20
HETATM   20  O9          0      33.001  80.771  -8.427  1.00  0.00    -0.357 OA
HETATM   21  H9          0      33.472  79.981  -8.189  1.00  0.00     0.218 HD
ENDBRANCH  17  20
BRANCH  18  22
HETATM   22  O11         0      34.641  81.199 -10.673  1.00  0.00    -0.357 OA
HETATM   23  H11         0      34.586  81.317 -11.614  1.00  0.00     0.218 HD
ENDBRANCH  18  22
ENDBRANCH   4  14
BRANCH   8  24
HETATM   24  O17         0      33.962  91.194 -10.780  1.00  0.00    -0.359 OA
HETATM   25  H17         0      33.702  91.651  -9.990  1.00  0.00     0.218 HD
ENDBRANCH   8  24
TORSDOF 5
ENDMDL
