MODEL 1
REMARK VINA RESULT:      -0.0      0.000      0.000
REMARK  5 active torsions:
REMARK  status: ('A' for Active; 'I' for Inactive)
REMARK    1  A    between atoms: C4_4  and  C5_5 
REMARK    2  A    between atoms: C8_8  and  O9_9 
REMARK    3  A    between atoms: C10_11  and  O11_12 
REMARK    4  A    between atoms: C16_18  and  O17_19 
REMARK    5  A    between atoms: C19_22  and  O20_23 
ROOT
HETATM    1  O1          0      76.865 120.552  -4.424  1.00  0.00    -0.286 OA
HETATM    2  C2          0      76.141 119.854  -5.185  1.00  0.00     0.201 C 
HETATM    3  C3          0      76.571 119.398  -6.420  1.00  0.00     0.067 C 
HETATM    4  C4          0      75.719 118.718  -7.282  1.00  0.00     0.103 C 
HETATM    5  O13         0      74.476 118.488  -6.897  1.00  0.00    -0.307 OA
HETATM    6  C14         0      74.006 118.931  -5.751  1.00  0.00     0.107 C 
HETATM    7  C15         0      72.644 119.050  -5.517  1.00  0.00     0.049 C 
HETATM    8  C16         0      72.159 119.749  -4.418  1.00  0.00     0.093 C 
HETATM    9  C18         0      73.038 119.840  -3.346  1.00  0.00     0.048 C 
HETATM   10  C19         0      74.404 119.680  -3.537  1.00  0.00     0.096 C 
HETATM   11  C21         0      74.887 119.414  -4.789  1.00  0.00     0.084 C 
ENDROOT
BRANCH  10  12
HETATM   12  O20         0      75.288 120.190  -2.591  1.00  0.00    -0.359 OA
HETATM   13  H20         0      74.936 120.453  -1.750  1.00  0.00     0.218 HD
ENDBRANCH  10  12
BRANCH   4  14
HETATM   14  C5          0      76.008 118.804  -8.715  1.00  0.00     0.025 C 
HETATM   15  C6          0      75.029 118.671  -9.689  1.00  0.00     0.004 C 
HETATM   16  C7          0      75.120 119.489 -10.810  1.00  0.00     0.026 C 
HETATM   17  C8          0      76.218 120.316 -11.023  1.00  0.00     0.112 C 
HETATM   18  C10         0      77.377 119.920 -10.369  1.00  0.00     0.112 C 
HETATM   19  C12         0      77.255 119.175  -9.202  1.00  0.00     0.028 C 
BRANCH  17  20
HETATM   20  O9          0      76.074 121.534 -11.662  1.00  0.00    -0.357 OA
HETATM   21  H9          0      76.638 122.283 -11.505  1.00  0.00     0.218 HD
ENDBRANCH  17  20
BRANCH  18  22
HETATM   22  O11         0      78.544 120.597 -10.694  1.00  0.00    -0.357 OA
HETATM   23  H11         0      79.355 120.245 -10.346  1.00  0.00     0.218 HD
ENDBRANCH  18  22
ENDBRANCH   4  14
BRANCH   8  24
HETATM   24  O17         0      71.032 120.572  -4.517  1.00  0.00    -0.359 OA
HETATM   25  H17         0      71.108 121.510  -4.648  1.00  0.00     0.218 HD
ENDBRANCH   8  24
TORSDOF 5
ENDMDL
MODEL 2
REMARK VINA RESULT:      -0.0      7.686     10.403
REMARK  5 active torsions:
REMARK  status: ('A' for Active; 'I' for Inactive)
REMARK    1  A    between atoms: C4_4  and  C5_5 
REMARK    2  A    between atoms: C8_8  and  O9_9 
REMARK    3  A    between atoms: C10_11  and  O11_12 
REMARK    4  A    between atoms: C16_18  and  O17_19 
REMARK    5  A    between atoms: C19_22  and  O20_23 
ROOT
HETATM    1  O1          0      75.359 116.622 -16.323  1.00  0.00    -0.286 OA
HETATM    2  C2          0      74.414 116.403 -15.515  1.00  0.00     0.201 C 
HETATM    3  C3          0      73.691 115.222 -15.508  1.00  0.00     0.067 C 
HETATM    4  C4          0      72.590 115.048 -14.678  1.00  0.00     0.103 C 
HETATM    5  O13         0      72.245 116.031 -13.865  1.00  0.00    -0.307 OA
HETATM    6  C14         0      72.874 117.186 -13.859  1.00  0.00     0.107 C 
HETATM    7  C15         0      72.297 118.330 -13.327  1.00  0.00     0.049 C 
HETATM    8  C16         0      72.848 119.586 -13.549  1.00  0.00     0.093 C 
HETATM    9  C18         0      74.208 119.588 -13.835  1.00  0.00     0.048 C 
HETATM   10  C19         0      74.827 118.447 -14.325  1.00  0.00     0.096 C 
HETATM   11  C21         0      74.097 117.305 -14.511  1.00  0.00     0.084 C 
ENDROOT
BRANCH  10  12
HETATM   12  O20         0      76.035 118.567 -15.005  1.00  0.00    -0.359 OA
HETATM   13  H20         0      76.633 117.829 -14.984  1.00  0.00     0.218 HD
ENDBRANCH  10  12
BRANCH   4  14
HETATM   14  C5          0      71.561 114.105 -15.120  1.00  0.00     0.025 C 
HETATM   15  C6          0      70.232 114.208 -14.736  1.00  0.00     0.004 C 
HETATM   16  C7          0      69.261 113.906 -15.686  1.00  0.00     0.026 C 
HETATM   17  C8          0      69.596 113.390 -16.933  1.00  0.00     0.112 C 
HETATM   18  C10         0      70.826 112.747 -16.983  1.00  0.00     0.112 C 
HETATM   19  C12         0      71.808 113.128 -16.076  1.00  0.00     0.028 C 
BRANCH  17  20
HETATM   20  O9          0      68.844 113.698 -18.053  1.00  0.00    -0.357 OA
HETATM   21  H9          0      67.994 114.120 -18.018  1.00  0.00     0.218 HD
ENDBRANCH  17  20
BRANCH  18  22
HETATM   22  O11         0      71.125 112.053 -18.146  1.00  0.00    -0.357 OA
HETATM   23  H11         0      70.563 112.208 -18.897  1.00  0.00     0.218 HD
ENDBRANCH  18  22
ENDBRANCH   4  14
BRANCH   8  24
HETATM   24  O17         0      72.042 120.703 -13.797  1.00  0.00    -0.359 OA
HETATM   25  H17         0      71.238 120.636 -14.299  1.00  0.00     0.218 HD
ENDBRANCH   8  24
TORSDOF 5
ENDMDL
MODEL 3
REMARK VINA RESULT:      -0.0      8.183     10.675
REMARK  5 active torsions:
REMARK  status: ('A' for Active; 'I' for Inactive)
REMARK    1  A    between atoms: C4_4  and  C5_5 
REMARK    2  A    between atoms: C8_8  and  O9_9 
REMARK    3  A    between atoms: C10_11  and  O11_12 
REMARK    4  A    between atoms: C16_18  and  O17_19 
REMARK    5  A    between atoms: C19_22  and  O20_23 
ROOT
HETATM    1  O1          0      71.872 123.954  -9.088  1.00  0.00    -0.286 OA
HETATM    2  C2          0      71.445 125.107  -8.806  1.00  0.00     0.201 C 
HETATM    3  C3          0      70.294 125.321  -8.068  1.00  0.00     0.067 C 
HETATM    4  C4          0      69.789 126.600  -7.859  1.00  0.00     0.103 C 
HETATM    5  O13         0      70.444 127.630  -8.364  1.00  0.00    -0.307 OA
HETATM    6  C14         0      71.521 127.480  -9.104  1.00  0.00     0.107 C 
HETATM    7  C15         0      71.971 128.483  -9.951  1.00  0.00     0.049 C 
HETATM    8  C16         0      72.946 128.233 -10.909  1.00  0.00     0.093 C 
HETATM    9  C18         0      73.784 127.160 -10.629  1.00  0.00     0.048 C 
HETATM   10  C19         0      73.383 126.163  -9.750  1.00  0.00     0.096 C 
HETATM   11  C21         0      72.161 126.246  -9.141  1.00  0.00     0.084 C 
ENDROOT
BRANCH  10  12
HETATM   12  O20         0      74.000 124.918  -9.808  1.00  0.00    -0.359 OA
HETATM   13  H20         0      74.939 124.880  -9.671  1.00  0.00     0.218 HD
ENDBRANCH  10  12
BRANCH   4  14
HETATM   14  C5          0      68.348 126.722  -7.631  1.00  0.00     0.025 C 
HETATM   15  C6          0      67.634 127.871  -7.939  1.00  0.00     0.004 C 
HETATM   16  C7          0      66.355 127.713  -8.464  1.00  0.00     0.026 C 
HETATM   17  C8          0      65.753 126.463  -8.555  1.00  0.00     0.112 C 
HETATM   18  C10         0      66.253 125.513  -7.675  1.00  0.00     0.112 C 
HETATM   19  C12         0      67.564 125.648  -7.232  1.00  0.00     0.028 C 
BRANCH  17  20
HETATM   20  O9          0      64.885 126.168  -9.591  1.00  0.00    -0.357 OA
HETATM   21  H9          0      63.983 126.466  -9.625  1.00  0.00     0.218 HD
ENDBRANCH  17  20
BRANCH  18  22
HETATM   22  O11         0      65.566 124.310  -7.591  1.00  0.00    -0.357 OA
HETATM   23  H11         0      64.686 124.341  -7.234  1.00  0.00     0.218 HD
ENDBRANCH  18  22
ENDBRANCH   4  14
BRANCH   8  24
HETATM   24  O17         0      72.870 128.793 -12.190  1.00  0.00    -0.359 OA
HETATM   25  H17         0      72.341 128.401 -12.875  1.00  0.00     0.218 HD
ENDBRANCH   8  24
TORSDOF 5
ENDMDL
MODEL 4
REMARK VINA RESULT:      -0.0      6.186      7.293
REMARK  5 active torsions:
REMARK  status: ('A' for Active; 'I' for Inactive)
REMARK    1  A    between atoms: C4_4  and  C5_5 
REMARK    2  A    between atoms: C8_8  and  O9_9 
REMARK    3  A    between atoms: C10_11  and  O11_12 
REMARK    4  A    between atoms: C16_18  and  O17_19 
REMARK    5  A    between atoms: C19_22  and  O20_23 
ROOT
HETATM    1  O1          0      74.612 116.487  -4.965  1.00  0.00    -0.286 OA
HETATM    2  C2          0      74.380 115.248  -4.937  1.00  0.00     0.201 C 
HETATM    3  C3          0      75.371 114.303  -4.734  1.00  0.00     0.067 C 
HETATM    4  C4          0      75.106 112.940  -4.810  1.00  0.00     0.103 C 
HETATM    5  O13         0      73.870 112.547  -5.064  1.00  0.00    -0.307 OA
HETATM    6  C14         0      72.900 113.402  -5.302  1.00  0.00     0.107 C 
HETATM    7  C15         0      71.732 113.022  -5.948  1.00  0.00     0.049 C 
HETATM    8  C16         0      70.829 113.966  -6.422  1.00  0.00     0.093 C 
HETATM    9  C18         0      70.872 115.195  -5.775  1.00  0.00     0.048 C 
HETATM   10  C19         0      72.007 115.588  -5.080  1.00  0.00     0.096 C 
HETATM   11  C21         0      73.088 114.750  -5.016  1.00  0.00     0.084 C 
ENDROOT
BRANCH  10  12
HETATM   12  O20         0      72.213 116.939  -4.821  1.00  0.00    -0.359 OA
HETATM   13  H20         0      73.003 117.188  -4.356  1.00  0.00     0.218 HD
ENDBRANCH  10  12
BRANCH   4  14
HETATM   14  C5          0      76.216 112.062  -5.185  1.00  0.00     0.025 C 
HETATM   15  C6          0      76.028 110.839  -5.812  1.00  0.00     0.004 C 
HETATM   16  C7          0      76.940 110.472  -6.796  1.00  0.00     0.026 C 
HETATM   17  C8          0      78.077 111.230  -7.056  1.00  0.00     0.112 C 
HETATM   18  C10         0      78.493 112.031  -6.002  1.00  0.00     0.112 C 
HETATM   19  C12         0      77.544 112.454  -5.079  1.00  0.00     0.028 C 
BRANCH  17  20
HETATM   20  O9          0      78.594 111.315  -8.337  1.00  0.00    -0.357 OA
HETATM   21  H9          0      78.952 112.113  -8.710  1.00  0.00     0.218 HD
ENDBRANCH  17  20
BRANCH  18  22
HETATM   22  O11         0      79.722 112.662  -6.138  1.00  0.00    -0.357 OA
HETATM   23  H11         0      80.175 112.898  -5.338  1.00  0.00     0.218 HD
ENDBRANCH  18  22
ENDBRANCH   4  14
BRANCH   8  24
HETATM   24  O17         0      70.183 113.804  -7.652  1.00  0.00    -0.359 OA
HETATM   25  H17         0      70.505 113.197  -8.309  1.00  0.00     0.218 HD
ENDBRANCH   8  24
TORSDOF 5
ENDMDL
MODEL 5
REMARK VINA RESULT:       0.0      7.502      9.789
REMARK  5 active torsions:
REMARK  status: ('A' for Active; 'I' for Inactive)
REMARK    1  A    between atoms: C4_4  and  C5_5 
REMARK    2  A    between atoms: C8_8  and  O9_9 
REMARK    3  A    between atoms: C10_11  and  O11_12 
REMARK    4  A    between atoms: C16_18  and  O17_19 
REMARK    5  A    between atoms: C19_22  and  O20_23 
ROOT
HETATM    1  O1          0      70.226 112.764 -10.090  1.00  0.00    -0.286 OA
HETATM    2  C2          0      69.829 113.135  -8.951  1.00  0.00     0.201 C 
HETATM    3  C3          0      70.607 113.896  -8.096  1.00  0.00     0.067 C 
HETATM    4  C4          0      70.187 114.204  -6.807  1.00  0.00     0.103 C 
HETATM    5  O13         0      69.005 113.771  -6.405  1.00  0.00    -0.307 OA
HETATM    6  C14         0      68.243 113.014  -7.163  1.00  0.00     0.107 C 
HETATM    7  C15         0      67.221 112.240  -6.631  1.00  0.00     0.049 C 
HETATM    8  C16         0      66.592 111.258  -7.385  1.00  0.00     0.093 C 
HETATM    9  C18         0      66.645 111.450  -8.761  1.00  0.00     0.048 C 
HETATM   10  C19         0      67.626 112.256  -9.323  1.00  0.00     0.096 C 
HETATM   11  C21         0      68.538 112.879  -8.515  1.00  0.00     0.084 C 
ENDROOT
BRANCH  10  12
HETATM   12  O20         0      67.945 112.101 -10.668  1.00  0.00    -0.359 OA
HETATM   13  H20         0      67.486 112.642 -11.300  1.00  0.00     0.218 HD
ENDBRANCH  10  12
BRANCH   4  14
HETATM   14  C5          0      71.225 114.452  -5.805  1.00  0.00     0.025 C 
HETATM   15  C6          0      71.028 114.236  -4.449  1.00  0.00     0.004 C 
HETATM   16  C7          0      72.090 113.711  -3.719  1.00  0.00     0.026 C 
HETATM   17  C8          0      73.347 113.532  -4.286  1.00  0.00     0.112 C 
HETATM   18  C10         0      73.606 114.336  -5.388  1.00  0.00     0.112 C 
HETATM   19  C12         0      72.531 114.777  -6.151  1.00  0.00     0.028 C 
BRANCH  17  20
HETATM   20  O9          0      74.160 112.484  -3.891  1.00  0.00    -0.357 OA
HETATM   21  H9          0      74.695 111.977  -4.490  1.00  0.00     0.218 HD
ENDBRANCH  17  20
BRANCH  18  22
HETATM   22  O11         0      74.905 114.335  -5.875  1.00  0.00    -0.357 OA
HETATM   23  H11         0      75.300 115.182  -6.048  1.00  0.00     0.218 HD
ENDBRANCH  18  22
ENDBRANCH   4  14
BRANCH   8  24
HETATM   24  O17         0      66.240 110.024  -6.828  1.00  0.00    -0.359 OA
HETATM   25  H17         0      66.574 109.744  -5.984  1.00  0.00     0.218 HD
ENDBRANCH   8  24
TORSDOF 5
ENDMDL
MODEL 6
REMARK VINA RESULT:       0.0      9.311     10.671
REMARK  5 active torsions:
REMARK  status: ('A' for Active; 'I' for Inactive)
REMARK    1  A    between atoms: C4_4  and  C5_5 
REMARK    2  A    between atoms: C8_8  and  O9_9 
REMARK    3  A    between atoms: C10_11  and  O11_12 
REMARK    4  A    between atoms: C16_18  and  O17_19 
REMARK    5  A    between atoms: C19_22  and  O20_23 
ROOT
HETATM    1  O1          0      68.781 125.442  -1.671  1.00  0.00    -0.286 OA
HETATM    2  C2          0      68.336 125.720  -2.818  1.00  0.00     0.201 C 
HETATM    3  C3          0      67.188 125.147  -3.337  1.00  0.00     0.067 C 
HETATM    4  C4          0      66.777 125.393  -4.643  1.00  0.00     0.103 C 
HETATM    5  O13         0      67.495 126.211  -5.391  1.00  0.00    -0.307 OA
HETATM    6  C14         0      68.614 126.753  -4.960  1.00  0.00     0.107 C 
HETATM    7  C15         0      69.560 127.269  -5.833  1.00  0.00     0.049 C 
HETATM    8  C16         0      70.837 127.603  -5.398  1.00  0.00     0.093 C 
HETATM    9  C18         0      70.937 127.899  -4.044  1.00  0.00     0.048 C 
HETATM   10  C19         0      69.982 127.437  -3.148  1.00  0.00     0.096 C 
HETATM   11  C21         0      68.924 126.699  -3.605  1.00  0.00     0.084 C 
ENDROOT
BRANCH  10  12
HETATM   12  O20         0      70.301 127.353  -1.797  1.00  0.00    -0.359 OA
HETATM   13  H20         0      69.597 127.450  -1.166  1.00  0.00     0.218 HD
ENDBRANCH  10  12
BRANCH   4  14
HETATM   14  C5          0      65.976 124.358  -5.299  1.00  0.00     0.025 C 
HETATM   15  C6          0      65.951 124.186  -6.675  1.00  0.00     0.004 C 
HETATM   16  C7          0      65.906 122.884  -7.162  1.00  0.00     0.026 C 
HETATM   17  C8          0      65.756 121.793  -6.313  1.00  0.00     0.112 C 
HETATM   18  C10         0      65.168 122.087  -5.090  1.00  0.00     0.112 C 
HETATM   19  C12         0      65.301 123.375  -4.586  1.00  0.00     0.028 C 
BRANCH  17  20
HETATM   20  O9          0      66.347 120.577  -6.609  1.00  0.00    -0.357 OA
HETATM   21  H9          0      65.869 119.823  -6.935  1.00  0.00     0.218 HD
ENDBRANCH  17  20
BRANCH  18  22
HETATM   22  O11         0      64.823 121.011  -4.284  1.00  0.00    -0.357 OA
HETATM   23  H11         0      64.846 120.149  -4.684  1.00  0.00     0.218 HD
ENDBRANCH  18  22
ENDBRANCH   4  14
BRANCH   8  24
HETATM   24  O17         0      71.967 127.333  -6.178  1.00  0.00    -0.359 OA
HETATM   25  H17         0      71.937 126.722  -6.905  1.00  0.00     0.218 HD
ENDBRANCH   8  24
TORSDOF 5
ENDMDL
MODEL 7
REMARK VINA RESULT:       0.0      9.262     13.117
REMARK  5 active torsions:
REMARK  status: ('A' for Active; 'I' for Inactive)
REMARK    1  A    between atoms: C4_4  and  C5_5 
REMARK    2  A    between atoms: C8_8  and  O9_9 
REMARK    3  A    between atoms: C10_11  and  O11_12 
REMARK    4  A    between atoms: C16_18  and  O17_19 
REMARK    5  A    between atoms: C19_22  and  O20_23 
ROOT
HETATM    1  O1          0      62.965 118.292  -7.564  1.00  0.00    -0.286 OA
HETATM    2  C2          0      63.641 117.232  -7.459  1.00  0.00     0.201 C 
HETATM    3  C3          0      63.127 116.064  -6.923  1.00  0.00     0.067 C 
HETATM    4  C4          0      63.923 114.941  -6.724  1.00  0.00     0.103 C 
HETATM    5  O13         0      65.195 114.995  -7.078  1.00  0.00    -0.307 OA
HETATM    6  C14         0      65.742 116.091  -7.556  1.00  0.00     0.107 C 
HETATM    7  C15         0      67.116 116.284  -7.551  1.00  0.00     0.049 C 
HETATM    8  C16         0      67.670 117.530  -7.817  1.00  0.00     0.093 C 
HETATM    9  C18         0      66.874 118.377  -8.578  1.00  0.00     0.048 C 
HETATM   10  C19         0      65.500 118.184  -8.643  1.00  0.00     0.096 C 
HETATM   11  C21         0      64.928 117.142  -7.966  1.00  0.00     0.084 C 
ENDROOT
BRANCH  10  12
HETATM   12  O20         0      64.682 119.244  -9.021  1.00  0.00    -0.359 OA
HETATM   13  H20         0      64.848 119.657  -9.860  1.00  0.00     0.218 HD
ENDBRANCH  10  12
BRANCH   4  14
HETATM   14  C5          0      63.525 114.018  -5.660  1.00  0.00     0.025 C 
HETATM   15  C6          0      64.430 113.206  -4.992  1.00  0.00     0.004 C 
HETATM   16  C7          0      64.241 113.016  -3.627  1.00  0.00     0.026 C 
HETATM   17  C8          0      63.116 113.506  -2.972  1.00  0.00     0.112 C 
HETATM   18  C10         0      62.016 113.724  -3.791  1.00  0.00     0.112 C 
HETATM   19  C12         0      62.239 113.996  -5.136  1.00  0.00     0.028 C 
BRANCH  17  20
HETATM   20  O9          0      63.190 113.929  -1.657  1.00  0.00    -0.357 OA
HETATM   21  H9          0      63.131 113.345  -0.910  1.00  0.00     0.218 HD
ENDBRANCH  17  20
BRANCH  18  22
HETATM   22  O11         0      60.817 114.030  -3.165  1.00  0.00    -0.357 OA
HETATM   23  H11         0      60.691 113.690  -2.287  1.00  0.00     0.218 HD
ENDBRANCH  18  22
ENDBRANCH   4  14
BRANCH   8  24
HETATM   24  O17         0      68.773 118.006  -7.098  1.00  0.00    -0.359 OA
HETATM   25  H17         0      69.613 117.562  -7.121  1.00  0.00     0.218 HD
ENDBRANCH   8  24
TORSDOF 5
ENDMDL
MODEL 8
REMARK VINA RESULT:       0.0      9.523     11.292
REMARK  5 active torsions:
REMARK  status: ('A' for Active; 'I' for Inactive)
REMARK    1  A    between atoms: C4_4  and  C5_5 
REMARK    2  A    between atoms: C8_8  and  O9_9 
REMARK    3  A    between atoms: C10_11  and  O11_12 
REMARK    4  A    between atoms: C16_18  and  O17_19 
REMARK    5  A    between atoms: C19_22  and  O20_23 
ROOT
HETATM    1  O1          0      69.223 127.246  -6.848  1.00  0.00    -0.286 OA
HETATM    2  C2          0      69.034 126.642  -5.757  1.00  0.00     0.201 C 
HETATM    3  C3          0      68.394 125.417  -5.678  1.00  0.00     0.067 C 
HETATM    4  C4          0      68.107 124.823  -4.455  1.00  0.00     0.103 C 
HETATM    5  O13         0      68.476 125.440  -3.346  1.00  0.00    -0.307 OA
HETATM    6  C14         0      69.054 126.621  -3.364  1.00  0.00     0.107 C 
HETATM    7  C15         0      69.079 127.439  -2.243  1.00  0.00     0.049 C 
HETATM    8  C16         0      69.457 128.773  -2.331  1.00  0.00     0.093 C 
HETATM    9  C18         0      70.280 129.080  -3.408  1.00  0.00     0.048 C 
HETATM   10  C19         0      70.314 128.258  -4.526  1.00  0.00     0.096 C 
HETATM   11  C21         0      69.544 127.128  -4.562  1.00  0.00     0.084 C 
ENDROOT
BRANCH  10  12
HETATM   12  O20         0      70.775 128.772  -5.735  1.00  0.00    -0.359 OA
HETATM   13  H20         0      71.199 128.176  -6.339  1.00  0.00     0.218 HD
ENDBRANCH  10  12
BRANCH   4  14
HETATM   14  C5          0      66.962 123.911  -4.405  1.00  0.00     0.025 C 
HETATM   15  C6          0      66.236 123.678  -3.246  1.00  0.00     0.004 C 
HETATM   16  C7          0      64.858 123.533  -3.368  1.00  0.00     0.026 C 
HETATM   17  C8          0      64.236 123.486  -4.611  1.00  0.00     0.112 C 
HETATM   18  C10         0      65.060 123.093  -5.657  1.00  0.00     0.112 C 
HETATM   19  C12         0      66.425 123.327  -5.546  1.00  0.00     0.028 C 
BRANCH  17  20
HETATM   20  O9          0      62.963 123.999  -4.787  1.00  0.00    -0.357 OA
HETATM   21  H9          0      62.509 124.011  -5.621  1.00  0.00     0.218 HD
ENDBRANCH  17  20
BRANCH  18  22
HETATM   22  O11         0      64.450 122.848  -6.879  1.00  0.00    -0.357 OA
HETATM   23  H11         0      63.998 123.576  -7.288  1.00  0.00     0.218 HD
ENDBRANCH  18  22
ENDBRANCH   4  14
BRANCH   8  24
HETATM   24  O17         0      68.794 129.769  -1.605  1.00  0.00    -0.359 OA
HETATM   25  H17         0      67.898 130.016  -1.800  1.00  0.00     0.218 HD
ENDBRANCH   8  24
TORSDOF 5
ENDMDL
MODEL 9
REMARK VINA RESULT:       0.0      3.578      6.589
REMARK  5 active torsions:
REMARK  status: ('A' for Active; 'I' for Inactive)
REMARK    1  A    between atoms: C4_4  and  C5_5 
REMARK    2  A    between atoms: C8_8  and  O9_9 
REMARK    3  A    between atoms: C10_11  and  O11_12 
REMARK    4  A    between atoms: C16_18  and  O17_19 
REMARK    5  A    between atoms: C19_22  and  O20_23 
ROOT
HETATM    1  O1          0      76.951 120.411  -7.882  1.00  0.00    -0.286 OA
HETATM    2  C2          0      76.407 120.456  -9.020  1.00  0.00     0.201 C 
HETATM    3  C3          0      75.159 121.015  -9.234  1.00  0.00     0.067 C 
HETATM    4  C4          0      74.539 120.961 -10.477  1.00  0.00     0.103 C 
HETATM    5  O13         0      75.174 120.376 -11.478  1.00  0.00    -0.307 OA
HETATM    6  C14         0      76.344 119.797 -11.320  1.00  0.00     0.107 C 
HETATM    7  C15         0      76.823 118.860 -12.223  1.00  0.00     0.049 C 
HETATM    8  C16         0      77.927 118.070 -11.926  1.00  0.00     0.093 C 
HETATM    9  C18         0      78.800 118.609 -10.989  1.00  0.00     0.048 C 
HETATM   10  C19         0      78.366 119.583 -10.100  1.00  0.00     0.096 C 
HETATM   11  C21         0      77.073 120.028 -10.159  1.00  0.00     0.084 C 
ENDROOT
BRANCH  10  12
HETATM   12  O20         0      79.076 119.794  -8.922  1.00  0.00    -0.359 OA
HETATM   13  H20         0      78.817 119.302  -8.152  1.00  0.00     0.218 HD
ENDBRANCH  10  12
BRANCH   4  14
HETATM   14  C5          0      73.076 121.001 -10.498  1.00  0.00     0.025 C 
HETATM   15  C6          0      72.323 120.436 -11.518  1.00  0.00     0.004 C 
HETATM   16  C7          0      71.136 119.801 -11.166  1.00  0.00     0.026 C 
HETATM   17  C8          0      70.645 119.840  -9.866  1.00  0.00     0.112 C 
HETATM   18  C10         0      71.098 120.911  -9.107  1.00  0.00     0.112 C 
HETATM   19  C12         0      72.328 121.473  -9.427  1.00  0.00     0.028 C 
BRANCH  17  20
HETATM   20  O9          0      69.939 118.772  -9.342  1.00  0.00    -0.357 OA
HETATM   21  H9          0      69.791 117.957  -9.808  1.00  0.00     0.218 HD
ENDBRANCH  17  20
BRANCH  18  22
HETATM   22  O11         0      70.497 121.105  -7.872  1.00  0.00    -0.357 OA
HETATM   23  H11         0      70.865 120.630  -7.135  1.00  0.00     0.218 HD
ENDBRANCH  18  22
ENDBRANCH   4  14
BRANCH   8  24
HETATM   24  O17         0      77.973 116.717 -12.281  1.00  0.00    -0.359 OA
HETATM   25  H17         0      77.301 116.320 -12.822  1.00  0.00     0.218 HD
ENDBRANCH   8  24
TORSDOF 5
ENDMDL
