MODEL 1
REMARK VINA RESULT:      -5.9      0.000      0.000
REMARK  5 active torsions:
REMARK  status: ('A' for Active; 'I' for Inactive)
REMARK    1  A    between atoms: C4_4  and  C5_5 
REMARK    2  A    between atoms: C8_8  and  O9_9 
REMARK    3  A    between atoms: C10_11  and  O11_12 
REMARK    4  A    between atoms: C16_18  and  O17_19 
REMARK    5  A    between atoms: C19_22  and  O20_23 
ROOT
HETATM    1  O1          0      54.449  15.991  43.957  1.00  0.00    -0.286 OA
HETATM    2  C2          0      55.266  16.815  43.460  1.00  0.00     0.201 C 
HETATM    3  C3          0      56.271  16.440  42.585  1.00  0.00     0.067 C 
HETATM    4  C4          0      57.220  17.350  42.133  1.00  0.00     0.103 C 
HETATM    5  O13         0      57.141  18.605  42.540  1.00  0.00    -0.307 OA
HETATM    6  C14         0      56.230  19.004  43.400  1.00  0.00     0.107 C 
HETATM    7  C15         0      56.375  20.178  44.126  1.00  0.00     0.049 C 
HETATM    8  C16         0      55.549  20.465  45.206  1.00  0.00     0.093 C 
HETATM    9  C18         0      54.309  19.838  45.179  1.00  0.00     0.048 C 
HETATM   10  C19         0      54.116  18.688  44.426  1.00  0.00     0.096 C 
HETATM   11  C21         0      55.150  18.177  43.690  1.00  0.00     0.084 C 
ENDROOT
BRANCH  10  12
HETATM   12  O20         0      53.055  17.842  44.735  1.00  0.00    -0.359 OA
HETATM   13  H20         0      53.081  16.955  44.399  1.00  0.00     0.218 HD
ENDBRANCH  10  12
BRANCH   4  14
HETATM   14  C5          0      58.527  16.817  41.744  1.00  0.00     0.025 C 
HETATM   15  C6          0      59.318  16.065  42.600  1.00  0.00     0.004 C 
HETATM   16  C7          0      60.023  14.997  42.056  1.00  0.00     0.026 C 
HETATM   17  C8          0      60.050  14.763  40.685  1.00  0.00     0.112 C 
HETATM   18  C10         0      59.784  15.878  39.902  1.00  0.00     0.112 C 
HETATM   19  C12         0      59.005  16.894  40.442  1.00  0.00     0.028 C 
BRANCH  17  20
HETATM   20  O9          0      60.125  13.475  40.187  1.00  0.00    -0.357 OA
HETATM   21  H9          0      59.708  12.725  40.597  1.00  0.00     0.218 HD
ENDBRANCH  17  20
BRANCH  18  22
HETATM   22  O11         0      59.982  15.747  38.535  1.00  0.00    -0.357 OA
HETATM   23  H11         0      59.327  15.258  38.050  1.00  0.00     0.218 HD
ENDBRANCH  18  22
ENDBRANCH   4  14
BRANCH   8  24
HETATM   24  O17         0      56.050  21.055  46.371  1.00  0.00    -0.359 OA
HETATM   25  H17         0      56.496  21.893  46.354  1.00  0.00     0.218 HD
ENDBRANCH   8  24
TORSDOF 5
ENDMDL
MODEL 2
REMARK VINA RESULT:      -5.8      2.955      7.909
REMARK  5 active torsions:
REMARK  status: ('A' for Active; 'I' for Inactive)
REMARK    1  A    between atoms: C4_4  and  C5_5 
REMARK    2  A    between atoms: C8_8  and  O9_9 
REMARK    3  A    between atoms: C10_11  and  O11_12 
REMARK    4  A    between atoms: C16_18  and  O17_19 
REMARK    5  A    between atoms: C19_22  and  O20_23 
ROOT
HETATM    1  O1          0      55.570  20.985  46.663  1.00  0.00    -0.286 OA
HETATM    2  C2          0      54.875  20.290  45.873  1.00  0.00     0.201 C 
HETATM    3  C3          0      53.548  19.979  46.115  1.00  0.00     0.067 C 
HETATM    4  C4          0      52.835  19.126  45.279  1.00  0.00     0.103 C 
HETATM    5  O13         0      53.443  18.622  44.220  1.00  0.00    -0.307 OA
HETATM    6  C14         0      54.712  18.855  43.964  1.00  0.00     0.107 C 
HETATM    7  C15         0      55.448  18.040  43.117  1.00  0.00     0.049 C 
HETATM    8  C16         0      56.833  18.134  43.050  1.00  0.00     0.093 C 
HETATM    9  C18         0      57.357  19.365  43.424  1.00  0.00     0.048 C 
HETATM   10  C19         0      56.627  20.226  44.232  1.00  0.00     0.096 C 
HETATM   11  C21         0      55.375  19.866  44.651  1.00  0.00     0.084 C 
ENDROOT
BRANCH  10  12
HETATM   12  O20         0      57.293  21.218  44.945  1.00  0.00    -0.359 OA
HETATM   13  H20         0      58.227  21.315  44.807  1.00  0.00     0.218 HD
ENDBRANCH  10  12
BRANCH   4  14
HETATM   14  C5          0      51.720  18.385  45.872  1.00  0.00     0.025 C 
HETATM   15  C6          0      51.281  18.598  47.170  1.00  0.00     0.004 C 
HETATM   16  C7          0      49.911  18.548  47.404  1.00  0.00     0.026 C 
HETATM   17  C8          0      49.015  18.166  46.411  1.00  0.00     0.112 C 
HETATM   18  C10         0      49.566  17.389  45.401  1.00  0.00     0.112 C 
HETATM   19  C12         0      50.923  17.521  45.131  1.00  0.00     0.028 C 
BRANCH  17  20
HETATM   20  O9          0      47.745  18.711  46.355  1.00  0.00    -0.357 OA
HETATM   21  H9          0      47.067  18.409  45.761  1.00  0.00     0.218 HD
ENDBRANCH  17  20
BRANCH  18  22
HETATM   22  O11         0      48.685  16.825  44.490  1.00  0.00    -0.357 OA
HETATM   23  H11         0      49.062  16.443  43.706  1.00  0.00     0.218 HD
ENDBRANCH  18  22
ENDBRANCH   4  14
BRANCH   8  24
HETATM   24  O17         0      57.637  16.993  42.946  1.00  0.00    -0.359 OA
HETATM   25  H17         0      57.924  16.660  42.104  1.00  0.00     0.218 HD
ENDBRANCH   8  24
TORSDOF 5
ENDMDL
MODEL 3
REMARK VINA RESULT:      -5.7      4.033      6.403
REMARK  5 active torsions:
REMARK  status: ('A' for Active; 'I' for Inactive)
REMARK    1  A    between atoms: C4_4  and  C5_5 
REMARK    2  A    between atoms: C8_8  and  O9_9 
REMARK    3  A    between atoms: C10_11  and  O11_12 
REMARK    4  A    between atoms: C16_18  and  O17_19 
REMARK    5  A    between atoms: C19_22  and  O20_23 
ROOT
HETATM    1  O1          0      51.160  20.859  46.708  1.00  0.00    -0.286 OA
HETATM    2  C2          0      51.727  19.759  46.466  1.00  0.00     0.201 C 
HETATM    3  C3          0      53.094  19.644  46.281  1.00  0.00     0.067 C 
HETATM    4  C4          0      53.681  18.437  45.915  1.00  0.00     0.103 C 
HETATM    5  O13         0      52.908  17.376  45.763  1.00  0.00    -0.307 OA
HETATM    6  C14         0      51.601  17.439  45.890  1.00  0.00     0.107 C 
HETATM    7  C15         0      50.767  16.468  45.355  1.00  0.00     0.049 C 
HETATM    8  C16         0      49.394  16.664  45.268  1.00  0.00     0.093 C 
HETATM    9  C18         0      48.872  17.573  46.181  1.00  0.00     0.048 C 
HETATM   10  C19         0      49.688  18.528  46.771  1.00  0.00     0.096 C 
HETATM   11  C21         0      51.021  18.565  46.464  1.00  0.00     0.084 C 
ENDROOT
BRANCH  10  12
HETATM   12  O20         0      49.113  19.671  47.318  1.00  0.00    -0.359 OA
HETATM   13  H20         0      49.015  19.712  48.262  1.00  0.00     0.218 HD
ENDBRANCH  10  12
BRANCH   4  14
HETATM   14  C5          0      54.942  18.504  45.173  1.00  0.00     0.025 C 
HETATM   15  C6          0      55.026  18.257  43.811  1.00  0.00     0.004 C 
HETATM   16  C7          0      55.899  19.045  43.066  1.00  0.00     0.026 C 
HETATM   17  C8          0      56.757  19.955  43.673  1.00  0.00     0.112 C 
HETATM   18  C10         0      57.048  19.681  45.002  1.00  0.00     0.112 C 
HETATM   19  C12         0      56.119  18.964  45.747  1.00  0.00     0.028 C 
BRANCH  17  20
HETATM   20  O9          0      57.100  21.137  43.039  1.00  0.00    -0.357 OA
HETATM   21  H9          0      56.490  21.849  42.886  1.00  0.00     0.218 HD
ENDBRANCH  17  20
BRANCH  18  22
HETATM   22  O11         0      58.042  20.444  45.599  1.00  0.00    -0.357 OA
HETATM   23  H11         0      57.853  20.800  46.459  1.00  0.00     0.218 HD
ENDBRANCH  18  22
ENDBRANCH   4  14
BRANCH   8  24
HETATM   24  O17         0      48.667  16.248  44.147  1.00  0.00    -0.359 OA
HETATM   25  H17         0      48.586  15.329  43.918  1.00  0.00     0.218 HD
ENDBRANCH   8  24
TORSDOF 5
ENDMDL
MODEL 4
REMARK VINA RESULT:      -5.6      2.786      5.200
REMARK  5 active torsions:
REMARK  status: ('A' for Active; 'I' for Inactive)
REMARK    1  A    between atoms: C4_4  and  C5_5 
REMARK    2  A    between atoms: C8_8  and  O9_9 
REMARK    3  A    between atoms: C10_11  and  O11_12 
REMARK    4  A    between atoms: C16_18  and  O17_19 
REMARK    5  A    between atoms: C19_22  and  O20_23 
ROOT
HETATM    1  O1          0      52.179  21.130  46.505  1.00  0.00    -0.286 OA
HETATM    2  C2          0      52.594  20.033  46.039  1.00  0.00     0.201 C 
HETATM    3  C3          0      53.851  19.884  45.478  1.00  0.00     0.067 C 
HETATM    4  C4          0      54.245  18.693  44.880  1.00  0.00     0.103 C 
HETATM    5  O13         0      53.399  17.678  44.869  1.00  0.00    -0.307 OA
HETATM    6  C14         0      52.181  17.778  45.354  1.00  0.00     0.107 C 
HETATM    7  C15         0      51.178  16.888  44.999  1.00  0.00     0.049 C 
HETATM    8  C16         0      49.846  17.141  45.306  1.00  0.00     0.093 C 
HETATM    9  C18         0      49.644  17.986  46.390  1.00  0.00     0.048 C 
HETATM   10  C19         0      50.644  18.857  46.801  1.00  0.00     0.096 C 
HETATM   11  C21         0      51.845  18.871  46.144  1.00  0.00     0.084 C 
ENDROOT
BRANCH  10  12
HETATM   12  O20         0      50.306  19.969  47.566  1.00  0.00    -0.359 OA
HETATM   13  H20         0      49.591  19.883  48.185  1.00  0.00     0.218 HD
ENDBRANCH  10  12
BRANCH   4  14
HETATM   14  C5          0      55.260  18.776  43.828  1.00  0.00     0.025 C 
HETATM   15  C6          0      56.151  19.834  43.725  1.00  0.00     0.004 C 
HETATM   16  C7          0      57.457  19.543  43.342  1.00  0.00     0.026 C 
HETATM   17  C8          0      57.832  18.264  42.945  1.00  0.00     0.112 C 
HETATM   18  C10         0      56.790  17.471  42.482  1.00  0.00     0.112 C 
HETATM   19  C12         0      55.506  17.731  42.947  1.00  0.00     0.028 C 
BRANCH  17  20
HETATM   20  O9          0      59.104  17.786  43.204  1.00  0.00    -0.357 OA
HETATM   21  H9          0      59.495  17.050  42.746  1.00  0.00     0.218 HD
ENDBRANCH  17  20
BRANCH  18  22
HETATM   22  O11         0      57.133  16.260  41.898  1.00  0.00    -0.357 OA
HETATM   23  H11         0      56.418  15.708  41.601  1.00  0.00     0.218 HD
ENDBRANCH  18  22
ENDBRANCH   4  14
BRANCH   8  24
HETATM   24  O17         0      48.820  16.849  44.400  1.00  0.00    -0.359 OA
HETATM   25  H17         0      48.570  15.954  44.201  1.00  0.00     0.218 HD
ENDBRANCH   8  24
TORSDOF 5
ENDMDL
MODEL 5
REMARK VINA RESULT:      -5.6      2.164      7.111
REMARK  5 active torsions:
REMARK  status: ('A' for Active; 'I' for Inactive)
REMARK    1  A    between atoms: C4_4  and  C5_5 
REMARK    2  A    between atoms: C8_8  and  O9_9 
REMARK    3  A    between atoms: C10_11  and  O11_12 
REMARK    4  A    between atoms: C16_18  and  O17_19 
REMARK    5  A    between atoms: C19_22  and  O20_23 
ROOT
HETATM    1  O1          0      58.368  19.351  45.566  1.00  0.00    -0.286 OA
HETATM    2  C2          0      57.470  19.105  44.714  1.00  0.00     0.201 C 
HETATM    3  C3          0      56.123  19.300  44.966  1.00  0.00     0.067 C 
HETATM    4  C4          0      55.148  18.923  44.049  1.00  0.00     0.103 C 
HETATM    5  O13         0      55.529  18.386  42.903  1.00  0.00    -0.307 OA
HETATM    6  C14         0      56.792  18.145  42.629  1.00  0.00     0.107 C 
HETATM    7  C15         0      57.167  17.243  41.644  1.00  0.00     0.049 C 
HETATM    8  C16         0      58.480  16.803  41.531  1.00  0.00     0.093 C 
HETATM    9  C18         0      59.436  17.665  42.055  1.00  0.00     0.048 C 
HETATM   10  C19         0      59.085  18.611  43.008  1.00  0.00     0.096 C 
HETATM   11  C21         0      57.785  18.707  43.424  1.00  0.00     0.084 C 
ENDROOT
BRANCH  10  12
HETATM   12  O20         0      60.073  19.151  43.826  1.00  0.00    -0.359 OA
HETATM   13  H20         0      59.814  19.485  44.676  1.00  0.00     0.218 HD
ENDBRANCH  10  12
BRANCH   4  14
HETATM   14  C5          0      53.823  18.593  44.577  1.00  0.00     0.025 C 
HETATM   15  C6          0      53.470  17.311  44.971  1.00  0.00     0.004 C 
HETATM   16  C7          0      52.665  17.182  46.099  1.00  0.00     0.026 C 
HETATM   17  C8          0      52.119  18.292  46.736  1.00  0.00     0.112 C 
HETATM   18  C10         0      51.999  19.419  45.934  1.00  0.00     0.112 C 
HETATM   19  C12         0      52.872  19.564  44.863  1.00  0.00     0.028 C 
BRANCH  17  20
HETATM   20  O9          0      51.924  18.298  48.106  1.00  0.00    -0.357 OA
HETATM   21  H9          0      51.139  18.631  48.525  1.00  0.00     0.218 HD
ENDBRANCH  17  20
BRANCH  18  22
HETATM   22  O11         0      51.291  20.491  46.459  1.00  0.00    -0.357 OA
HETATM   23  H11         0      50.930  20.382  47.332  1.00  0.00     0.218 HD
ENDBRANCH  18  22
ENDBRANCH   4  14
BRANCH   8  24
HETATM   24  O17         0      58.779  15.469  41.231  1.00  0.00    -0.359 OA
HETATM   25  H17         0      58.607  15.100  40.372  1.00  0.00     0.218 HD
ENDBRANCH   8  24
TORSDOF 5
ENDMDL
MODEL 6
REMARK VINA RESULT:      -5.4      4.302      6.693
REMARK  5 active torsions:
REMARK  status: ('A' for Active; 'I' for Inactive)
REMARK    1  A    between atoms: C4_4  and  C5_5 
REMARK    2  A    between atoms: C8_8  and  O9_9 
REMARK    3  A    between atoms: C10_11  and  O11_12 
REMARK    4  A    between atoms: C16_18  and  O17_19 
REMARK    5  A    between atoms: C19_22  and  O20_23 
ROOT
HETATM    1  O1          0      50.239  17.482  47.175  1.00  0.00    -0.286 OA
HETATM    2  C2          0      50.882  18.502  46.803  1.00  0.00     0.201 C 
HETATM    3  C3          0      52.001  18.428  45.992  1.00  0.00     0.067 C 
HETATM    4  C4          0      52.751  19.557  45.681  1.00  0.00     0.103 C 
HETATM    5  O13         0      52.365  20.727  46.160  1.00  0.00    -0.307 OA
HETATM    6  C14         0      51.332  20.847  46.965  1.00  0.00     0.107 C 
HETATM    7  C15         0      51.162  21.960  47.775  1.00  0.00     0.049 C 
HETATM    8  C16         0      50.221  21.971  48.798  1.00  0.00     0.093 C 
HETATM    9  C18         0      49.158  21.092  48.628  1.00  0.00     0.048 C 
HETATM   10  C19         0      49.279  19.993  47.788  1.00  0.00     0.096 C 
HETATM   11  C21         0      50.448  19.783  47.110  1.00  0.00     0.084 C 
ENDROOT
BRANCH  10  12
HETATM   12  O20         0      48.416  18.914  47.952  1.00  0.00    -0.359 OA
HETATM   13  H20         0      47.765  18.759  47.279  1.00  0.00     0.218 HD
ENDBRANCH  10  12
BRANCH   4  14
HETATM   14  C5          0      54.167  19.356  45.368  1.00  0.00     0.025 C 
HETATM   15  C6          0      54.598  18.586  44.298  1.00  0.00     0.004 C 
HETATM   16  C7          0      55.708  19.033  43.589  1.00  0.00     0.026 C 
HETATM   17  C8          0      56.447  20.134  44.008  1.00  0.00     0.112 C 
HETATM   18  C10         0      56.337  20.424  45.361  1.00  0.00     0.112 C 
HETATM   19  C12         0      55.179  20.041  46.027  1.00  0.00     0.028 C 
BRANCH  17  20
HETATM   20  O9          0      57.055  20.971  43.089  1.00  0.00    -0.357 OA
HETATM   21  H9          0      57.099  20.790  42.158  1.00  0.00     0.218 HD
ENDBRANCH  17  20
BRANCH  18  22
HETATM   22  O11         0      57.195  21.390  45.868  1.00  0.00    -0.357 OA
HETATM   23  H11         0      57.532  21.249  46.745  1.00  0.00     0.218 HD
ENDBRANCH  18  22
ENDBRANCH   4  14
BRANCH   8  24
HETATM   24  O17         0      50.499  22.559  50.037  1.00  0.00    -0.359 OA
HETATM   25  H17         0      50.757  22.039  50.789  1.00  0.00     0.218 HD
ENDBRANCH   8  24
TORSDOF 5
ENDMDL
MODEL 7
REMARK VINA RESULT:      -5.3      2.839      5.328
REMARK  5 active torsions:
REMARK  status: ('A' for Active; 'I' for Inactive)
REMARK    1  A    between atoms: C4_4  and  C5_5 
REMARK    2  A    between atoms: C8_8  and  O9_9 
REMARK    3  A    between atoms: C10_11  and  O11_12 
REMARK    4  A    between atoms: C16_18  and  O17_19 
REMARK    5  A    between atoms: C19_22  and  O20_23 
ROOT
HETATM    1  O1          0      51.035  17.994  45.294  1.00  0.00    -0.286 OA
HETATM    2  C2          0      52.117  17.398  45.039  1.00  0.00     0.201 C 
HETATM    3  C3          0      53.294  18.068  44.755  1.00  0.00     0.067 C 
HETATM    4  C4          0      54.447  17.388  44.377  1.00  0.00     0.103 C 
HETATM    5  O13         0      54.412  16.069  44.309  1.00  0.00    -0.307 OA
HETATM    6  C14         0      53.311  15.386  44.533  1.00  0.00     0.107 C 
HETATM    7  C15         0      53.156  14.082  44.086  1.00  0.00     0.049 C 
HETATM    8  C16         0      51.914  13.458  44.097  1.00  0.00     0.093 C 
HETATM    9  C18         0      51.011  13.965  45.023  1.00  0.00     0.048 C 
HETATM   10  C19         0      51.162  15.249  45.526  1.00  0.00     0.096 C 
HETATM   11  C21         0      52.219  16.017  45.120  1.00  0.00     0.084 C 
ENDROOT
BRANCH  10  12
HETATM   12  O20         0      50.064  15.895  46.086  1.00  0.00    -0.359 OA
HETATM   13  H20         0      49.228  15.444  46.071  1.00  0.00     0.218 HD
ENDBRANCH  10  12
BRANCH   4  14
HETATM   14  C5          0      55.408  18.111  43.542  1.00  0.00     0.025 C 
HETATM   15  C6          0      55.724  19.447  43.744  1.00  0.00     0.004 C 
HETATM   16  C7          0      57.049  19.830  43.560  1.00  0.00     0.026 C 
HETATM   17  C8          0      58.001  18.948  43.062  1.00  0.00     0.112 C 
HETATM   18  C10         0      57.484  17.896  42.318  1.00  0.00     0.112 C 
HETATM   19  C12         0      56.185  17.477  42.581  1.00  0.00     0.028 C 
BRANCH  17  20
HETATM   20  O9          0      59.320  19.023  43.472  1.00  0.00    -0.357 OA
HETATM   21  H9          0      60.058  19.052  42.874  1.00  0.00     0.218 HD
ENDBRANCH  17  20
BRANCH  18  22
HETATM   22  O11         0      58.394  17.096  41.642  1.00  0.00    -0.357 OA
HETATM   23  H11         0      58.484  17.242  40.707  1.00  0.00     0.218 HD
ENDBRANCH  18  22
ENDBRANCH   4  14
BRANCH   8  24
HETATM   24  O17         0      51.504  12.632  43.044  1.00  0.00    -0.359 OA
HETATM   25  H17         0      51.068  11.803  43.201  1.00  0.00     0.218 HD
ENDBRANCH   8  24
TORSDOF 5
ENDMDL
MODEL 8
REMARK VINA RESULT:      -5.3      1.355      6.714
REMARK  5 active torsions:
REMARK  status: ('A' for Active; 'I' for Inactive)
REMARK    1  A    between atoms: C4_4  and  C5_5 
REMARK    2  A    between atoms: C8_8  and  O9_9 
REMARK    3  A    between atoms: C10_11  and  O11_12 
REMARK    4  A    between atoms: C16_18  and  O17_19 
REMARK    5  A    between atoms: C19_22  and  O20_23 
ROOT
HETATM    1  O1          0      56.434  14.253  42.801  1.00  0.00    -0.286 OA
HETATM    2  C2          0      56.863  15.436  42.894  1.00  0.00     0.201 C 
HETATM    3  C3          0      56.244  16.399  43.673  1.00  0.00     0.067 C 
HETATM    4  C4          0      56.677  17.720  43.677  1.00  0.00     0.103 C 
HETATM    5  O13         0      57.717  18.050  42.932  1.00  0.00    -0.307 OA
HETATM    6  C14         0      58.317  17.183  42.146  1.00  0.00     0.107 C 
HETATM    7  C15         0      59.120  17.588  41.089  1.00  0.00     0.049 C 
HETATM    8  C16         0      59.540  16.689  40.116  1.00  0.00     0.093 C 
HETATM    9  C18         0      59.580  15.361  40.523  1.00  0.00     0.048 C 
HETATM   10  C19         0      58.825  14.931  41.606  1.00  0.00     0.096 C 
HETATM   11  C21         0      58.048  15.826  42.289  1.00  0.00     0.084 C 
ENDROOT
BRANCH  10  12
HETATM   12  O20         0      58.528  13.578  41.734  1.00  0.00    -0.359 OA
HETATM   13  H20         0      58.729  13.154  42.559  1.00  0.00     0.218 HD
ENDBRANCH  10  12
BRANCH   4  14
HETATM   14  C5          0      55.685  18.748  43.998  1.00  0.00     0.025 C 
HETATM   15  C6          0      54.322  18.556  43.830  1.00  0.00     0.004 C 
HETATM   16  C7          0      53.472  19.093  44.791  1.00  0.00     0.026 C 
HETATM   17  C8          0      53.948  19.907  45.813  1.00  0.00     0.112 C 
HETATM   18  C10         0      55.154  20.537  45.538  1.00  0.00     0.112 C 
HETATM   19  C12         0      56.023  19.935  44.636  1.00  0.00     0.028 C 
BRANCH  17  20
HETATM   20  O9          0      53.354  19.897  47.063  1.00  0.00    -0.357 OA
HETATM   21  H9          0      52.434  19.708  47.209  1.00  0.00     0.218 HD
ENDBRANCH  17  20
BRANCH  18  22
HETATM   22  O11         0      55.579  21.503  46.439  1.00  0.00    -0.357 OA
HETATM   23  H11         0      54.929  21.843  47.043  1.00  0.00     0.218 HD
ENDBRANCH  18  22
ENDBRANCH   4  14
BRANCH   8  24
HETATM   24  O17         0      59.587  17.047  38.764  1.00  0.00    -0.359 OA
HETATM   25  H17         0      59.350  17.918  38.470  1.00  0.00     0.218 HD
ENDBRANCH   8  24
TORSDOF 5
ENDMDL
MODEL 9
REMARK VINA RESULT:      -5.3      1.925      7.021
REMARK  5 active torsions:
REMARK  status: ('A' for Active; 'I' for Inactive)
REMARK    1  A    between atoms: C4_4  and  C5_5 
REMARK    2  A    between atoms: C8_8  and  O9_9 
REMARK    3  A    between atoms: C10_11  and  O11_12 
REMARK    4  A    between atoms: C16_18  and  O17_19 
REMARK    5  A    between atoms: C19_22  and  O20_23 
ROOT
HETATM    1  O1          0      58.458  19.246  42.967  1.00  0.00    -0.286 OA
HETATM    2  C2          0      57.535  18.387  42.912  1.00  0.00     0.201 C 
HETATM    3  C3          0      56.247  18.641  43.351  1.00  0.00     0.067 C 
HETATM    4  C4          0      55.276  17.646  43.375  1.00  0.00     0.103 C 
HETATM    5  O13         0      55.595  16.437  42.948  1.00  0.00    -0.307 OA
HETATM    6  C14         0      56.813  16.133  42.556  1.00  0.00     0.107 C 
HETATM    7  C15         0      57.254  14.819  42.492  1.00  0.00     0.049 C 
HETATM    8  C16         0      58.601  14.517  42.328  1.00  0.00     0.093 C 
HETATM    9  C18         0      59.355  15.511  41.716  1.00  0.00     0.048 C 
HETATM   10  C19         0      58.920  16.830  41.720  1.00  0.00     0.096 C 
HETATM   11  C21         0      57.731  17.151  42.316  1.00  0.00     0.084 C 
ENDROOT
BRANCH  10  12
HETATM   12  O20         0      59.842  17.851  41.512  1.00  0.00    -0.359 OA
HETATM   13  H20         0      60.416  18.085  42.231  1.00  0.00     0.218 HD
ENDBRANCH  10  12
BRANCH   4  14
HETATM   14  C5          0      54.199  17.785  44.358  1.00  0.00     0.025 C 
HETATM   15  C6          0      53.657  19.012  44.710  1.00  0.00     0.004 C 
HETATM   16  C7          0      52.285  19.070  44.932  1.00  0.00     0.026 C 
HETATM   17  C8          0      51.497  17.924  44.936  1.00  0.00     0.112 C 
HETATM   18  C10         0      52.185  16.749  45.208  1.00  0.00     0.112 C 
HETATM   19  C12         0      53.538  16.689  44.897  1.00  0.00     0.028 C 
BRANCH  17  20
HETATM   20  O9          0      50.187  17.963  44.492  1.00  0.00    -0.357 OA
HETATM   21  H9          0      49.638  17.193  44.401  1.00  0.00     0.218 HD
ENDBRANCH  17  20
BRANCH  18  22
HETATM   22  O11         0      51.423  15.607  45.410  1.00  0.00    -0.357 OA
HETATM   23  H11         0      51.893  14.805  45.607  1.00  0.00     0.218 HD
ENDBRANCH  18  22
ENDBRANCH   4  14
BRANCH   8  24
HETATM   24  O17         0      59.200  13.459  43.020  1.00  0.00    -0.359 OA
HETATM   25  H17         0      60.043  13.107  42.760  1.00  0.00     0.218 HD
ENDBRANCH   8  24
TORSDOF 5
ENDMDL
