MODEL 1
REMARK VINA RESULT:      -0.9      0.000      0.000
REMARK  5 active torsions:
REMARK  status: ('A' for Active; 'I' for Inactive)
REMARK    1  A    between atoms: C4_4  and  C5_5 
REMARK    2  A    between atoms: C8_8  and  O9_9 
REMARK    3  A    between atoms: C10_11  and  O11_12 
REMARK    4  A    between atoms: C16_18  and  O17_19 
REMARK    5  A    between atoms: C19_22  and  O20_23 
ROOT
HETATM    1  O1          0      45.259  33.750 -24.470  1.00  0.00    -0.286 OA
HETATM    2  C2          0      44.697  34.730 -25.032  1.00  0.00     0.201 C 
HETATM    3  C3          0      43.839  35.586 -24.365  1.00  0.00     0.067 C 
HETATM    4  C4          0      43.153  36.596 -25.031  1.00  0.00     0.103 C 
HETATM    5  O13         0      43.349  36.746 -26.329  1.00  0.00    -0.307 OA
HETATM    6  C14         0      44.124  35.937 -27.018  1.00  0.00     0.107 C 
HETATM    7  C15         0      44.027  35.830 -28.397  1.00  0.00     0.049 C 
HETATM    8  C16         0      44.659  34.803 -29.088  1.00  0.00     0.093 C 
HETATM    9  C18         0      45.764  34.257 -28.446  1.00  0.00     0.048 C 
HETATM   10  C19         0      45.917  34.386 -27.072  1.00  0.00     0.096 C 
HETATM   11  C21         0      44.980  35.071 -26.346  1.00  0.00     0.084 C 
ENDROOT
BRANCH  10  12
HETATM   12  O20         0      46.748  33.501 -26.393  1.00  0.00    -0.359 OA
HETATM   13  H20         0      46.745  33.525 -25.444  1.00  0.00     0.218 HD
ENDBRANCH  10  12
BRANCH   4  14
HETATM   14  C5          0      41.882  37.036 -24.454  1.00  0.00     0.025 C 
HETATM   15  C6          0      41.431  36.608 -23.214  1.00  0.00     0.004 C 
HETATM   16  C7          0      40.776  37.537 -22.411  1.00  0.00     0.026 C 
HETATM   17  C8          0      40.460  38.809 -22.876  1.00  0.00     0.112 C 
HETATM   18  C10         0      40.372  38.916 -24.257  1.00  0.00     0.112 C 
HETATM   19  C12         0      41.104  38.028 -25.037  1.00  0.00     0.028 C 
BRANCH  17  20
HETATM   20  O9          0      40.454  39.896 -22.019  1.00  0.00    -0.357 OA
HETATM   21  H9          0      40.347  39.825 -21.078  1.00  0.00     0.218 HD
ENDBRANCH  17  20
BRANCH  18  22
HETATM   22  O11         0      39.877  40.109 -24.765  1.00  0.00    -0.357 OA
HETATM   23  H11         0      39.014  40.377 -24.470  1.00  0.00     0.218 HD
ENDBRANCH  18  22
ENDBRANCH   4  14
BRANCH   8  24
HETATM   24  O17         0      44.037  34.155 -30.161  1.00  0.00    -0.359 OA
HETATM   25  H17         0      44.521  33.897 -30.936  1.00  0.00     0.218 HD
ENDBRANCH   8  24
TORSDOF 5
ENDMDL
MODEL 2
REMARK VINA RESULT:      -0.8      2.764      6.333
REMARK  5 active torsions:
REMARK  status: ('A' for Active; 'I' for Inactive)
REMARK    1  A    between atoms: C4_4  and  C5_5 
REMARK    2  A    between atoms: C8_8  and  O9_9 
REMARK    3  A    between atoms: C10_11  and  O11_12 
REMARK    4  A    between atoms: C16_18  and  O17_19 
REMARK    5  A    between atoms: C19_22  and  O20_23 
ROOT
HETATM    1  O1          0      43.872  36.291 -23.440  1.00  0.00    -0.286 OA
HETATM    2  C2          0      42.894  36.790 -24.061  1.00  0.00     0.201 C 
HETATM    3  C3          0      42.903  37.001 -25.429  1.00  0.00     0.067 C 
HETATM    4  C4          0      41.853  37.646 -26.073  1.00  0.00     0.103 C 
HETATM    5  O13         0      40.818  38.047 -25.356  1.00  0.00    -0.307 OA
HETATM    6  C14         0      40.776  37.905 -24.049  1.00  0.00     0.107 C 
HETATM    7  C15         0      39.917  38.655 -23.260  1.00  0.00     0.049 C 
HETATM    8  C16         0      40.052  38.690 -21.877  1.00  0.00     0.093 C 
HETATM    9  C18         0      40.686  37.585 -21.322  1.00  0.00     0.048 C 
HETATM   10  C19         0      41.516  36.785 -22.095  1.00  0.00     0.096 C 
HETATM   11  C21         0      41.699  37.077 -23.419  1.00  0.00     0.084 C 
ENDROOT
BRANCH  10  12
HETATM   12  O20         0      42.461  35.979 -21.468  1.00  0.00    -0.359 OA
HETATM   13  H20         0      43.219  35.707 -21.972  1.00  0.00     0.218 HD
ENDBRANCH  10  12
BRANCH   4  14
HETATM   14  C5          0      42.164  38.353 -27.317  1.00  0.00     0.025 C 
HETATM   15  C6          0      43.306  38.098 -28.062  1.00  0.00     0.004 C 
HETATM   16  C7          0      43.191  38.119 -29.448  1.00  0.00     0.026 C 
HETATM   17  C8          0      42.014  38.513 -30.076  1.00  0.00     0.112 C 
HETATM   18  C10         0      41.191  39.326 -29.308  1.00  0.00     0.112 C 
HETATM   19  C12         0      41.267  39.223 -27.924  1.00  0.00     0.028 C 
BRANCH  17  20
HETATM   20  O9          0      41.629  37.949 -31.279  1.00  0.00    -0.357 OA
HETATM   21  H9          0      40.966  38.321 -31.849  1.00  0.00     0.218 HD
ENDBRANCH  17  20
BRANCH  18  22
HETATM   22  O11         0      40.101  39.899 -29.946  1.00  0.00    -0.357 OA
HETATM   23  H11         0      40.270  40.668 -30.478  1.00  0.00     0.218 HD
ENDBRANCH  18  22
ENDBRANCH   4  14
BRANCH   8  24
HETATM   24  O17         0      39.876  39.876 -21.157  1.00  0.00    -0.359 OA
HETATM   25  H17         0      40.292  40.015 -20.314  1.00  0.00     0.218 HD
ENDBRANCH   8  24
TORSDOF 5
ENDMDL
MODEL 3
REMARK VINA RESULT:      -0.8      4.259      5.536
REMARK  5 active torsions:
REMARK  status: ('A' for Active; 'I' for Inactive)
REMARK    1  A    between atoms: C4_4  and  C5_5 
REMARK    2  A    between atoms: C8_8  and  O9_9 
REMARK    3  A    between atoms: C10_11  and  O11_12 
REMARK    4  A    between atoms: C16_18  and  O17_19 
REMARK    5  A    between atoms: C19_22  and  O20_23 
ROOT
HETATM    1  O1          0      44.275  38.559 -29.633  1.00  0.00    -0.286 OA
HETATM    2  C2          0      43.157  39.090 -29.388  1.00  0.00     0.201 C 
HETATM    3  C3          0      42.613  39.140 -28.115  1.00  0.00     0.067 C 
HETATM    4  C4          0      41.335  39.639 -27.889  1.00  0.00     0.103 C 
HETATM    5  O13         0      40.639  40.092 -28.916  1.00  0.00    -0.307 OA
HETATM    6  C14         0      41.093  40.034 -30.149  1.00  0.00     0.107 C 
HETATM    7  C15         0      40.247  40.125 -31.245  1.00  0.00     0.049 C 
HETATM    8  C16         0      40.688  39.810 -32.525  1.00  0.00     0.093 C 
HETATM    9  C18         0      42.059  39.929 -32.719  1.00  0.00     0.048 C 
HETATM   10  C19         0      42.931  39.890 -31.640  1.00  0.00     0.096 C 
HETATM   11  C21         0      42.436  39.749 -30.372  1.00  0.00     0.084 C 
ENDROOT
BRANCH  10  12
HETATM   12  O20         0      44.268  39.573 -31.857  1.00  0.00    -0.359 OA
HETATM   13  H20         0      44.908  40.271 -31.786  1.00  0.00     0.218 HD
ENDBRANCH  10  12
BRANCH   4  14
HETATM   14  C5          0      40.616  39.131 -26.719  1.00  0.00     0.025 C 
HETATM   15  C6          0      40.154  37.825 -26.629  1.00  0.00     0.004 C 
HETATM   16  C7          0      40.242  37.195 -25.392  1.00  0.00     0.026 C 
HETATM   17  C8          0      40.649  37.879 -24.252  1.00  0.00     0.112 C 
HETATM   18  C10         0      40.472  39.255 -24.307  1.00  0.00     0.112 C 
HETATM   19  C12         0      40.473  39.871 -25.553  1.00  0.00     0.028 C 
BRANCH  17  20
HETATM   20  O9          0      41.362  37.235 -23.256  1.00  0.00    -0.357 OA
HETATM   21  H9          0      42.154  37.584 -22.864  1.00  0.00     0.218 HD
ENDBRANCH  17  20
BRANCH  18  22
HETATM   22  O11         0      40.684  39.963 -23.133  1.00  0.00    -0.357 OA
HETATM   23  H11         0      41.305  39.596 -22.515  1.00  0.00     0.218 HD
ENDBRANCH  18  22
ENDBRANCH   4  14
BRANCH   8  24
HETATM   24  O17         0      39.875  39.112 -33.424  1.00  0.00    -0.359 OA
HETATM   25  H17         0      39.017  39.433 -33.675  1.00  0.00     0.218 HD
ENDBRANCH   8  24
TORSDOF 5
ENDMDL
MODEL 4
REMARK VINA RESULT:      -0.7      3.507      4.117
REMARK  5 active torsions:
REMARK  status: ('A' for Active; 'I' for Inactive)
REMARK    1  A    between atoms: C4_4  and  C5_5 
REMARK    2  A    between atoms: C8_8  and  O9_9 
REMARK    3  A    between atoms: C10_11  and  O11_12 
REMARK    4  A    between atoms: C16_18  and  O17_19 
REMARK    5  A    between atoms: C19_22  and  O20_23 
ROOT
HETATM    1  O1          0      42.888  38.887 -28.669  1.00  0.00    -0.286 OA
HETATM    2  C2          0      41.903  38.221 -28.248  1.00  0.00     0.201 C 
HETATM    3  C3          0      41.340  38.421 -26.999  1.00  0.00     0.067 C 
HETATM    4  C4          0      40.322  37.605 -26.519  1.00  0.00     0.103 C 
HETATM    5  O13         0      39.875  36.629 -27.290  1.00  0.00    -0.307 OA
HETATM    6  C14         0      40.400  36.371 -28.468  1.00  0.00     0.107 C 
HETATM    7  C15         0      40.227  35.145 -29.093  1.00  0.00     0.049 C 
HETATM    8  C16         0      40.983  34.788 -30.203  1.00  0.00     0.093 C 
HETATM    9  C18         0      41.486  35.854 -30.938  1.00  0.00     0.048 C 
HETATM   10  C19         0      41.629  37.107 -30.357  1.00  0.00     0.096 C 
HETATM   11  C21         0      41.255  37.298 -29.055  1.00  0.00     0.084 C 
ENDROOT
BRANCH  10  12
HETATM   12  O20         0      42.508  38.024 -30.924  1.00  0.00    -0.359 OA
HETATM   13  H20         0      42.480  38.920 -30.612  1.00  0.00     0.218 HD
ENDBRANCH  10  12
BRANCH   4  14
HETATM   14  C5          0      40.203  37.467 -25.067  1.00  0.00     0.025 C 
HETATM   15  C6          0      40.541  36.304 -24.391  1.00  0.00     0.004 C 
HETATM   16  C7          0      41.165  36.434 -23.155  1.00  0.00     0.026 C 
HETATM   17  C8          0      41.327  37.675 -22.547  1.00  0.00     0.112 C 
HETATM   18  C10         0      40.430  38.648 -22.967  1.00  0.00     0.112 C 
HETATM   19  C12         0      39.886  38.538 -24.241  1.00  0.00     0.028 C 
BRANCH  17  20
HETATM   20  O9          0      42.431  37.938 -21.757  1.00  0.00    -0.357 OA
HETATM   21  H9          0      42.381  38.333 -20.894  1.00  0.00     0.218 HD
ENDBRANCH  17  20
BRANCH  18  22
HETATM   22  O11         0      40.423  39.843 -22.262  1.00  0.00    -0.357 OA
HETATM   23  H11         0      40.523  40.641 -22.767  1.00  0.00     0.218 HD
ENDBRANCH  18  22
ENDBRANCH   4  14
BRANCH   8  24
HETATM   24  O17         0      41.473  33.487 -30.363  1.00  0.00    -0.359 OA
HETATM   25  H17         0      41.231  32.951 -31.109  1.00  0.00     0.218 HD
ENDBRANCH   8  24
TORSDOF 5
ENDMDL
MODEL 5
REMARK VINA RESULT:      -0.7      3.191      6.871
REMARK  5 active torsions:
REMARK  status: ('A' for Active; 'I' for Inactive)
REMARK    1  A    between atoms: C4_4  and  C5_5 
REMARK    2  A    between atoms: C8_8  and  O9_9 
REMARK    3  A    between atoms: C10_11  and  O11_12 
REMARK    4  A    between atoms: C16_18  and  O17_19 
REMARK    5  A    between atoms: C19_22  and  O20_23 
ROOT
HETATM    1  O1          0      42.036  35.134 -26.278  1.00  0.00    -0.286 OA
HETATM    2  C2          0      41.442  36.180 -26.659  1.00  0.00     0.201 C 
HETATM    3  C3          0      41.525  36.661 -27.955  1.00  0.00     0.067 C 
HETATM    4  C4          0      40.945  37.869 -28.322  1.00  0.00     0.103 C 
HETATM    5  O13         0      40.283  38.559 -27.410  1.00  0.00    -0.307 OA
HETATM    6  C14         0      40.205  38.166 -26.157  1.00  0.00     0.107 C 
HETATM    7  C15         0      39.876  39.045 -25.135  1.00  0.00     0.049 C 
HETATM    8  C16         0      40.042  38.694 -23.800  1.00  0.00     0.093 C 
HETATM    9  C18         0      40.027  37.328 -23.546  1.00  0.00     0.048 C 
HETATM   10  C19         0      40.306  36.419 -24.557  1.00  0.00     0.096 C 
HETATM   11  C21         0      40.582  36.871 -25.819  1.00  0.00     0.084 C 
ENDROOT
BRANCH  10  12
HETATM   12  O20         0      40.713  35.132 -24.222  1.00  0.00    -0.359 OA
HETATM   13  H20         0      40.234  34.402 -24.594  1.00  0.00     0.218 HD
ENDBRANCH  10  12
BRANCH   4  14
HETATM   14  C5          0      41.547  38.586 -29.448  1.00  0.00     0.025 C 
HETATM   15  C6          0      42.474  39.604 -29.282  1.00  0.00     0.004 C 
HETATM   16  C7          0      43.526  39.672 -30.189  1.00  0.00     0.026 C 
HETATM   17  C8          0      43.583  38.842 -31.303  1.00  0.00     0.112 C 
HETATM   18  C10         0      42.356  38.338 -31.714  1.00  0.00     0.112 C 
HETATM   19  C12         0      41.348  38.201 -30.767  1.00  0.00     0.028 C 
BRANCH  17  20
HETATM   20  O9          0      44.798  38.406 -31.801  1.00  0.00    -0.357 OA
HETATM   21  H9          0      45.446  38.982 -32.191  1.00  0.00     0.218 HD
ENDBRANCH  17  20
BRANCH  18  22
HETATM   22  O11         0      42.329  37.660 -32.925  1.00  0.00    -0.357 OA
HETATM   23  H11         0      41.522  37.210 -33.147  1.00  0.00     0.218 HD
ENDBRANCH  18  22
ENDBRANCH   4  14
BRANCH   8  24
HETATM   24  O17         0      40.521  39.612 -22.859  1.00  0.00    -0.359 OA
HETATM   25  H17         0      41.408  39.950 -22.899  1.00  0.00     0.218 HD
ENDBRANCH   8  24
TORSDOF 5
ENDMDL
MODEL 6
REMARK VINA RESULT:      -0.7      2.605      3.097
REMARK  5 active torsions:
REMARK  status: ('A' for Active; 'I' for Inactive)
REMARK    1  A    between atoms: C4_4  and  C5_5 
REMARK    2  A    between atoms: C8_8  and  O9_9 
REMARK    3  A    between atoms: C10_11  and  O11_12 
REMARK    4  A    between atoms: C16_18  and  O17_19 
REMARK    5  A    between atoms: C19_22  and  O20_23 
ROOT
HETATM    1  O1          0      45.518  34.556 -22.480  1.00  0.00    -0.286 OA
HETATM    2  C2          0      44.911  35.277 -23.319  1.00  0.00     0.201 C 
HETATM    3  C3          0      44.830  36.654 -23.206  1.00  0.00     0.067 C 
HETATM    4  C4          0      44.069  37.414 -24.087  1.00  0.00     0.103 C 
HETATM    5  O13         0      43.427  36.799 -25.065  1.00  0.00    -0.307 OA
HETATM    6  C14         0      43.440  35.491 -25.195  1.00  0.00     0.107 C 
HETATM    7  C15         0      42.480  34.821 -25.939  1.00  0.00     0.049 C 
HETATM    8  C16         0      42.344  33.439 -25.867  1.00  0.00     0.093 C 
HETATM    9  C18         0      43.490  32.757 -25.474  1.00  0.00     0.048 C 
HETATM   10  C19         0      44.492  33.409 -24.768  1.00  0.00     0.096 C 
HETATM   11  C21         0      44.359  34.738 -24.471  1.00  0.00     0.084 C 
ENDROOT
BRANCH  10  12
HETATM   12  O20         0      45.393  32.660 -24.018  1.00  0.00    -0.359 OA
HETATM   13  H20         0      45.944  33.119 -23.396  1.00  0.00     0.218 HD
ENDBRANCH  10  12
BRANCH   4  14
HETATM   14  C5          0      43.545  38.689 -23.593  1.00  0.00     0.025 C 
HETATM   15  C6          0      42.648  39.463 -24.313  1.00  0.00     0.004 C 
HETATM   16  C7          0      41.641  40.111 -23.604  1.00  0.00     0.026 C 
HETATM   17  C8          0      41.605  40.100 -22.214  1.00  0.00     0.112 C 
HETATM   18  C10         0      42.831  39.868 -21.604  1.00  0.00     0.112 C 
HETATM   19  C12         0      43.789  39.144 -22.303  1.00  0.00     0.028 C 
BRANCH  17  20
HETATM   20  O9          0      40.399  40.110 -21.536  1.00  0.00    -0.357 OA
HETATM   21  H9          0      39.737  40.782 -21.647  1.00  0.00     0.218 HD
ENDBRANCH  17  20
BRANCH  18  22
HETATM   22  O11         0      42.889  40.033 -20.228  1.00  0.00    -0.357 OA
HETATM   23  H11         0      42.157  40.478 -19.817  1.00  0.00     0.218 HD
ENDBRANCH  18  22
ENDBRANCH   4  14
BRANCH   8  24
HETATM   24  O17         0      41.085  32.830 -25.857  1.00  0.00    -0.359 OA
HETATM   25  H17         0      40.334  33.228 -26.281  1.00  0.00     0.218 HD
ENDBRANCH   8  24
TORSDOF 5
ENDMDL
MODEL 7
REMARK VINA RESULT:      -0.7      2.673      3.747
REMARK  5 active torsions:
REMARK  status: ('A' for Active; 'I' for Inactive)
REMARK    1  A    between atoms: C4_4  and  C5_5 
REMARK    2  A    between atoms: C8_8  and  O9_9 
REMARK    3  A    between atoms: C10_11  and  O11_12 
REMARK    4  A    between atoms: C16_18  and  O17_19 
REMARK    5  A    between atoms: C19_22  and  O20_23 
ROOT
HETATM    1  O1          0      47.312  36.670 -25.606  1.00  0.00    -0.286 OA
HETATM    2  C2          0      46.121  36.602 -25.194  1.00  0.00     0.201 C 
HETATM    3  C3          0      45.279  37.700 -25.148  1.00  0.00     0.067 C 
HETATM    4  C4          0      44.006  37.619 -24.594  1.00  0.00     0.103 C 
HETATM    5  O13         0      43.593  36.456 -24.121  1.00  0.00    -0.307 OA
HETATM    6  C14         0      44.366  35.393 -24.106  1.00  0.00     0.107 C 
HETATM    7  C15         0      44.107  34.312 -23.275  1.00  0.00     0.049 C 
HETATM    8  C16         0      45.051  33.313 -23.075  1.00  0.00     0.093 C 
HETATM    9  C18         0      45.979  33.168 -24.099  1.00  0.00     0.048 C 
HETATM   10  C19         0      46.229  34.213 -24.978  1.00  0.00     0.096 C 
HETATM   11  C21         0      45.544  35.391 -24.844  1.00  0.00     0.084 C 
ENDROOT
BRANCH  10  12
HETATM   12  O20         0      47.421  34.230 -25.694  1.00  0.00    -0.359 OA
HETATM   13  H20         0      47.783  35.073 -25.938  1.00  0.00     0.218 HD
ENDBRANCH  10  12
BRANCH   4  14
HETATM   14  C5          0      43.438  38.848 -24.038  1.00  0.00     0.025 C 
HETATM   15  C6          0      42.423  39.557 -24.663  1.00  0.00     0.004 C 
HETATM   16  C7          0      41.442  40.125 -23.856  1.00  0.00     0.026 C 
HETATM   17  C8          0      41.537  40.105 -22.468  1.00  0.00     0.112 C 
HETATM   18  C10         0      42.828  39.961 -21.978  1.00  0.00     0.112 C 
HETATM   19  C12         0      43.768  39.314 -22.772  1.00  0.00     0.028 C 
BRANCH  17  20
HETATM   20  O9          0      40.403  40.021 -21.681  1.00  0.00    -0.357 OA
HETATM   21  H9          0      39.754  39.331 -21.761  1.00  0.00     0.218 HD
ENDBRANCH  17  20
BRANCH  18  22
HETATM   22  O11         0      43.003  40.124 -20.611  1.00  0.00    -0.357 OA
HETATM   23  H11         0      43.710  39.635 -20.207  1.00  0.00     0.218 HD
ENDBRANCH  18  22
ENDBRANCH   4  14
BRANCH   8  24
HETATM   24  O17         0      45.255  32.744 -21.812  1.00  0.00    -0.359 OA
HETATM   25  H17         0      46.085  32.824 -21.357  1.00  0.00     0.218 HD
ENDBRANCH   8  24
TORSDOF 5
ENDMDL
MODEL 8
REMARK VINA RESULT:      -0.7      2.134      2.718
REMARK  5 active torsions:
REMARK  status: ('A' for Active; 'I' for Inactive)
REMARK    1  A    between atoms: C4_4  and  C5_5 
REMARK    2  A    between atoms: C8_8  and  O9_9 
REMARK    3  A    between atoms: C10_11  and  O11_12 
REMARK    4  A    between atoms: C16_18  and  O17_19 
REMARK    5  A    between atoms: C19_22  and  O20_23 
ROOT
HETATM    1  O1          0      47.419  37.127 -24.120  1.00  0.00    -0.286 OA
HETATM    2  C2          0      46.412  37.272 -24.865  1.00  0.00     0.201 C 
HETATM    3  C3          0      45.603  38.395 -24.823  1.00  0.00     0.067 C 
HETATM    4  C4          0      44.442  38.485 -25.582  1.00  0.00     0.103 C 
HETATM    5  O13         0      44.122  37.478 -26.375  1.00  0.00    -0.307 OA
HETATM    6  C14         0      44.835  36.374 -26.425  1.00  0.00     0.107 C 
HETATM    7  C15         0      44.314  35.189 -26.925  1.00  0.00     0.049 C 
HETATM    8  C16         0      44.972  33.978 -26.744  1.00  0.00     0.093 C 
HETATM    9  C18         0      46.343  34.080 -26.543  1.00  0.00     0.048 C 
HETATM   10  C19         0      46.904  35.265 -26.088  1.00  0.00     0.096 C 
HETATM   11  C21         0      46.102  36.349 -25.852  1.00  0.00     0.084 C 
ENDROOT
BRANCH  10  12
HETATM   12  O20         0      48.157  35.238 -25.485  1.00  0.00    -0.359 OA
HETATM   13  H20         0      48.548  34.391 -25.309  1.00  0.00     0.218 HD
ENDBRANCH  10  12
BRANCH   4  14
HETATM   14  C5          0      43.374  39.347 -25.072  1.00  0.00     0.025 C 
HETATM   15  C6          0      42.225  39.629 -25.797  1.00  0.00     0.004 C 
HETATM   16  C7          0      41.024  39.704 -25.097  1.00  0.00     0.026 C 
HETATM   17  C8          0      40.984  39.637 -23.709  1.00  0.00     0.112 C 
HETATM   18  C10         0      42.168  39.991 -23.076  1.00  0.00     0.112 C 
HETATM   19  C12         0      43.362  39.825 -23.768  1.00  0.00     0.028 C 
BRANCH  17  20
HETATM   20  O9          0      39.909  39.057 -23.058  1.00  0.00    -0.357 OA
HETATM   21  H9          0      39.982  38.296 -22.494  1.00  0.00     0.218 HD
ENDBRANCH  17  20
BRANCH  18  22
HETATM   22  O11         0      42.128  40.124 -21.696  1.00  0.00    -0.357 OA
HETATM   23  H11         0      42.868  40.554 -21.283  1.00  0.00     0.218 HD
ENDBRANCH  18  22
ENDBRANCH   4  14
BRANCH   8  24
HETATM   24  O17         0      44.270  32.804 -26.450  1.00  0.00    -0.359 OA
HETATM   25  H17         0      43.365  32.823 -26.161  1.00  0.00     0.218 HD
ENDBRANCH   8  24
TORSDOF 5
ENDMDL
MODEL 9
REMARK VINA RESULT:      -0.7      3.280      6.681
REMARK  5 active torsions:
REMARK  status: ('A' for Active; 'I' for Inactive)
REMARK    1  A    between atoms: C4_4  and  C5_5 
REMARK    2  A    between atoms: C8_8  and  O9_9 
REMARK    3  A    between atoms: C10_11  and  O11_12 
REMARK    4  A    between atoms: C16_18  and  O17_19 
REMARK    5  A    between atoms: C19_22  and  O20_23 
ROOT
HETATM    1  O1          0      42.860  35.653 -25.691  1.00  0.00    -0.286 OA
HETATM    2  C2          0      43.196  36.860 -25.832  1.00  0.00     0.201 C 
HETATM    3  C3          0      44.419  37.243 -26.355  1.00  0.00     0.067 C 
HETATM    4  C4          0      44.805  38.578 -26.404  1.00  0.00     0.103 C 
HETATM    5  O13         0      43.969  39.497 -25.956  1.00  0.00    -0.307 OA
HETATM    6  C14         0      42.811  39.186 -25.416  1.00  0.00     0.107 C 
HETATM    7  C15         0      42.123  40.072 -24.600  1.00  0.00     0.049 C 
HETATM    8  C16         0      41.042  39.656 -23.832  1.00  0.00     0.093 C 
HETATM    9  C18         0      40.384  38.528 -24.308  1.00  0.00     0.048 C 
HETATM   10  C19         0      41.027  37.644 -25.164  1.00  0.00     0.096 C 
HETATM   11  C21         0      42.314  37.894 -25.555  1.00  0.00     0.084 C 
ENDROOT
BRANCH  10  12
HETATM   12  O20         0      40.551  36.342 -25.281  1.00  0.00    -0.359 OA
HETATM   13  H20         0      39.661  36.220 -25.589  1.00  0.00     0.218 HD
ENDBRANCH  10  12
BRANCH   4  14
HETATM   14  C5          0      46.242  38.861 -26.382  1.00  0.00     0.025 C 
HETATM   15  C6          0      46.779  39.975 -25.753  1.00  0.00     0.004 C 
HETATM   16  C7          0      47.986  39.816 -25.080  1.00  0.00     0.026 C 
HETATM   17  C8          0      48.704  38.627 -25.141  1.00  0.00     0.112 C 
HETATM   18  C10         0      48.432  37.842 -26.253  1.00  0.00     0.112 C 
HETATM   19  C12         0      47.185  37.959 -26.856  1.00  0.00     0.028 C 
BRANCH  17  20
HETATM   20  O9          0      49.454  38.196 -24.061  1.00  0.00    -0.357 OA
HETATM   21  H9          0      49.195  37.482 -23.490  1.00  0.00     0.218 HD
ENDBRANCH  17  20
BRANCH  18  22
HETATM   22  O11         0      49.252  36.742 -26.462  1.00  0.00    -0.357 OA
HETATM   23  H11         0      49.182  36.029 -25.837  1.00  0.00     0.218 HD
ENDBRANCH  18  22
ENDBRANCH   4  14
BRANCH   8  24
HETATM   24  O17         0      40.851  40.124 -22.527  1.00  0.00    -0.359 OA
HETATM   25  H17         0      40.934  41.045 -22.310  1.00  0.00     0.218 HD
ENDBRANCH   8  24
TORSDOF 5
ENDMDL
