MODEL 1
REMARK VINA RESULT:      -6.5      0.000      0.000
REMARK  5 active torsions:
REMARK  status: ('A' for Active; 'I' for Inactive)
REMARK    1  A    between atoms: C4_4  and  C5_5 
REMARK    2  A    between atoms: C8_8  and  O9_9 
REMARK    3  A    between atoms: C10_11  and  O11_12 
REMARK    4  A    between atoms: C16_18  and  O17_19 
REMARK    5  A    between atoms: C19_22  and  O20_23 
ROOT
HETATM    1  O1          0      59.416  29.375  -5.480  1.00  0.00    -0.286 OA
HETATM    2  C2          0      58.572  29.520  -6.406  1.00  0.00     0.201 C 
HETATM    3  C3          0      58.216  30.759  -6.911  1.00  0.00     0.067 C 
HETATM    4  C4          0      57.209  30.897  -7.859  1.00  0.00     0.103 C 
HETATM    5  O13         0      56.596  29.812  -8.298  1.00  0.00    -0.307 OA
HETATM    6  C14         0      56.869  28.616  -7.825  1.00  0.00     0.107 C 
HETATM    7  C15         0      55.989  27.554  -7.970  1.00  0.00     0.049 C 
HETATM    8  C16         0      56.158  26.373  -7.257  1.00  0.00     0.093 C 
HETATM    9  C18         0      57.462  26.116  -6.848  1.00  0.00     0.048 C 
HETATM   10  C19         0      58.382  27.149  -6.737  1.00  0.00     0.096 C 
HETATM   11  C21         0      58.009  28.428  -7.049  1.00  0.00     0.084 C 
ENDROOT
BRANCH  10  12
HETATM   12  O20         0      59.507  26.975  -5.937  1.00  0.00    -0.359 OA
HETATM   13  H20         0      59.376  26.688  -5.041  1.00  0.00     0.218 HD
ENDBRANCH  10  12
BRANCH   4  14
HETATM   14  C5          0      56.492  32.174  -7.894  1.00  0.00     0.025 C 
HETATM   15  C6          0      57.128  33.397  -7.742  1.00  0.00     0.004 C 
HETATM   16  C7          0      56.678  34.458  -8.521  1.00  0.00     0.026 C 
HETATM   17  C8          0      55.549  34.346  -9.325  1.00  0.00     0.112 C 
HETATM   18  C10         0      54.656  33.356  -8.935  1.00  0.00     0.112 C 
HETATM   19  C12         0      55.148  32.264  -8.231  1.00  0.00     0.028 C 
BRANCH  17  20
HETATM   20  O9          0      55.461  35.031 -10.523  1.00  0.00    -0.357 OA
HETATM   21  H9          0      55.229  34.623 -11.349  1.00  0.00     0.218 HD
ENDBRANCH  17  20
BRANCH  18  22
HETATM   22  O11         0      53.430  33.325  -9.584  1.00  0.00    -0.357 OA
HETATM   23  H11         0      52.695  33.725  -9.135  1.00  0.00     0.218 HD
ENDBRANCH  18  22
ENDBRANCH   4  14
BRANCH   8  24
HETATM   24  O17         0      55.068  25.686  -6.712  1.00  0.00    -0.359 OA
HETATM   25  H17         0      55.130  24.774  -6.455  1.00  0.00     0.218 HD
ENDBRANCH   8  24
TORSDOF 5
ENDMDL
MODEL 2
REMARK VINA RESULT:      -6.2      1.906      3.647
REMARK  5 active torsions:
REMARK  status: ('A' for Active; 'I' for Inactive)
REMARK    1  A    between atoms: C4_4  and  C5_5 
REMARK    2  A    between atoms: C8_8  and  O9_9 
REMARK    3  A    between atoms: C10_11  and  O11_12 
REMARK    4  A    between atoms: C16_18  and  O17_19 
REMARK    5  A    between atoms: C19_22  and  O20_23 
ROOT
HETATM    1  O1          0      55.297  29.129  -9.514  1.00  0.00    -0.286 OA
HETATM    2  C2          0      55.836  30.041  -8.829  1.00  0.00     0.201 C 
HETATM    3  C3          0      55.703  31.385  -9.132  1.00  0.00     0.067 C 
HETATM    4  C4          0      56.391  32.363  -8.423  1.00  0.00     0.103 C 
HETATM    5  O13         0      57.173  31.992  -7.424  1.00  0.00    -0.307 OA
HETATM    6  C14         0      57.364  30.727  -7.119  1.00  0.00     0.107 C 
HETATM    7  C15         0      58.455  30.313  -6.369  1.00  0.00     0.049 C 
HETATM    8  C16         0      58.791  28.968  -6.265  1.00  0.00     0.093 C 
HETATM    9  C18         0      57.740  28.083  -6.473  1.00  0.00     0.048 C 
HETATM   10  C19         0      56.613  28.479  -7.179  1.00  0.00     0.096 C 
HETATM   11  C21         0      56.528  29.757  -7.661  1.00  0.00     0.084 C 
ENDROOT
BRANCH  10  12
HETATM   12  O20         0      55.792  27.511  -7.749  1.00  0.00    -0.359 OA
HETATM   13  H20         0      55.688  26.688  -7.288  1.00  0.00     0.218 HD
ENDBRANCH  10  12
BRANCH   4  14
HETATM   14  C5          0      56.689  33.614  -9.123  1.00  0.00     0.025 C 
HETATM   15  C6          0      55.720  34.564  -9.412  1.00  0.00     0.004 C 
HETATM   16  C7          0      56.077  35.904  -9.300  1.00  0.00     0.026 C 
HETATM   17  C8          0      57.388  36.290  -9.042  1.00  0.00     0.112 C 
HETATM   18  C10         0      58.349  35.353  -9.397  1.00  0.00     0.112 C 
HETATM   19  C12         0      57.987  34.011  -9.418  1.00  0.00     0.028 C 
BRANCH  17  20
HETATM   20  O9          0      57.659  37.425  -8.299  1.00  0.00    -0.357 OA
HETATM   21  H9          0      57.902  37.409  -7.380  1.00  0.00     0.218 HD
ENDBRANCH  17  20
BRANCH  18  22
HETATM   22  O11         0      59.675  35.759  -9.338  1.00  0.00    -0.357 OA
HETATM   23  H11         0      59.848  36.603  -8.937  1.00  0.00     0.218 HD
ENDBRANCH  18  22
ENDBRANCH   4  14
BRANCH   8  24
HETATM   24  O17         0      60.125  28.546  -6.291  1.00  0.00    -0.359 OA
HETATM   25  H17         0      60.455  27.898  -5.680  1.00  0.00     0.218 HD
ENDBRANCH   8  24
TORSDOF 5
ENDMDL
MODEL 3
REMARK VINA RESULT:      -6.1      1.832      7.210
REMARK  5 active torsions:
REMARK  status: ('A' for Active; 'I' for Inactive)
REMARK    1  A    between atoms: C4_4  and  C5_5 
REMARK    2  A    between atoms: C8_8  and  O9_9 
REMARK    3  A    between atoms: C10_11  and  O11_12 
REMARK    4  A    between atoms: C16_18  and  O17_19 
REMARK    5  A    between atoms: C19_22  and  O20_23 
ROOT
HETATM    1  O1          0      54.248  32.958  -7.951  1.00  0.00    -0.286 OA
HETATM    2  C2          0      55.421  32.755  -8.368  1.00  0.00     0.201 C 
HETATM    3  C3          0      56.078  31.548  -8.201  1.00  0.00     0.067 C 
HETATM    4  C4          0      57.406  31.383  -8.579  1.00  0.00     0.103 C 
HETATM    5  O13         0      58.042  32.404  -9.127  1.00  0.00    -0.307 OA
HETATM    6  C14         0      57.476  33.582  -9.274  1.00  0.00     0.107 C 
HETATM    7  C15         0      58.226  34.734  -9.464  1.00  0.00     0.049 C 
HETATM    8  C16         0      57.650  35.994  -9.363  1.00  0.00     0.093 C 
HETATM    9  C18         0      56.281  36.035  -9.598  1.00  0.00     0.048 C 
HETATM   10  C19         0      55.508  34.890  -9.462  1.00  0.00     0.096 C 
HETATM   11  C21         0      56.101  33.708  -9.111  1.00  0.00     0.084 C 
ENDROOT
BRANCH  10  12
HETATM   12  O20         0      54.136  35.015  -9.268  1.00  0.00    -0.359 OA
HETATM   13  H20         0      53.720  35.824  -9.538  1.00  0.00     0.218 HD
ENDBRANCH  10  12
BRANCH   4  14
HETATM   14  C5          0      58.185  30.370  -7.864  1.00  0.00     0.025 C 
HETATM   15  C6          0      58.198  30.269  -6.481  1.00  0.00     0.004 C 
HETATM   16  C7          0      58.218  28.993  -5.927  1.00  0.00     0.026 C 
HETATM   17  C8          0      58.355  27.857  -6.718  1.00  0.00     0.112 C 
HETATM   18  C10         0      58.956  28.078  -7.950  1.00  0.00     0.112 C 
HETATM   19  C12         0      58.848  29.341  -8.520  1.00  0.00     0.028 C 
BRANCH  17  20
HETATM   20  O9          0      57.742  26.669  -6.364  1.00  0.00    -0.357 OA
HETATM   21  H9          0      57.937  26.191  -5.566  1.00  0.00     0.218 HD
ENDBRANCH  17  20
BRANCH  18  22
HETATM   22  O11         0      59.288  26.957  -8.697  1.00  0.00    -0.357 OA
HETATM   23  H11         0      60.002  26.420  -8.373  1.00  0.00     0.218 HD
ENDBRANCH  18  22
ENDBRANCH   4  14
BRANCH   8  24
HETATM   24  O17         0      58.323  37.056  -8.748  1.00  0.00    -0.359 OA
HETATM   25  H17         0      58.575  37.834  -9.232  1.00  0.00     0.218 HD
ENDBRANCH   8  24
TORSDOF 5
ENDMDL
MODEL 4
REMARK VINA RESULT:      -6.1      1.710      6.958
REMARK  5 active torsions:
REMARK  status: ('A' for Active; 'I' for Inactive)
REMARK    1  A    between atoms: C4_4  and  C5_5 
REMARK    2  A    between atoms: C8_8  and  O9_9 
REMARK    3  A    between atoms: C10_11  and  O11_12 
REMARK    4  A    between atoms: C16_18  and  O17_19 
REMARK    5  A    between atoms: C19_22  and  O20_23 
ROOT
HETATM    1  O1          0      57.355  35.559  -8.459  1.00  0.00    -0.286 OA
HETATM    2  C2          0      56.614  34.539  -8.510  1.00  0.00     0.201 C 
HETATM    3  C3          0      56.961  33.329  -7.933  1.00  0.00     0.067 C 
HETATM    4  C4          0      56.175  32.194  -8.091  1.00  0.00     0.103 C 
HETATM    5  O13         0      55.061  32.287  -8.795  1.00  0.00    -0.307 OA
HETATM    6  C14         0      54.704  33.401  -9.396  1.00  0.00     0.107 C 
HETATM    7  C15         0      53.786  33.410 -10.436  1.00  0.00     0.049 C 
HETATM    8  C16         0      53.604  34.536 -11.229  1.00  0.00     0.093 C 
HETATM    9  C18         0      53.953  35.740 -10.628  1.00  0.00     0.048 C 
HETATM   10  C19         0      54.833  35.763  -9.555  1.00  0.00     0.096 C 
HETATM   11  C21         0      55.348  34.591  -9.073  1.00  0.00     0.084 C 
ENDROOT
BRANCH  10  12
HETATM   12  O20         0      55.503  36.944  -9.250  1.00  0.00    -0.359 OA
HETATM   13  H20         0      55.042  37.598  -8.739  1.00  0.00     0.218 HD
ENDBRANCH  10  12
BRANCH   4  14
HETATM   14  C5          0      56.847  30.896  -8.003  1.00  0.00     0.025 C 
HETATM   15  C6          0      58.055  30.718  -7.346  1.00  0.00     0.004 C 
HETATM   16  C7          0      58.227  29.543  -6.620  1.00  0.00     0.026 C 
HETATM   17  C8          0      57.286  28.520  -6.655  1.00  0.00     0.112 C 
HETATM   18  C10         0      56.477  28.515  -7.784  1.00  0.00     0.112 C 
HETATM   19  C12         0      56.253  29.719  -8.441  1.00  0.00     0.028 C 
BRANCH  17  20
HETATM   20  O9          0      57.062  27.724  -5.546  1.00  0.00    -0.357 OA
HETATM   21  H9          0      57.755  27.309  -5.046  1.00  0.00     0.218 HD
ENDBRANCH  17  20
BRANCH  18  22
HETATM   22  O11         0      55.653  27.413  -7.961  1.00  0.00    -0.357 OA
HETATM   23  H11         0      56.072  26.560  -7.977  1.00  0.00     0.218 HD
ENDBRANCH  18  22
ENDBRANCH   4  14
BRANCH   8  24
HETATM   24  O17         0      53.415  34.432 -12.612  1.00  0.00    -0.359 OA
HETATM   25  H17         0      53.005  35.126 -13.113  1.00  0.00     0.218 HD
ENDBRANCH   8  24
TORSDOF 5
ENDMDL
MODEL 5
REMARK VINA RESULT:      -5.9      2.439      4.726
REMARK  5 active torsions:
REMARK  status: ('A' for Active; 'I' for Inactive)
REMARK    1  A    between atoms: C4_4  and  C5_5 
REMARK    2  A    between atoms: C8_8  and  O9_9 
REMARK    3  A    between atoms: C10_11  and  O11_12 
REMARK    4  A    between atoms: C16_18  and  O17_19 
REMARK    5  A    between atoms: C19_22  and  O20_23 
ROOT
HETATM    1  O1          0      54.539  31.976 -10.707  1.00  0.00    -0.286 OA
HETATM    2  C2          0      55.255  32.464  -9.790  1.00  0.00     0.201 C 
HETATM    3  C3          0      55.515  33.819  -9.681  1.00  0.00     0.067 C 
HETATM    4  C4          0      56.390  34.319  -8.723  1.00  0.00     0.103 C 
HETATM    5  O13         0      56.968  33.473  -7.888  1.00  0.00    -0.307 OA
HETATM    6  C14         0      56.785  32.173  -7.972  1.00  0.00     0.107 C 
HETATM    7  C15         0      57.665  31.272  -7.391  1.00  0.00     0.049 C 
HETATM    8  C16         0      57.615  29.917  -7.693  1.00  0.00     0.093 C 
HETATM    9  C18         0      56.380  29.460  -8.139  1.00  0.00     0.048 C 
HETATM   10  C19         0      55.457  30.343  -8.684  1.00  0.00     0.096 C 
HETATM   11  C21         0      55.758  31.675  -8.767  1.00  0.00     0.084 C 
ENDROOT
BRANCH  10  12
HETATM   12  O20         0      54.447  29.850  -9.504  1.00  0.00    -0.359 OA
HETATM   13  H20         0      53.915  29.135  -9.175  1.00  0.00     0.218 HD
ENDBRANCH  10  12
BRANCH   4  14
HETATM   14  C5          0      57.066  35.581  -9.027  1.00  0.00     0.025 C 
HETATM   15  C6          0      58.283  35.642  -9.690  1.00  0.00     0.004 C 
HETATM   16  C7          0      58.467  36.672 -10.607  1.00  0.00     0.026 C 
HETATM   17  C8          0      57.529  37.686 -10.763  1.00  0.00     0.112 C 
HETATM   18  C10         0      56.705  37.887  -9.664  1.00  0.00     0.112 C 
HETATM   19  C12         0      56.470  36.816  -8.810  1.00  0.00     0.028 C 
BRANCH  17  20
HETATM   20  O9          0      57.321  38.276 -11.997  1.00  0.00    -0.357 OA
HETATM   21  H9          0      58.005  38.701 -12.501  1.00  0.00     0.218 HD
ENDBRANCH  17  20
BRANCH  18  22
HETATM   22  O11         0      55.882  39.004  -9.692  1.00  0.00    -0.357 OA
HETATM   23  H11         0      56.025  39.627 -10.395  1.00  0.00     0.218 HD
ENDBRANCH  18  22
ENDBRANCH   4  14
BRANCH   8  24
HETATM   24  O17         0      58.782  29.162  -7.858  1.00  0.00    -0.359 OA
HETATM   25  H17         0      59.520  29.489  -8.358  1.00  0.00     0.218 HD
ENDBRANCH   8  24
TORSDOF 5
ENDMDL
MODEL 6
REMARK VINA RESULT:      -5.8      1.542      3.153
REMARK  5 active torsions:
REMARK  status: ('A' for Active; 'I' for Inactive)
REMARK    1  A    between atoms: C4_4  and  C5_5 
REMARK    2  A    between atoms: C8_8  and  O9_9 
REMARK    3  A    between atoms: C10_11  and  O11_12 
REMARK    4  A    between atoms: C16_18  and  O17_19 
REMARK    5  A    between atoms: C19_22  and  O20_23 
ROOT
HETATM    1  O1          0      55.341  27.824  -9.743  1.00  0.00    -0.286 OA
HETATM    2  C2          0      55.700  28.809  -9.041  1.00  0.00     0.201 C 
HETATM    3  C3          0      55.345  30.113  -9.340  1.00  0.00     0.067 C 
HETATM    4  C4          0      55.839  31.188  -8.609  1.00  0.00     0.103 C 
HETATM    5  O13         0      56.649  30.947  -7.594  1.00  0.00    -0.307 OA
HETATM    6  C14         0      57.048  29.731  -7.291  1.00  0.00     0.107 C 
HETATM    7  C15         0      58.176  29.503  -6.516  1.00  0.00     0.049 C 
HETATM    8  C16         0      58.735  28.235  -6.412  1.00  0.00     0.093 C 
HETATM    9  C18         0      57.857  27.185  -6.649  1.00  0.00     0.048 C 
HETATM   10  C19         0      56.695  27.388  -7.381  1.00  0.00     0.096 C 
HETATM   11  C21         0      56.403  28.637  -7.858  1.00  0.00     0.084 C 
ENDROOT
BRANCH  10  12
HETATM   12  O20         0      56.066  26.299  -7.976  1.00  0.00    -0.359 OA
HETATM   13  H20         0      55.117  26.290  -7.998  1.00  0.00     0.218 HD
ENDBRANCH  10  12
BRANCH   4  14
HETATM   14  C5          0      55.933  32.478  -9.296  1.00  0.00     0.025 C 
HETATM   15  C6          0      55.047  32.868 -10.289  1.00  0.00     0.004 C 
HETATM   16  C7          0      54.656  34.203 -10.317  1.00  0.00     0.026 C 
HETATM   17  C8          0      55.229  35.148  -9.473  1.00  0.00     0.112 C 
HETATM   18  C10         0      56.490  34.814  -8.999  1.00  0.00     0.112 C 
HETATM   19  C12         0      56.824  33.468  -8.901  1.00  0.00     0.028 C 
BRANCH  17  20
HETATM   20  O9          0      54.488  36.215  -8.998  1.00  0.00    -0.357 OA
HETATM   21  H9          0      53.822  36.664  -9.506  1.00  0.00     0.218 HD
ENDBRANCH  17  20
BRANCH  18  22
HETATM   22  O11         0      57.184  35.798  -8.309  1.00  0.00    -0.357 OA
HETATM   23  H11         0      56.675  36.526  -7.971  1.00  0.00     0.218 HD
ENDBRANCH  18  22
ENDBRANCH   4  14
BRANCH   8  24
HETATM   24  O17         0      60.122  28.048  -6.407  1.00  0.00    -0.359 OA
HETATM   25  H17         0      60.692  28.530  -6.994  1.00  0.00     0.218 HD
ENDBRANCH   8  24
TORSDOF 5
ENDMDL
MODEL 7
REMARK VINA RESULT:      -5.6      2.092      2.318
REMARK  5 active torsions:
REMARK  status: ('A' for Active; 'I' for Inactive)
REMARK    1  A    between atoms: C4_4  and  C5_5 
REMARK    2  A    between atoms: C8_8  and  O9_9 
REMARK    3  A    between atoms: C10_11  and  O11_12 
REMARK    4  A    between atoms: C16_18  and  O17_19 
REMARK    5  A    between atoms: C19_22  and  O20_23 
ROOT
HETATM    1  O1          0      58.160  29.411  -5.513  1.00  0.00    -0.286 OA
HETATM    2  C2          0      58.316  29.713  -6.728  1.00  0.00     0.201 C 
HETATM    3  C3          0      57.913  30.928  -7.257  1.00  0.00     0.067 C 
HETATM    4  C4          0      58.003  31.195  -8.618  1.00  0.00     0.103 C 
HETATM    5  O13         0      58.505  30.269  -9.415  1.00  0.00    -0.307 OA
HETATM    6  C14         0      58.867  29.085  -8.971  1.00  0.00     0.107 C 
HETATM    7  C15         0      59.008  27.997  -9.820  1.00  0.00     0.049 C 
HETATM    8  C16         0      59.138  26.706  -9.323  1.00  0.00     0.093 C 
HETATM    9  C18         0      59.643  26.623  -8.031  1.00  0.00     0.048 C 
HETATM   10  C19         0      59.560  27.708  -7.170  1.00  0.00     0.096 C 
HETATM   11  C21         0      58.992  28.876  -7.602  1.00  0.00     0.084 C 
ENDROOT
BRANCH  10  12
HETATM   12  O20         0      59.654  27.497  -5.797  1.00  0.00    -0.359 OA
HETATM   13  H20         0      59.111  28.028  -5.227  1.00  0.00     0.218 HD
ENDBRANCH  10  12
BRANCH   4  14
HETATM   14  C5          0      57.059  32.167  -9.173  1.00  0.00     0.025 C 
HETATM   15  C6          0      57.016  32.487 -10.523  1.00  0.00     0.004 C 
HETATM   16  C7          0      55.765  32.699 -11.095  1.00  0.00     0.026 C 
HETATM   17  C8          0      54.607  32.725 -10.326  1.00  0.00     0.112 C 
HETATM   18  C10         0      54.806  33.029  -8.986  1.00  0.00     0.112 C 
HETATM   19  C12         0      56.038  32.729  -8.417  1.00  0.00     0.028 C 
BRANCH  17  20
HETATM   20  O9          0      53.405  32.272 -10.840  1.00  0.00    -0.357 OA
HETATM   21  H9          0      53.335  31.713 -11.605  1.00  0.00     0.218 HD
ENDBRANCH  17  20
BRANCH  18  22
HETATM   22  O11         0      53.674  33.255  -8.217  1.00  0.00    -0.357 OA
HETATM   23  H11         0      53.261  32.493  -7.826  1.00  0.00     0.218 HD
ENDBRANCH  18  22
ENDBRANCH   4  14
BRANCH   8  24
HETATM   24  O17         0      58.501  25.621  -9.935  1.00  0.00    -0.359 OA
HETATM   25  H17         0      57.557  25.590 -10.039  1.00  0.00     0.218 HD
ENDBRANCH   8  24
TORSDOF 5
ENDMDL
MODEL 8
REMARK VINA RESULT:      -5.6      2.353      6.821
REMARK  5 active torsions:
REMARK  status: ('A' for Active; 'I' for Inactive)
REMARK    1  A    between atoms: C4_4  and  C5_5 
REMARK    2  A    between atoms: C8_8  and  O9_9 
REMARK    3  A    between atoms: C10_11  and  O11_12 
REMARK    4  A    between atoms: C16_18  and  O17_19 
REMARK    5  A    between atoms: C19_22  and  O20_23 
ROOT
HETATM    1  O1          0      54.811  34.467  -8.784  1.00  0.00    -0.286 OA
HETATM    2  C2          0      54.813  33.271  -9.185  1.00  0.00     0.201 C 
HETATM    3  C3          0      55.331  32.229  -8.434  1.00  0.00     0.067 C 
HETATM    4  C4          0      55.415  30.938  -8.941  1.00  0.00     0.103 C 
HETATM    5  O13         0      54.969  30.705 -10.163  1.00  0.00    -0.307 OA
HETATM    6  C14         0      54.503  31.665 -10.932  1.00  0.00     0.107 C 
HETATM    7  C15         0      54.413  31.521 -12.309  1.00  0.00     0.049 C 
HETATM    8  C16         0      54.165  32.611 -13.134  1.00  0.00     0.093 C 
HETATM    9  C18         0      53.508  33.672 -12.523  1.00  0.00     0.048 C 
HETATM   10  C19         0      53.539  33.821 -11.143  1.00  0.00     0.096 C 
HETATM   11  C21         0      54.207  32.905 -10.377  1.00  0.00     0.084 C 
ENDROOT
BRANCH  10  12
HETATM   12  O20         0      53.274  35.068 -10.588  1.00  0.00    -0.359 OA
HETATM   13  H20         0      52.763  35.684 -11.099  1.00  0.00     0.218 HD
ENDBRANCH  10  12
BRANCH   4  14
HETATM   14  C5          0      56.462  30.071  -8.397  1.00  0.00     0.025 C 
HETATM   15  C6          0      57.806  30.235  -8.697  1.00  0.00     0.004 C 
HETATM   16  C7          0      58.726  30.023  -7.675  1.00  0.00     0.026 C 
HETATM   17  C8          0      58.335  29.533  -6.433  1.00  0.00     0.112 C 
HETATM   18  C10         0      57.142  28.823  -6.439  1.00  0.00     0.112 C 
HETATM   19  C12         0      56.204  29.116  -7.422  1.00  0.00     0.028 C 
BRANCH  17  20
HETATM   20  O9          0      58.993  29.922  -5.279  1.00  0.00    -0.357 OA
HETATM   21  H9          0      59.555  29.347  -4.772  1.00  0.00     0.218 HD
ENDBRANCH  17  20
BRANCH  18  22
HETATM   22  O11         0      56.803  28.154  -5.271  1.00  0.00    -0.357 OA
HETATM   23  H11         0      56.266  27.376  -5.362  1.00  0.00     0.218 HD
ENDBRANCH  18  22
ENDBRANCH   4  14
BRANCH   8  24
HETATM   24  O17         0      54.820  32.759 -14.362  1.00  0.00    -0.359 OA
HETATM   25  H17         0      55.767  32.739 -14.428  1.00  0.00     0.218 HD
ENDBRANCH   8  24
TORSDOF 5
ENDMDL
MODEL 9
REMARK VINA RESULT:      -5.6      2.722      7.454
REMARK  5 active torsions:
REMARK  status: ('A' for Active; 'I' for Inactive)
REMARK    1  A    between atoms: C4_4  and  C5_5 
REMARK    2  A    between atoms: C8_8  and  O9_9 
REMARK    3  A    between atoms: C10_11  and  O11_12 
REMARK    4  A    between atoms: C16_18  and  O17_19 
REMARK    5  A    between atoms: C19_22  and  O20_23 
ROOT
HETATM    1  O1          0      58.958  34.917  -9.189  1.00  0.00    -0.286 OA
HETATM    2  C2          0      57.724  34.695  -9.054  1.00  0.00     0.201 C 
HETATM    3  C3          0      57.208  33.427  -8.845  1.00  0.00     0.067 C 
HETATM    4  C4          0      55.838  33.197  -8.802  1.00  0.00     0.103 C 
HETATM    5  O13         0      55.016  34.222  -8.945  1.00  0.00    -0.307 OA
HETATM    6  C14         0      55.453  35.439  -9.183  1.00  0.00     0.107 C 
HETATM    7  C15         0      54.631  36.418  -9.721  1.00  0.00     0.049 C 
HETATM    8  C16         0      55.152  37.613 -10.205  1.00  0.00     0.093 C 
HETATM    9  C18         0      56.373  37.985  -9.656  1.00  0.00     0.048 C 
HETATM   10  C19         0      57.200  37.038  -9.067  1.00  0.00     0.096 C 
HETATM   11  C21         0      56.802  35.730  -9.012  1.00  0.00     0.084 C 
ENDROOT
BRANCH  10  12
HETATM   12  O20         0      58.556  37.314  -8.924  1.00  0.00    -0.359 OA
HETATM   13  H20         0      59.093  36.682  -8.462  1.00  0.00     0.218 HD
ENDBRANCH  10  12
BRANCH   4  14
HETATM   14  C5          0      55.371  31.862  -9.181  1.00  0.00     0.025 C 
HETATM   15  C6          0      54.946  31.550 -10.465  1.00  0.00     0.004 C 
HETATM   16  C7          0      55.285  30.299 -10.970  1.00  0.00     0.026 C 
HETATM   17  C8          0      55.908  29.338 -10.182  1.00  0.00     0.112 C 
HETATM   18  C10         0      55.715  29.495  -8.816  1.00  0.00     0.112 C 
HETATM   19  C12         0      55.462  30.771  -8.327  1.00  0.00     0.028 C 
BRANCH  17  20
HETATM   20  O9          0      56.811  28.446 -10.733  1.00  0.00    -0.357 OA
HETATM   21  H9          0      56.869  27.531 -10.482  1.00  0.00     0.218 HD
ENDBRANCH  17  20
BRANCH  18  22
HETATM   22  O11         0      56.153  28.464  -7.997  1.00  0.00    -0.357 OA
HETATM   23  H11         0      57.074  28.235  -8.049  1.00  0.00     0.218 HD
ENDBRANCH  18  22
ENDBRANCH   4  14
BRANCH   8  24
HETATM   24  O17         0      54.661  38.201 -11.376  1.00  0.00    -0.359 OA
HETATM   25  H17         0      54.293  37.680 -12.080  1.00  0.00     0.218 HD
ENDBRANCH   8  24
TORSDOF 5
ENDMDL
