MODEL 1
REMARK VINA RESULT:      -0.1      0.000      0.000
REMARK  5 active torsions:
REMARK  status: ('A' for Active; 'I' for Inactive)
REMARK    1  A    between atoms: C4_4  and  C5_5 
REMARK    2  A    between atoms: C8_8  and  O9_9 
REMARK    3  A    between atoms: C10_11  and  O11_12 
REMARK    4  A    between atoms: C16_18  and  O17_19 
REMARK    5  A    between atoms: C19_22  and  O20_23 
ROOT
HETATM    1  O1          0      61.243  44.556 -22.169  1.00  0.00    -0.286 OA
HETATM    2  C2          0      60.914  45.539 -22.888  1.00  0.00     0.201 C 
HETATM    3  C3          0      61.047  45.539 -24.266  1.00  0.00     0.067 C 
HETATM    4  C4          0      60.773  46.671 -25.025  1.00  0.00     0.103 C 
HETATM    5  O13         0      60.357  47.763 -24.408  1.00  0.00    -0.307 OA
HETATM    6  C14         0      60.249  47.828 -23.099  1.00  0.00     0.107 C 
HETATM    7  C15         0      60.207  49.042 -22.428  1.00  0.00     0.049 C 
HETATM    8  C16         0      60.350  49.109 -21.048  1.00  0.00     0.093 C 
HETATM    9  C18         0      60.003  47.950 -20.365  1.00  0.00     0.048 C 
HETATM   10  C19         0      59.988  46.724 -21.017  1.00  0.00     0.096 C 
HETATM   11  C21         0      60.302  46.659 -22.347  1.00  0.00     0.084 C 
ENDROOT
BRANCH  10  12
HETATM   12  O20         0      60.074  45.554 -20.268  1.00  0.00    -0.359 OA
HETATM   13  H20         0      59.306  44.999 -20.221  1.00  0.00     0.218 HD
ENDBRANCH  10  12
BRANCH   4  14
HETATM   14  C5          0      61.476  46.808 -26.302  1.00  0.00     0.025 C 
HETATM   15  C6          0      61.726  48.037 -26.894  1.00  0.00     0.004 C 
HETATM   16  C7          0      62.948  48.206 -27.538  1.00  0.00     0.026 C 
HETATM   17  C8          0      63.837  47.149 -27.705  1.00  0.00     0.112 C 
HETATM   18  C10         0      63.254  45.889 -27.662  1.00  0.00     0.112 C 
HETATM   19  C12         0      62.077  45.731 -26.940  1.00  0.00     0.028 C 
BRANCH  17  20
HETATM   20  O9          0      65.203  47.364 -27.697  1.00  0.00    -0.357 OA
HETATM   21  H9          0      65.665  47.799 -26.989  1.00  0.00     0.218 HD
ENDBRANCH  17  20
BRANCH  18  22
HETATM   22  O11         0      64.058  44.813 -28.009  1.00  0.00    -0.357 OA
HETATM   23  H11         0      64.915  45.014 -28.366  1.00  0.00     0.218 HD
ENDBRANCH  18  22
ENDBRANCH   4  14
BRANCH   8  24
HETATM   24  O17         0      61.095  50.126 -20.440  1.00  0.00    -0.359 OA
HETATM   25  H17         0      62.007  50.275 -20.659  1.00  0.00     0.218 HD
ENDBRANCH   8  24
TORSDOF 5
ENDMDL
MODEL 2
REMARK VINA RESULT:      -0.1      1.798      6.987
REMARK  5 active torsions:
REMARK  status: ('A' for Active; 'I' for Inactive)
REMARK    1  A    between atoms: C4_4  and  C5_5 
REMARK    2  A    between atoms: C8_8  and  O9_9 
REMARK    3  A    between atoms: C10_11  and  O11_12 
REMARK    4  A    between atoms: C16_18  and  O17_19 
REMARK    5  A    between atoms: C19_22  and  O20_23 
ROOT
HETATM    1  O1          0      64.101  50.693 -25.875  1.00  0.00    -0.286 OA
HETATM    2  C2          0      63.019  50.044 -25.875  1.00  0.00     0.201 C 
HETATM    3  C3          0      62.101  50.116 -24.840  1.00  0.00     0.067 C 
HETATM    4  C4          0      60.966  49.313 -24.817  1.00  0.00     0.103 C 
HETATM    5  O13         0      60.757  48.480 -25.821  1.00  0.00    -0.307 OA
HETATM    6  C14         0      61.615  48.346 -26.808  1.00  0.00     0.107 C 
HETATM    7  C15         0      61.615  47.228 -27.630  1.00  0.00     0.049 C 
HETATM    8  C16         0      62.670  46.970 -28.498  1.00  0.00     0.093 C 
HETATM    9  C18         0      63.401  48.088 -28.881  1.00  0.00     0.048 C 
HETATM   10  C19         0      63.386  49.240 -28.107  1.00  0.00     0.096 C 
HETATM   11  C21         0      62.631  49.282 -26.966  1.00  0.00     0.084 C 
ENDROOT
BRANCH  10  12
HETATM   12  O20         0      64.418  50.163 -28.240  1.00  0.00    -0.359 OA
HETATM   13  H20         0      64.475  50.864 -27.601  1.00  0.00     0.218 HD
ENDBRANCH  10  12
BRANCH   4  14
HETATM   14  C5          0      60.399  48.993 -23.506  1.00  0.00     0.025 C 
HETATM   15  C6          0      59.896  47.739 -23.189  1.00  0.00     0.004 C 
HETATM   16  C7          0      60.132  47.255 -21.906  1.00  0.00     0.026 C 
HETATM   17  C8          0      60.728  48.043 -20.928  1.00  0.00     0.112 C 
HETATM   18  C10         0      60.608  49.411 -21.132  1.00  0.00     0.112 C 
HETATM   19  C12         0      60.459  49.874 -22.434  1.00  0.00     0.028 C 
BRANCH  17  20
HETATM   20  O9          0      61.546  47.479 -19.965  1.00  0.00    -0.357 OA
HETATM   21  H9          0      61.246  47.227 -19.099  1.00  0.00     0.218 HD
ENDBRANCH  17  20
BRANCH  18  22
HETATM   22  O11         0      61.017  50.239 -20.096  1.00  0.00    -0.357 OA
HETATM   23  H11         0      60.759  51.153 -20.148  1.00  0.00     0.218 HD
ENDBRANCH  18  22
ENDBRANCH   4  14
BRANCH   8  24
HETATM   24  O17         0      63.155  45.672 -28.691  1.00  0.00    -0.359 OA
HETATM   25  H17         0      62.713  44.915 -28.325  1.00  0.00     0.218 HD
ENDBRANCH   8  24
TORSDOF 5
ENDMDL
MODEL 3
REMARK VINA RESULT:      -0.1      4.687      6.413
REMARK  5 active torsions:
REMARK  status: ('A' for Active; 'I' for Inactive)
REMARK    1  A    between atoms: C4_4  and  C5_5 
REMARK    2  A    between atoms: C8_8  and  O9_9 
REMARK    3  A    between atoms: C10_11  and  O11_12 
REMARK    4  A    between atoms: C16_18  and  O17_19 
REMARK    5  A    between atoms: C19_22  and  O20_23 
ROOT
HETATM    1  O1          0      62.457  52.906 -21.623  1.00  0.00    -0.286 OA
HETATM    2  C2          0      62.903  51.784 -21.257  1.00  0.00     0.201 C 
HETATM    3  C3          0      64.251  51.543 -21.052  1.00  0.00     0.067 C 
HETATM    4  C4          0      64.725  50.272 -20.749  1.00  0.00     0.103 C 
HETATM    5  O13         0      63.859  49.281 -20.637  1.00  0.00    -0.307 OA
HETATM    6  C14         0      62.574  49.447 -20.859  1.00  0.00     0.107 C 
HETATM    7  C15         0      61.735  48.378 -21.136  1.00  0.00     0.049 C 
HETATM    8  C16         0      60.446  48.577 -21.617  1.00  0.00     0.093 C 
HETATM    9  C18         0      59.886  49.808 -21.300  1.00  0.00     0.048 C 
HETATM   10  C19         0      60.694  50.888 -20.972  1.00  0.00     0.096 C 
HETATM   11  C21         0      62.053  50.734 -20.943  1.00  0.00     0.084 C 
ENDROOT
BRANCH  10  12
HETATM   12  O20         0      60.185  52.178 -21.087  1.00  0.00    -0.359 OA
HETATM   13  H20         0      59.246  52.279 -21.183  1.00  0.00     0.218 HD
ENDBRANCH  10  12
BRANCH   4  14
HETATM   14  C5          0      66.104  49.963 -21.133  1.00  0.00     0.025 C 
HETATM   15  C6          0      66.496  48.712 -21.586  1.00  0.00     0.004 C 
HETATM   16  C7          0      67.435  48.663 -22.611  1.00  0.00     0.026 C 
HETATM   17  C8          0      68.065  49.811 -23.079  1.00  0.00     0.112 C 
HETATM   18  C10         0      68.091  50.867 -22.178  1.00  0.00     0.112 C 
HETATM   19  C12         0      67.090  50.938 -21.216  1.00  0.00     0.028 C 
BRANCH  17  20
HETATM   20  O9          0      68.431  49.927 -24.408  1.00  0.00    -0.357 OA
HETATM   21  H9          0      67.809  49.974 -25.125  1.00  0.00     0.218 HD
ENDBRANCH  17  20
BRANCH  18  22
HETATM   22  O11         0      68.867  51.965 -22.518  1.00  0.00    -0.357 OA
HETATM   23  H11         0      69.806  51.832 -22.560  1.00  0.00     0.218 HD
ENDBRANCH  18  22
ENDBRANCH   4  14
BRANCH   8  24
HETATM   24  O17         0      59.903  47.754 -22.611  1.00  0.00    -0.359 OA
HETATM   25  H17         0      58.969  47.599 -22.674  1.00  0.00     0.218 HD
ENDBRANCH   8  24
TORSDOF 5
ENDMDL
MODEL 4
REMARK VINA RESULT:      -0.1      2.606      6.781
REMARK  5 active torsions:
REMARK  status: ('A' for Active; 'I' for Inactive)
REMARK    1  A    between atoms: C4_4  and  C5_5 
REMARK    2  A    between atoms: C8_8  and  O9_9 
REMARK    3  A    between atoms: C10_11  and  O11_12 
REMARK    4  A    between atoms: C16_18  and  O17_19 
REMARK    5  A    between atoms: C19_22  and  O20_23 
ROOT
HETATM    1  O1          0      61.914  46.600 -25.985  1.00  0.00    -0.286 OA
HETATM    2  C2          0      62.808  46.954 -25.168  1.00  0.00     0.201 C 
HETATM    3  C3          0      62.636  46.897 -23.795  1.00  0.00     0.067 C 
HETATM    4  C4          0      63.597  47.388 -22.919  1.00  0.00     0.103 C 
HETATM    5  O13         0      64.707  47.902 -23.418  1.00  0.00    -0.307 OA
HETATM    6  C14         0      64.905  48.015 -24.713  1.00  0.00     0.107 C 
HETATM    7  C15         0      65.847  48.889 -25.235  1.00  0.00     0.049 C 
HETATM    8  C16         0      65.877  49.192 -26.591  1.00  0.00     0.093 C 
HETATM    9  C18         0      65.322  48.225 -27.421  1.00  0.00     0.048 C 
HETATM   10  C19         0      64.411  47.305 -26.920  1.00  0.00     0.096 C 
HETATM   11  C21         0      64.070  47.339 -25.596  1.00  0.00     0.084 C 
ENDROOT
BRANCH  10  12
HETATM   12  O20         0      63.552  46.651 -27.799  1.00  0.00    -0.359 OA
HETATM   13  H20         0      63.322  45.750 -27.608  1.00  0.00     0.218 HD
ENDBRANCH  10  12
BRANCH   4  14
HETATM   14  C5          0      63.135  47.847 -21.607  1.00  0.00     0.025 C 
HETATM   15  C6          0      63.707  48.921 -20.942  1.00  0.00     0.004 C 
HETATM   16  C7          0      62.858  49.770 -20.238  1.00  0.00     0.026 C 
HETATM   17  C8          0      61.505  49.486 -20.087  1.00  0.00     0.112 C 
HETATM   18  C10         0      61.176  48.144 -20.220  1.00  0.00     0.112 C 
HETATM   19  C12         0      61.995  47.337 -20.999  1.00  0.00     0.028 C 
BRANCH  17  20
HETATM   20  O9          0      60.570  50.504 -20.025  1.00  0.00    -0.357 OA
HETATM   21  H9          0      59.639  50.376 -20.166  1.00  0.00     0.218 HD
ENDBRANCH  17  20
BRANCH  18  22
HETATM   22  O11         0      59.877  47.781 -19.893  1.00  0.00    -0.357 OA
HETATM   23  H11         0      59.415  47.229 -20.515  1.00  0.00     0.218 HD
ENDBRANCH  18  22
ENDBRANCH   4  14
BRANCH   8  24
HETATM   24  O17         0      66.130  50.492 -27.043  1.00  0.00    -0.359 OA
HETATM   25  H17         0      66.919  50.961 -26.798  1.00  0.00     0.218 HD
ENDBRANCH   8  24
TORSDOF 5
ENDMDL
MODEL 5
REMARK VINA RESULT:      -0.1      3.021      6.758
REMARK  5 active torsions:
REMARK  status: ('A' for Active; 'I' for Inactive)
REMARK    1  A    between atoms: C4_4  and  C5_5 
REMARK    2  A    between atoms: C8_8  and  O9_9 
REMARK    3  A    between atoms: C10_11  and  O11_12 
REMARK    4  A    between atoms: C16_18  and  O17_19 
REMARK    5  A    between atoms: C19_22  and  O20_23 
ROOT
HETATM    1  O1          0      65.943  48.846 -23.784  1.00  0.00    -0.286 OA
HETATM    2  C2          0      65.076  48.036 -24.213  1.00  0.00     0.201 C 
HETATM    3  C3          0      63.715  48.273 -24.117  1.00  0.00     0.067 C 
HETATM    4  C4          0      62.780  47.320 -24.503  1.00  0.00     0.103 C 
HETATM    5  O13         0      63.211  46.169 -24.990  1.00  0.00    -0.307 OA
HETATM    6  C14         0      64.491  45.878 -25.067  1.00  0.00     0.107 C 
HETATM    7  C15         0      64.937  44.570 -25.189  1.00  0.00     0.049 C 
HETATM    8  C16         0      66.277  44.245 -25.014  1.00  0.00     0.093 C 
HETATM    9  C18         0      67.168  45.286 -25.247  1.00  0.00     0.048 C 
HETATM   10  C19         0      66.744  46.606 -25.179  1.00  0.00     0.096 C 
HETATM   11  C21         0      65.435  46.885 -24.898  1.00  0.00     0.084 C 
ENDROOT
BRANCH  10  12
HETATM   12  O20         0      67.684  47.613 -24.978  1.00  0.00    -0.359 OA
HETATM   13  H20         0      68.584  47.437 -25.223  1.00  0.00     0.218 HD
ENDBRANCH  10  12
BRANCH   4  14
HETATM   14  C5          0      61.471  47.362 -23.849  1.00  0.00     0.025 C 
HETATM   15  C6          0      60.731  46.221 -23.572  1.00  0.00     0.004 C 
HETATM   16  C7          0      60.028  46.185 -22.373  1.00  0.00     0.026 C 
HETATM   17  C8          0      59.952  47.294 -21.537  1.00  0.00     0.112 C 
HETATM   18  C10         0      60.162  48.512 -22.170  1.00  0.00     0.112 C 
HETATM   19  C12         0      60.940  48.532 -23.322  1.00  0.00     0.028 C 
BRANCH  17  20
HETATM   20  O9          0      59.885  47.144 -20.163  1.00  0.00    -0.357 OA
HETATM   21  H9          0      60.250  46.401 -19.695  1.00  0.00     0.218 HD
ENDBRANCH  17  20
BRANCH  18  22
HETATM   22  O11         0      59.912  49.657 -21.428  1.00  0.00    -0.357 OA
HETATM   23  H11         0      59.178  49.627 -20.825  1.00  0.00     0.218 HD
ENDBRANCH  18  22
ENDBRANCH   4  14
BRANCH   8  24
HETATM   24  O17         0      66.663  43.083 -24.338  1.00  0.00    -0.359 OA
HETATM   25  H17         0      67.445  42.601 -24.580  1.00  0.00     0.218 HD
ENDBRANCH   8  24
TORSDOF 5
ENDMDL
MODEL 6
REMARK VINA RESULT:      -0.1      4.194      8.439
REMARK  5 active torsions:
REMARK  status: ('A' for Active; 'I' for Inactive)
REMARK    1  A    between atoms: C4_4  and  C5_5 
REMARK    2  A    between atoms: C8_8  and  O9_9 
REMARK    3  A    between atoms: C10_11  and  O11_12 
REMARK    4  A    between atoms: C16_18  and  O17_19 
REMARK    5  A    between atoms: C19_22  and  O20_23 
ROOT
HETATM    1  O1          0      62.485  54.964 -26.418  1.00  0.00    -0.286 OA
HETATM    2  C2          0      62.225  53.748 -26.203  1.00  0.00     0.201 C 
HETATM    3  C3          0      61.201  53.336 -25.368  1.00  0.00     0.067 C 
HETATM    4  C4          0      61.000  51.994 -25.068  1.00  0.00     0.103 C 
HETATM    5  O13         0      61.800  51.095 -25.615  1.00  0.00    -0.307 OA
HETATM    6  C14         0      62.811  51.435 -26.385  1.00  0.00     0.107 C 
HETATM    7  C15         0      63.867  50.570 -26.629  1.00  0.00     0.049 C 
HETATM    8  C16         0      65.041  51.014 -27.225  1.00  0.00     0.093 C 
HETATM    9  C18         0      64.906  52.151 -28.012  1.00  0.00     0.048 C 
HETATM   10  C19         0      63.835  53.015 -27.826  1.00  0.00     0.096 C 
HETATM   11  C21         0      62.896  52.735 -26.871  1.00  0.00     0.084 C 
ENDROOT
BRANCH  10  12
HETATM   12  O20         0      63.930  54.325 -28.283  1.00  0.00    -0.359 OA
HETATM   13  H20         0      64.057  54.464 -29.214  1.00  0.00     0.218 HD
ENDBRANCH  10  12
BRANCH   4  14
HETATM   14  C5          0      60.359  51.681 -23.790  1.00  0.00     0.025 C 
HETATM   15  C6          0      60.284  50.392 -23.282  1.00  0.00     0.004 C 
HETATM   16  C7          0      60.442  50.230 -21.909  1.00  0.00     0.026 C 
HETATM   17  C8          0      60.539  51.321 -21.052  1.00  0.00     0.112 C 
HETATM   18  C10         0      59.982  52.495 -21.543  1.00  0.00     0.112 C 
HETATM   19  C12         0      59.913  52.668 -22.920  1.00  0.00     0.028 C 
BRANCH  17  20
HETATM   20  O9          0      61.318  51.259 -19.910  1.00  0.00    -0.357 OA
HETATM   21  H9          0      61.399  50.483 -19.368  1.00  0.00     0.218 HD
ENDBRANCH  17  20
BRANCH  18  22
HETATM   22  O11         0      59.881  53.560 -20.659  1.00  0.00    -0.357 OA
HETATM   23  H11         0      60.507  54.267 -20.765  1.00  0.00     0.218 HD
ENDBRANCH  18  22
ENDBRANCH   4  14
BRANCH   8  24
HETATM   24  O17         0      66.294  50.561 -26.796  1.00  0.00    -0.359 OA
HETATM   25  H17         0      67.011  50.427 -27.404  1.00  0.00     0.218 HD
ENDBRANCH   8  24
TORSDOF 5
ENDMDL
MODEL 7
REMARK VINA RESULT:      -0.1      3.883      5.287
REMARK  5 active torsions:
REMARK  status: ('A' for Active; 'I' for Inactive)
REMARK    1  A    between atoms: C4_4  and  C5_5 
REMARK    2  A    between atoms: C8_8  and  O9_9 
REMARK    3  A    between atoms: C10_11  and  O11_12 
REMARK    4  A    between atoms: C16_18  and  O17_19 
REMARK    5  A    between atoms: C19_22  and  O20_23 
ROOT
HETATM    1  O1          0      62.861  47.711 -25.056  1.00  0.00    -0.286 OA
HETATM    2  C2          0      62.123  48.643 -24.632  1.00  0.00     0.201 C 
HETATM    3  C3          0      62.250  49.954 -25.058  1.00  0.00     0.067 C 
HETATM    4  C4          0      61.495  50.978 -24.499  1.00  0.00     0.103 C 
HETATM    5  O13         0      60.623  50.680 -23.552  1.00  0.00    -0.307 OA
HETATM    6  C14         0      60.489  49.458 -23.085  1.00  0.00     0.107 C 
HETATM    7  C15         0      59.895  49.206 -21.857  1.00  0.00     0.049 C 
HETATM    8  C16         0      59.983  47.956 -21.255  1.00  0.00     0.093 C 
HETATM    9  C18         0      60.199  46.898 -22.130  1.00  0.00     0.048 C 
HETATM   10  C19         0      60.749  47.120 -23.385  1.00  0.00     0.096 C 
HETATM   11  C21         0      61.065  48.394 -23.771  1.00  0.00     0.084 C 
ENDROOT
BRANCH  10  12
HETATM   12  O20         0      61.354  46.065 -24.059  1.00  0.00    -0.359 OA
HETATM   13  H20         0      60.888  45.678 -24.791  1.00  0.00     0.218 HD
ENDBRANCH  10  12
BRANCH   4  14
HETATM   14  C5          0      62.066  52.326 -24.532  1.00  0.00     0.025 C 
HETATM   15  C6          0      61.884  53.245 -23.508  1.00  0.00     0.004 C 
HETATM   16  C7          0      62.961  54.061 -23.177  1.00  0.00     0.026 C 
HETATM   17  C8          0      64.134  54.060 -23.923  1.00  0.00     0.112 C 
HETATM   18  C10         0      63.989  53.617 -25.231  1.00  0.00     0.112 C 
HETATM   19  C12         0      62.954  52.734 -25.518  1.00  0.00     0.028 C 
BRANCH  17  20
HETATM   20  O9          0      65.359  54.283 -23.320  1.00  0.00    -0.357 OA
HETATM   21  H9          0      65.499  54.248 -22.380  1.00  0.00     0.218 HD
ENDBRANCH  17  20
BRANCH  18  22
HETATM   22  O11         0      65.081  53.773 -26.073  1.00  0.00    -0.357 OA
HETATM   23  H11         0      64.952  54.305 -26.850  1.00  0.00     0.218 HD
ENDBRANCH  18  22
ENDBRANCH   4  14
BRANCH   8  24
HETATM   24  O17         0      60.180  47.823 -19.876  1.00  0.00    -0.359 OA
HETATM   25  H17         0      60.564  48.520 -19.357  1.00  0.00     0.218 HD
ENDBRANCH   8  24
TORSDOF 5
ENDMDL
MODEL 8
REMARK VINA RESULT:      -0.1      3.118      7.459
REMARK  5 active torsions:
REMARK  status: ('A' for Active; 'I' for Inactive)
REMARK    1  A    between atoms: C4_4  and  C5_5 
REMARK    2  A    between atoms: C8_8  and  O9_9 
REMARK    3  A    between atoms: C10_11  and  O11_12 
REMARK    4  A    between atoms: C16_18  and  O17_19 
REMARK    5  A    between atoms: C19_22  and  O20_23 
ROOT
HETATM    1  O1          0      66.119  50.047 -24.561  1.00  0.00    -0.286 OA
HETATM    2  C2          0      64.973  50.455 -24.895  1.00  0.00     0.201 C 
HETATM    3  C3          0      63.969  50.705 -23.975  1.00  0.00     0.067 C 
HETATM    4  C4          0      62.684  51.055 -24.376  1.00  0.00     0.103 C 
HETATM    5  O13         0      62.432  51.169 -25.668  1.00  0.00    -0.307 OA
HETATM    6  C14         0      63.338  50.907 -26.583  1.00  0.00     0.107 C 
HETATM    7  C15         0      62.991  50.634 -27.899  1.00  0.00     0.049 C 
HETATM    8  C16         0      63.916  50.112 -28.796  1.00  0.00     0.093 C 
HETATM    9  C18         0      65.245  50.379 -28.491  1.00  0.00     0.048 C 
HETATM   10  C19         0      65.620  50.701 -27.193  1.00  0.00     0.096 C 
HETATM   11  C21         0      64.671  50.772 -26.210  1.00  0.00     0.084 C 
ENDROOT
BRANCH  10  12
HETATM   12  O20         0      66.947  50.537 -26.809  1.00  0.00    -0.359 OA
HETATM   13  H20         0      67.213  49.689 -26.475  1.00  0.00     0.218 HD
ENDBRANCH  10  12
BRANCH   4  14
HETATM   14  C5          0      61.585  50.719 -23.470  1.00  0.00     0.025 C 
HETATM   15  C6          0      60.435  50.066 -23.891  1.00  0.00     0.004 C 
HETATM   16  C7          0      59.881  49.120 -23.036  1.00  0.00     0.026 C 
HETATM   17  C8          0      60.371  48.924 -21.749  1.00  0.00     0.112 C 
HETATM   18  C10         0      61.056  50.009 -21.218  1.00  0.00     0.112 C 
HETATM   19  C12         0      61.674  50.893 -22.094  1.00  0.00     0.028 C 
BRANCH  17  20
HETATM   20  O9          0      60.345  47.670 -21.164  1.00  0.00    -0.357 OA
HETATM   21  H9          0      59.766  47.433 -20.449  1.00  0.00     0.218 HD
ENDBRANCH  17  20
BRANCH  18  22
HETATM   22  O11         0      61.401  49.938 -19.876  1.00  0.00    -0.357 OA
HETATM   23  H11         0      60.707  49.717 -19.265  1.00  0.00     0.218 HD
ENDBRANCH  18  22
ENDBRANCH   4  14
BRANCH   8  24
HETATM   24  O17         0      63.557  49.126 -29.721  1.00  0.00    -0.359 OA
HETATM   25  H17         0      64.206  48.566 -30.131  1.00  0.00     0.218 HD
ENDBRANCH   8  24
TORSDOF 5
ENDMDL
MODEL 9
REMARK VINA RESULT:      -0.0      3.987      7.099
REMARK  5 active torsions:
REMARK  status: ('A' for Active; 'I' for Inactive)
REMARK    1  A    between atoms: C4_4  and  C5_5 
REMARK    2  A    between atoms: C8_8  and  O9_9 
REMARK    3  A    between atoms: C10_11  and  O11_12 
REMARK    4  A    between atoms: C16_18  and  O17_19 
REMARK    5  A    between atoms: C19_22  and  O20_23 
ROOT
HETATM    1  O1          0      63.430  45.234 -22.871  1.00  0.00    -0.286 OA
HETATM    2  C2          0      64.098  46.172 -22.357  1.00  0.00     0.201 C 
HETATM    3  C3          0      63.584  47.016 -21.387  1.00  0.00     0.067 C 
HETATM    4  C4          0      64.306  48.105 -20.911  1.00  0.00     0.103 C 
HETATM    5  O13         0      65.520  48.319 -21.388  1.00  0.00    -0.307 OA
HETATM    6  C14         0      66.040  47.570 -22.336  1.00  0.00     0.107 C 
HETATM    7  C15         0      67.107  48.007 -23.109  1.00  0.00     0.049 C 
HETATM    8  C16         0      67.486  47.332 -24.263  1.00  0.00     0.093 C 
HETATM    9  C18         0      67.131  45.989 -24.300  1.00  0.00     0.048 C 
HETATM   10  C19         0      66.099  45.509 -23.505  1.00  0.00     0.096 C 
HETATM   11  C21         0      65.437  46.362 -22.665  1.00  0.00     0.084 C 
ENDROOT
BRANCH  10  12
HETATM   12  O20         0      65.472  44.316 -23.851  1.00  0.00    -0.359 OA
HETATM   13  H20         0      64.535  44.250 -23.715  1.00  0.00     0.218 HD
ENDBRANCH  10  12
BRANCH   4  14
HETATM   14  C5          0      63.542  49.241 -20.394  1.00  0.00     0.025 C 
HETATM   15  C6          0      63.973  50.554 -20.513  1.00  0.00     0.004 C 
HETATM   16  C7          0      63.014  51.527 -20.775  1.00  0.00     0.026 C 
HETATM   17  C8          0      61.655  51.228 -20.785  1.00  0.00     0.112 C 
HETATM   18  C10         0      61.305  50.100 -20.055  1.00  0.00     0.112 C 
HETATM   19  C12         0      62.258  49.104 -19.881  1.00  0.00     0.028 C 
BRANCH  17  20
HETATM   20  O9          0      60.789  51.893 -21.634  1.00  0.00    -0.357 OA
HETATM   21  H9          0      59.918  52.177 -21.383  1.00  0.00     0.218 HD
ENDBRANCH  17  20
BRANCH  18  22
HETATM   22  O11         0      59.950  49.864 -19.875  1.00  0.00    -0.357 OA
HETATM   23  H11         0      59.361  50.211 -20.536  1.00  0.00     0.218 HD
ENDBRANCH  18  22
ENDBRANCH   4  14
BRANCH   8  24
HETATM   24  O17         0      67.879  48.021 -25.415  1.00  0.00    -0.359 OA
HETATM   25  H17         0      67.708  47.679 -26.285  1.00  0.00     0.218 HD
ENDBRANCH   8  24
TORSDOF 5
ENDMDL
