MODEL 1
REMARK VINA RESULT:      -8.3      0.000      0.000
REMARK  5 active torsions:
REMARK  status: ('A' for Active; 'I' for Inactive)
REMARK    1  A    between atoms: C4_4  and  C5_5 
REMARK    2  A    between atoms: C8_8  and  O9_9 
REMARK    3  A    between atoms: C10_11  and  O11_12 
REMARK    4  A    between atoms: C16_18  and  O17_19 
REMARK    5  A    between atoms: C19_22  and  O20_23 
ROOT
HETATM    1  O1          0      53.435  37.654  24.291  1.00  0.00    -0.286 OA
HETATM    2  C2          0      54.693  37.756  24.307  1.00  0.00     0.201 C 
HETATM    3  C3          0      55.500  37.239  23.308  1.00  0.00     0.067 C 
HETATM    4  C4          0      56.887  37.274  23.401  1.00  0.00     0.103 C 
HETATM    5  O13         0      57.438  37.836  24.462  1.00  0.00    -0.307 OA
HETATM    6  C14         0      56.718  38.308  25.456  1.00  0.00     0.107 C 
HETATM    7  C15         0      57.261  38.524  26.715  1.00  0.00     0.049 C 
HETATM    8  C16         0      56.453  38.776  27.816  1.00  0.00     0.093 C 
HETATM    9  C18         0      55.207  39.315  27.519  1.00  0.00     0.048 C 
HETATM   10  C19         0      54.654  39.159  26.255  1.00  0.00     0.096 C 
HETATM   11  C21         0      55.348  38.483  25.289  1.00  0.00     0.084 C 
ENDROOT
BRANCH  10  12
HETATM   12  O20         0      53.280  39.301  26.091  1.00  0.00    -0.359 OA
HETATM   13  H20         0      52.965  39.683  25.281  1.00  0.00     0.218 HD
ENDBRANCH  10  12
BRANCH   4  14
HETATM   14  C5          0      57.632  36.238  22.685  1.00  0.00     0.025 C 
HETATM   15  C6          0      58.964  35.952  22.948  1.00  0.00     0.004 C 
HETATM   16  C7          0      59.357  34.618  22.909  1.00  0.00     0.026 C 
HETATM   17  C8          0      58.490  33.614  22.491  1.00  0.00     0.112 C 
HETATM   18  C10         0      57.453  34.046  21.675  1.00  0.00     0.112 C 
HETATM   19  C12         0      57.023  35.362  21.795  1.00  0.00     0.028 C 
BRANCH  17  20
HETATM   20  O9          0      58.561  32.344  23.035  1.00  0.00    -0.357 OA
HETATM   21  H9          0      57.816  31.887  23.408  1.00  0.00     0.218 HD
ENDBRANCH  17  20
BRANCH  18  22
HETATM   22  O11         0      56.672  33.066  21.078  1.00  0.00    -0.357 OA
HETATM   23  H11         0      56.422  32.327  21.620  1.00  0.00     0.218 HD
ENDBRANCH  18  22
ENDBRANCH   4  14
BRANCH   8  24
HETATM   24  O17         0      56.734  38.221  29.070  1.00  0.00    -0.359 OA
HETATM   25  H17         0      57.321  37.481  29.167  1.00  0.00     0.218 HD
ENDBRANCH   8  24
TORSDOF 5
ENDMDL
MODEL 2
REMARK VINA RESULT:      -8.2      1.826      2.990
REMARK  5 active torsions:
REMARK  status: ('A' for Active; 'I' for Inactive)
REMARK    1  A    between atoms: C4_4  and  C5_5 
REMARK    2  A    between atoms: C8_8  and  O9_9 
REMARK    3  A    between atoms: C10_11  and  O11_12 
REMARK    4  A    between atoms: C16_18  and  O17_19 
REMARK    5  A    between atoms: C19_22  and  O20_23 
ROOT
HETATM    1  O1          0      59.163  39.384  27.043  1.00  0.00    -0.286 OA
HETATM    2  C2          0      58.305  38.502  26.762  1.00  0.00     0.201 C 
HETATM    3  C3          0      58.581  37.423  25.940  1.00  0.00     0.067 C 
HETATM    4  C4          0      57.591  36.522  25.564  1.00  0.00     0.103 C 
HETATM    5  O13         0      56.365  36.698  26.023  1.00  0.00    -0.307 OA
HETATM    6  C14         0      56.041  37.727  26.775  1.00  0.00     0.107 C 
HETATM    7  C15         0      54.724  38.137  26.925  1.00  0.00     0.049 C 
HETATM    8  C16         0      54.411  39.361  27.504  1.00  0.00     0.093 C 
HETATM    9  C18         0      55.377  39.867  28.366  1.00  0.00     0.048 C 
HETATM   10  C19         0      56.696  39.443  28.274  1.00  0.00     0.096 C 
HETATM   11  C21         0      57.045  38.507  27.339  1.00  0.00     0.084 C 
ENDROOT
BRANCH  10  12
HETATM   12  O20         0      57.704  40.238  28.810  1.00  0.00    -0.359 OA
HETATM   13  H20         0      57.913  40.132  29.730  1.00  0.00     0.218 HD
ENDBRANCH  10  12
BRANCH   4  14
HETATM   14  C5          0      57.774  35.819  24.293  1.00  0.00     0.025 C 
HETATM   15  C6          0      58.706  36.212  23.343  1.00  0.00     0.004 C 
HETATM   16  C7          0      59.384  35.212  22.653  1.00  0.00     0.026 C 
HETATM   17  C8          0      59.053  33.869  22.803  1.00  0.00     0.112 C 
HETATM   18  C10         0      57.758  33.637  23.246  1.00  0.00     0.112 C 
HETATM   19  C12         0      57.134  34.620  24.007  1.00  0.00     0.028 C 
BRANCH  17  20
HETATM   20  O9          0      60.023  32.886  22.716  1.00  0.00    -0.357 OA
HETATM   21  H9          0      59.932  32.020  23.096  1.00  0.00     0.218 HD
ENDBRANCH  17  20
BRANCH  18  22
HETATM   22  O11         0      57.315  32.322  23.233  1.00  0.00    -0.357 OA
HETATM   23  H11         0      57.086  31.937  24.071  1.00  0.00     0.218 HD
ENDBRANCH  18  22
ENDBRANCH   4  14
BRANCH   8  24
HETATM   24  O17         0      53.381  40.164  27.001  1.00  0.00    -0.359 OA
HETATM   25  H17         0      52.695  39.807  26.450  1.00  0.00     0.218 HD
ENDBRANCH   8  24
TORSDOF 5
ENDMDL
MODEL 3
REMARK VINA RESULT:      -8.0      2.583      7.557
REMARK  5 active torsions:
REMARK  status: ('A' for Active; 'I' for Inactive)
REMARK    1  A    between atoms: C4_4  and  C5_5 
REMARK    2  A    between atoms: C8_8  and  O9_9 
REMARK    3  A    between atoms: C10_11  and  O11_12 
REMARK    4  A    between atoms: C16_18  and  O17_19 
REMARK    5  A    between atoms: C19_22  and  O20_23 
ROOT
HETATM    1  O1          0      59.246  37.653  25.917  1.00  0.00    -0.286 OA
HETATM    2  C2          0      58.251  38.418  25.780  1.00  0.00     0.201 C 
HETATM    3  C3          0      57.894  39.361  26.729  1.00  0.00     0.067 C 
HETATM    4  C4          0      56.736  40.119  26.601  1.00  0.00     0.103 C 
HETATM    5  O13         0      55.975  39.942  25.535  1.00  0.00    -0.307 OA
HETATM    6  C14         0      56.249  39.034  24.624  1.00  0.00     0.107 C 
HETATM    7  C15         0      55.284  38.570  23.742  1.00  0.00     0.049 C 
HETATM    8  C16         0      55.504  37.442  22.961  1.00  0.00     0.093 C 
HETATM    9  C18         0      56.840  37.152  22.712  1.00  0.00     0.048 C 
HETATM   10  C19         0      57.835  37.640  23.548  1.00  0.00     0.096 C 
HETATM   11  C21         0      57.500  38.427  24.615  1.00  0.00     0.084 C 
ENDROOT
BRANCH  10  12
HETATM   12  O20         0      59.078  37.013  23.564  1.00  0.00    -0.359 OA
HETATM   13  H20         0      59.707  37.255  22.895  1.00  0.00     0.218 HD
ENDBRANCH  10  12
BRANCH   4  14
HETATM   14  C5          0      56.117  40.610  27.835  1.00  0.00     0.025 C 
HETATM   15  C6          0      56.854  40.969  28.954  1.00  0.00     0.004 C 
HETATM   16  C7          0      56.426  42.076  29.680  1.00  0.00     0.026 C 
HETATM   17  C8          0      55.231  42.723  29.385  1.00  0.00     0.112 C 
HETATM   18  C10         0      54.300  41.944  28.712  1.00  0.00     0.112 C 
HETATM   19  C12         0      54.761  40.896  27.925  1.00  0.00     0.028 C 
BRANCH  17  20
HETATM   20  O9          0      55.100  44.088  29.570  1.00  0.00    -0.357 OA
HETATM   21  H9          0      55.826  44.664  29.782  1.00  0.00     0.218 HD
ENDBRANCH  17  20
BRANCH  18  22
HETATM   22  O11         0      53.027  42.476  28.561  1.00  0.00    -0.357 OA
HETATM   23  H11         0      52.915  43.139  27.889  1.00  0.00     0.218 HD
ENDBRANCH  18  22
ENDBRANCH   4  14
BRANCH   8  24
HETATM   24  O17         0      54.492  36.501  22.737  1.00  0.00    -0.359 OA
HETATM   25  H17         0      54.018  36.098  23.454  1.00  0.00     0.218 HD
ENDBRANCH   8  24
TORSDOF 5
ENDMDL
MODEL 4
REMARK VINA RESULT:      -7.9      2.852      5.085
REMARK  5 active torsions:
REMARK  status: ('A' for Active; 'I' for Inactive)
REMARK    1  A    between atoms: C4_4  and  C5_5 
REMARK    2  A    between atoms: C8_8  and  O9_9 
REMARK    3  A    between atoms: C10_11  and  O11_12 
REMARK    4  A    between atoms: C16_18  and  O17_19 
REMARK    5  A    between atoms: C19_22  and  O20_23 
ROOT
HETATM    1  O1          0      59.581  40.844  27.573  1.00  0.00    -0.286 OA
HETATM    2  C2          0      58.361  40.542  27.467  1.00  0.00     0.201 C 
HETATM    3  C3          0      57.872  39.732  26.457  1.00  0.00     0.067 C 
HETATM    4  C4          0      56.510  39.499  26.304  1.00  0.00     0.103 C 
HETATM    5  O13         0      55.671  40.053  27.161  1.00  0.00    -0.307 OA
HETATM    6  C14         0      56.079  40.860  28.116  1.00  0.00     0.107 C 
HETATM    7  C15         0      55.213  41.741  28.748  1.00  0.00     0.049 C 
HETATM    8  C16         0      55.689  42.759  29.565  1.00  0.00     0.093 C 
HETATM    9  C18         0      56.940  42.528  30.123  1.00  0.00     0.048 C 
HETATM   10  C19         0      57.814  41.618  29.543  1.00  0.00     0.096 C 
HETATM   11  C21         0      57.434  40.931  28.422  1.00  0.00     0.084 C 
ENDROOT
BRANCH  10  12
HETATM   12  O20         0      59.174  41.707  29.823  1.00  0.00    -0.359 OA
HETATM   13  H20         0      59.729  40.978  29.574  1.00  0.00     0.218 HD
ENDBRANCH  10  12
BRANCH   4  14
HETATM   14  C5          0      56.033  39.179  24.957  1.00  0.00     0.025 C 
HETATM   15  C6          0      56.889  38.975  23.885  1.00  0.00     0.004 C 
HETATM   16  C7          0      56.555  37.976  22.975  1.00  0.00     0.026 C 
HETATM   17  C8          0      55.345  37.294  23.052  1.00  0.00     0.112 C 
HETATM   18  C10         0      54.337  37.975  23.720  1.00  0.00     0.112 C 
HETATM   19  C12         0      54.698  38.908  24.686  1.00  0.00     0.028 C 
BRANCH  17  20
HETATM   20  O9          0      55.255  35.967  22.672  1.00  0.00    -0.357 OA
HETATM   21  H9          0      54.437  35.536  22.449  1.00  0.00     0.218 HD
ENDBRANCH  17  20
BRANCH  18  22
HETATM   22  O11         0      53.063  37.428  23.663  1.00  0.00    -0.357 OA
HETATM   23  H11         0      52.815  36.842  24.368  1.00  0.00     0.218 HD
ENDBRANCH  18  22
ENDBRANCH   4  14
BRANCH   8  24
HETATM   24  O17         0      55.116  44.036  29.549  1.00  0.00    -0.359 OA
HETATM   25  H17         0      54.694  44.403  30.316  1.00  0.00     0.218 HD
ENDBRANCH   8  24
TORSDOF 5
ENDMDL
MODEL 5
REMARK VINA RESULT:      -7.9      2.466      6.986
REMARK  5 active torsions:
REMARK  status: ('A' for Active; 'I' for Inactive)
REMARK    1  A    between atoms: C4_4  and  C5_5 
REMARK    2  A    between atoms: C8_8  and  O9_9 
REMARK    3  A    between atoms: C10_11  and  O11_12 
REMARK    4  A    between atoms: C16_18  and  O17_19 
REMARK    5  A    between atoms: C19_22  and  O20_23 
ROOT
HETATM    1  O1          0      54.118  38.749  23.378  1.00  0.00    -0.286 OA
HETATM    2  C2          0      54.769  38.501  24.430  1.00  0.00     0.201 C 
HETATM    3  C3          0      54.318  38.850  25.691  1.00  0.00     0.067 C 
HETATM    4  C4          0      55.102  38.658  26.824  1.00  0.00     0.103 C 
HETATM    5  O13         0      56.296  38.110  26.684  1.00  0.00    -0.307 OA
HETATM    6  C14         0      56.787  37.795  25.505  1.00  0.00     0.107 C 
HETATM    7  C15         0      58.147  37.605  25.307  1.00  0.00     0.049 C 
HETATM    8  C16         0      58.686  37.526  24.029  1.00  0.00     0.093 C 
HETATM    9  C18         0      57.797  37.118  23.041  1.00  0.00     0.048 C 
HETATM   10  C19         0      56.428  37.250  23.226  1.00  0.00     0.096 C 
HETATM   11  C21         0      55.948  37.772  24.396  1.00  0.00     0.084 C 
ENDROOT
BRANCH  10  12
HETATM   12  O20         0      55.589  37.260  22.116  1.00  0.00    -0.359 OA
HETATM   13  H20         0      54.652  37.240  22.265  1.00  0.00     0.218 HD
ENDBRANCH  10  12
BRANCH   4  14
HETATM   14  C5          0      54.863  39.548  27.962  1.00  0.00     0.025 C 
HETATM   15  C6          0      55.802  39.757  28.962  1.00  0.00     0.004 C 
HETATM   16  C7          0      55.918  41.044  29.477  1.00  0.00     0.026 C 
HETATM   17  C8          0      55.042  42.059  29.109  1.00  0.00     0.112 C 
HETATM   18  C10         0      53.812  41.620  28.635  1.00  0.00     0.112 C 
HETATM   19  C12         0      53.742  40.363  28.047  1.00  0.00     0.028 C 
BRANCH  17  20
HETATM   20  O9          0      55.470  43.373  29.032  1.00  0.00    -0.357 OA
HETATM   21  H9          0      54.888  44.111  28.893  1.00  0.00     0.218 HD
ENDBRANCH  17  20
BRANCH  18  22
HETATM   22  O11         0      52.836  42.585  28.433  1.00  0.00    -0.357 OA
HETATM   23  H11         0      51.936  42.283  28.386  1.00  0.00     0.218 HD
ENDBRANCH  18  22
ENDBRANCH   4  14
BRANCH   8  24
HETATM   24  O17         0      59.909  38.129  23.714  1.00  0.00    -0.359 OA
HETATM   25  H17         0      60.123  38.390  22.826  1.00  0.00     0.218 HD
ENDBRANCH   8  24
TORSDOF 5
ENDMDL
MODEL 6
REMARK VINA RESULT:      -7.8      1.858      2.012
REMARK  5 active torsions:
REMARK  status: ('A' for Active; 'I' for Inactive)
REMARK    1  A    between atoms: C4_4  and  C5_5 
REMARK    2  A    between atoms: C8_8  and  O9_9 
REMARK    3  A    between atoms: C10_11  and  O11_12 
REMARK    4  A    between atoms: C16_18  and  O17_19 
REMARK    5  A    between atoms: C19_22  and  O20_23 
ROOT
HETATM    1  O1          0      56.264  39.421  23.370  1.00  0.00    -0.286 OA
HETATM    2  C2          0      57.117  38.580  23.768  1.00  0.00     0.201 C 
HETATM    3  C3          0      57.629  37.587  22.951  1.00  0.00     0.067 C 
HETATM    4  C4          0      58.489  36.611  23.442  1.00  0.00     0.103 C 
HETATM    5  O13         0      58.835  36.653  24.716  1.00  0.00    -0.307 OA
HETATM    6  C14         0      58.349  37.552  25.544  1.00  0.00     0.107 C 
HETATM    7  C15         0      58.380  37.373  26.919  1.00  0.00     0.049 C 
HETATM    8  C16         0      57.647  38.191  27.771  1.00  0.00     0.093 C 
HETATM    9  C18         0      57.346  39.448  27.262  1.00  0.00     0.048 C 
HETATM   10  C19         0      57.351  39.675  25.892  1.00  0.00     0.096 C 
HETATM   11  C21         0      57.671  38.656  25.037  1.00  0.00     0.084 C 
ENDROOT
BRANCH  10  12
HETATM   12  O20         0      56.648  40.760  25.379  1.00  0.00    -0.359 OA
HETATM   13  H20         0      56.939  41.131  24.555  1.00  0.00     0.218 HD
ENDBRANCH  10  12
BRANCH   4  14
HETATM   14  C5          0      58.502  35.321  22.751  1.00  0.00     0.025 C 
HETATM   15  C6          0      59.261  34.243  23.184  1.00  0.00     0.004 C 
HETATM   16  C7          0      58.700  32.975  23.076  1.00  0.00     0.026 C 
HETATM   17  C8          0      57.482  32.767  22.437  1.00  0.00     0.112 C 
HETATM   18  C10         0      57.135  33.749  21.519  1.00  0.00     0.112 C 
HETATM   19  C12         0      57.642  35.031  21.699  1.00  0.00     0.028 C 
BRANCH  17  20
HETATM   20  O9          0      56.620  31.772  22.862  1.00  0.00    -0.357 OA
HETATM   21  H9          0      56.317  31.683  23.758  1.00  0.00     0.218 HD
ENDBRANCH  17  20
BRANCH  18  22
HETATM   22  O11         0      56.028  33.499  20.720  1.00  0.00    -0.357 OA
HETATM   23  H11         0      55.372  34.184  20.668  1.00  0.00     0.218 HD
ENDBRANCH  18  22
ENDBRANCH   4  14
BRANCH   8  24
HETATM   24  O17         0      56.985  37.672  28.889  1.00  0.00    -0.359 OA
HETATM   25  H17         0      56.350  36.970  28.812  1.00  0.00     0.218 HD
ENDBRANCH   8  24
TORSDOF 5
ENDMDL
MODEL 7
REMARK VINA RESULT:      -7.8      2.533      4.154
REMARK  5 active torsions:
REMARK  status: ('A' for Active; 'I' for Inactive)
REMARK    1  A    between atoms: C4_4  and  C5_5 
REMARK    2  A    between atoms: C8_8  and  O9_9 
REMARK    3  A    between atoms: C10_11  and  O11_12 
REMARK    4  A    between atoms: C16_18  and  O17_19 
REMARK    5  A    between atoms: C19_22  and  O20_23 
ROOT
HETATM    1  O1          0      56.332  42.182  27.520  1.00  0.00    -0.286 OA
HETATM    2  C2          0      55.894  41.002  27.426  1.00  0.00     0.201 C 
HETATM    3  C3          0      56.631  39.971  26.867  1.00  0.00     0.067 C 
HETATM    4  C4          0      56.087  38.705  26.682  1.00  0.00     0.103 C 
HETATM    5  O13         0      54.843  38.485  27.071  1.00  0.00    -0.307 OA
HETATM    6  C14         0      54.089  39.438  27.573  1.00  0.00     0.107 C 
HETATM    7  C15         0      52.706  39.334  27.607  1.00  0.00     0.049 C 
HETATM    8  C16         0      51.906  40.433  27.897  1.00  0.00     0.093 C 
HETATM    9  C18         0      52.525  41.429  28.642  1.00  0.00     0.048 C 
HETATM   10  C19         0      53.909  41.533  28.667  1.00  0.00     0.096 C 
HETATM   11  C21         0      54.671  40.638  27.967  1.00  0.00     0.084 C 
ENDROOT
BRANCH  10  12
HETATM   12  O20         0      54.494  42.743  29.031  1.00  0.00    -0.359 OA
HETATM   13  H20         0      55.434  42.831  28.931  1.00  0.00     0.218 HD
ENDBRANCH  10  12
BRANCH   4  14
HETATM   14  C5          0      56.642  37.889  25.601  1.00  0.00     0.025 C 
HETATM   15  C6          0      57.812  37.156  25.736  1.00  0.00     0.004 C 
HETATM   16  C7          0      57.862  35.905  25.130  1.00  0.00     0.026 C 
HETATM   17  C8          0      56.837  35.452  24.305  1.00  0.00     0.112 C 
HETATM   18  C10         0      56.062  36.456  23.740  1.00  0.00     0.112 C 
HETATM   19  C12         0      55.961  37.669  24.410  1.00  0.00     0.028 C 
BRANCH  17  20
HETATM   20  O9          0      56.515  34.108  24.248  1.00  0.00    -0.357 OA
HETATM   21  H9          0      57.136  33.408  24.413  1.00  0.00     0.218 HD
ENDBRANCH  17  20
BRANCH  18  22
HETATM   22  O11         0      55.152  36.073  22.765  1.00  0.00    -0.357 OA
HETATM   23  H11         0      54.230  36.131  22.991  1.00  0.00     0.218 HD
ENDBRANCH  18  22
ENDBRANCH   4  14
BRANCH   8  24
HETATM   24  O17         0      50.707  40.663  27.212  1.00  0.00    -0.359 OA
HETATM   25  H17         0      50.360  40.036  26.589  1.00  0.00     0.218 HD
ENDBRANCH   8  24
TORSDOF 5
ENDMDL
MODEL 8
REMARK VINA RESULT:      -7.6      1.747      2.711
REMARK  5 active torsions:
REMARK  status: ('A' for Active; 'I' for Inactive)
REMARK    1  A    between atoms: C4_4  and  C5_5 
REMARK    2  A    between atoms: C8_8  and  O9_9 
REMARK    3  A    between atoms: C10_11  and  O11_12 
REMARK    4  A    between atoms: C16_18  and  O17_19 
REMARK    5  A    between atoms: C19_22  and  O20_23 
ROOT
HETATM    1  O1          0      56.257  40.753  26.357  1.00  0.00    -0.286 OA
HETATM    2  C2          0      56.122  39.521  26.121  1.00  0.00     0.201 C 
HETATM    3  C3          0      56.996  38.811  25.316  1.00  0.00     0.067 C 
HETATM    4  C4          0      56.767  37.479  24.990  1.00  0.00     0.103 C 
HETATM    5  O13         0      55.697  36.879  25.481  1.00  0.00    -0.307 OA
HETATM    6  C14         0      54.816  37.517  26.220  1.00  0.00     0.107 C 
HETATM    7  C15         0      53.527  37.036  26.400  1.00  0.00     0.049 C 
HETATM    8  C16         0      52.532  37.828  26.961  1.00  0.00     0.093 C 
HETATM    9  C18         0      52.990  38.851  27.782  1.00  0.00     0.048 C 
HETATM   10  C19         0      54.289  39.326  27.660  1.00  0.00     0.096 C 
HETATM   11  C21         0      55.131  38.770  26.736  1.00  0.00     0.084 C 
ENDROOT
BRANCH  10  12
HETATM   12  O20         0      54.600  40.591  28.148  1.00  0.00    -0.359 OA
HETATM   13  H20         0      54.374  41.342  27.612  1.00  0.00     0.218 HD
ENDBRANCH  10  12
BRANCH   4  14
HETATM   14  C5          0      57.331  36.992  23.729  1.00  0.00     0.025 C 
HETATM   15  C6          0      58.686  37.055  23.438  1.00  0.00     0.004 C 
HETATM   16  C7          0      59.248  35.983  22.752  1.00  0.00     0.026 C 
HETATM   17  C8          0      58.468  34.945  22.254  1.00  0.00     0.112 C 
HETATM   18  C10         0      57.136  35.275  22.036  1.00  0.00     0.112 C 
HETATM   19  C12         0      56.575  36.294  22.796  1.00  0.00     0.028 C 
BRANCH  17  20
HETATM   20  O9          0      58.959  33.653  22.196  1.00  0.00    -0.357 OA
HETATM   21  H9          0      58.729  33.031  21.515  1.00  0.00     0.218 HD
ENDBRANCH  17  20
BRANCH  18  22
HETATM   22  O11         0      56.359  34.340  21.366  1.00  0.00    -0.357 OA
HETATM   23  H11         0      55.659  34.677  20.819  1.00  0.00     0.218 HD
ENDBRANCH  18  22
ENDBRANCH   4  14
BRANCH   8  24
HETATM   24  O17         0      51.222  37.808  26.471  1.00  0.00    -0.359 OA
HETATM   25  H17         0      50.645  38.558  26.557  1.00  0.00     0.218 HD
ENDBRANCH   8  24
TORSDOF 5
ENDMDL
MODEL 9
REMARK VINA RESULT:      -7.5      2.005      3.559
REMARK  5 active torsions:
REMARK  status: ('A' for Active; 'I' for Inactive)
REMARK    1  A    between atoms: C4_4  and  C5_5 
REMARK    2  A    between atoms: C8_8  and  O9_9 
REMARK    3  A    between atoms: C10_11  and  O11_12 
REMARK    4  A    between atoms: C16_18  and  O17_19 
REMARK    5  A    between atoms: C19_22  and  O20_23 
ROOT
HETATM    1  O1          0      59.683  40.523  27.154  1.00  0.00    -0.286 OA
HETATM    2  C2          0      58.731  39.759  26.834  1.00  0.00     0.201 C 
HETATM    3  C3          0      58.834  38.813  25.828  1.00  0.00     0.067 C 
HETATM    4  C4          0      57.740  38.055  25.427  1.00  0.00     0.103 C 
HETATM    5  O13         0      56.584  38.234  26.041  1.00  0.00    -0.307 OA
HETATM    6  C14         0      56.423  39.144  26.976  1.00  0.00     0.107 C 
HETATM    7  C15         0      55.166  39.611  27.333  1.00  0.00     0.049 C 
HETATM    8  C16         0      55.015  40.740  28.128  1.00  0.00     0.093 C 
HETATM    9  C18         0      56.099  41.032  28.947  1.00  0.00     0.048 C 
HETATM   10  C19         0      57.363  40.542  28.644  1.00  0.00     0.096 C 
HETATM   11  C21         0      57.539  39.752  27.541  1.00  0.00     0.084 C 
ENDROOT
BRANCH  10  12
HETATM   12  O20         0      58.482  41.169  29.183  1.00  0.00    -0.359 OA
HETATM   13  H20         0      58.728  40.951  30.074  1.00  0.00     0.218 HD
ENDBRANCH  10  12
BRANCH   4  14
HETATM   14  C5          0      57.737  37.561  24.048  1.00  0.00     0.025 C 
HETATM   15  C6          0      58.838  36.949  23.466  1.00  0.00     0.004 C 
HETATM   16  C7          0      58.603  35.873  22.617  1.00  0.00     0.026 C 
HETATM   17  C8          0      57.314  35.500  22.250  1.00  0.00     0.112 C 
HETATM   18  C10         0      56.368  36.511  22.352  1.00  0.00     0.112 C 
HETATM   19  C12         0      56.586  37.530  23.271  1.00  0.00     0.028 C 
BRANCH  17  20
HETATM   20  O9          0      57.000  34.173  22.016  1.00  0.00    -0.357 OA
HETATM   21  H9          0      57.467  33.443  22.407  1.00  0.00     0.218 HD
ENDBRANCH  17  20
BRANCH  18  22
HETATM   22  O11         0      55.111  36.250  21.824  1.00  0.00    -0.357 OA
HETATM   23  H11         0      54.876  35.337  21.703  1.00  0.00     0.218 HD
ENDBRANCH  18  22
ENDBRANCH   4  14
BRANCH   8  24
HETATM   24  O17         0      54.011  41.682  27.875  1.00  0.00    -0.359 OA
HETATM   25  H17         0      53.610  42.185  28.574  1.00  0.00     0.218 HD
ENDBRANCH   8  24
TORSDOF 5
ENDMDL
