MODEL 1
REMARK VINA RESULT:      -8.3      0.000      0.000
REMARK  5 active torsions:
REMARK  status: ('A' for Active; 'I' for Inactive)
REMARK    1  A    between atoms: C4_4  and  C5_5 
REMARK    2  A    between atoms: C8_8  and  O9_9 
REMARK    3  A    between atoms: C10_11  and  O11_12 
REMARK    4  A    between atoms: C16_18  and  O17_19 
REMARK    5  A    between atoms: C19_22  and  O20_23 
ROOT
HETATM    1  O1          0      53.430  37.649  24.296  1.00  0.00    -0.286 OA
HETATM    2  C2          0      54.687  37.754  24.311  1.00  0.00     0.201 C 
HETATM    3  C3          0      55.495  37.238  23.313  1.00  0.00     0.067 C 
HETATM    4  C4          0      56.882  37.278  23.405  1.00  0.00     0.103 C 
HETATM    5  O13         0      57.432  37.843  24.465  1.00  0.00    -0.307 OA
HETATM    6  C14         0      56.711  38.315  25.459  1.00  0.00     0.107 C 
HETATM    7  C15         0      57.254  38.533  26.716  1.00  0.00     0.049 C 
HETATM    8  C16         0      56.445  38.785  27.818  1.00  0.00     0.093 C 
HETATM    9  C18         0      55.197  39.320  27.520  1.00  0.00     0.048 C 
HETATM   10  C19         0      54.644  39.160  26.257  1.00  0.00     0.096 C 
HETATM   11  C21         0      55.340  38.484  25.292  1.00  0.00     0.084 C 
ENDROOT
BRANCH  10  12
HETATM   12  O20         0      53.269  39.298  26.094  1.00  0.00    -0.359 OA
HETATM   13  H20         0      52.896  40.166  26.181  1.00  0.00     0.218 HD
ENDBRANCH  10  12
BRANCH   4  14
HETATM   14  C5          0      57.631  36.243  22.690  1.00  0.00     0.025 C 
HETATM   15  C6          0      58.961  35.957  22.958  1.00  0.00     0.004 C 
HETATM   16  C7          0      59.355  34.623  22.918  1.00  0.00     0.026 C 
HETATM   17  C8          0      58.490  33.619  22.496  1.00  0.00     0.112 C 
HETATM   18  C10         0      57.456  34.052  21.677  1.00  0.00     0.112 C 
HETATM   19  C12         0      57.025  35.368  21.797  1.00  0.00     0.028 C 
BRANCH  17  20
HETATM   20  O9          0      58.559  32.349  23.039  1.00  0.00    -0.357 OA
HETATM   21  H9          0      58.903  32.163  23.905  1.00  0.00     0.218 HD
ENDBRANCH  17  20
BRANCH  18  22
HETATM   22  O11         0      56.678  33.073  21.076  1.00  0.00    -0.357 OA
HETATM   23  H11         0      56.560  32.262  21.557  1.00  0.00     0.218 HD
ENDBRANCH  18  22
ENDBRANCH   4  14
BRANCH   8  24
HETATM   24  O17         0      56.728  38.233  29.072  1.00  0.00    -0.359 OA
HETATM   25  H17         0      56.259  38.501  29.853  1.00  0.00     0.218 HD
ENDBRANCH   8  24
TORSDOF 5
ENDMDL
MODEL 2
REMARK VINA RESULT:      -8.2     14.494     16.382
REMARK  5 active torsions:
REMARK  status: ('A' for Active; 'I' for Inactive)
REMARK    1  A    between atoms: C4_4  and  C5_5 
REMARK    2  A    between atoms: C8_8  and  O9_9 
REMARK    3  A    between atoms: C10_11  and  O11_12 
REMARK    4  A    between atoms: C16_18  and  O17_19 
REMARK    5  A    between atoms: C19_22  and  O20_23 
ROOT
HETATM    1  O1          0      41.254  31.829  14.123  1.00  0.00    -0.286 OA
HETATM    2  C2          0      42.511  31.927  14.096  1.00  0.00     0.201 C 
HETATM    3  C3          0      43.353  30.853  14.332  1.00  0.00     0.067 C 
HETATM    4  C4          0      44.733  31.009  14.398  1.00  0.00     0.103 C 
HETATM    5  O13         0      45.245  32.213  14.207  1.00  0.00    -0.307 OA
HETATM    6  C14         0      44.489  33.272  14.016  1.00  0.00     0.107 C 
HETATM    7  C15         0      44.970  34.558  14.214  1.00  0.00     0.049 C 
HETATM    8  C16         0      44.112  35.650  14.261  1.00  0.00     0.093 C 
HETATM    9  C18         0      42.905  35.477  13.594  1.00  0.00     0.048 C 
HETATM   10  C19         0      42.417  34.203  13.338  1.00  0.00     0.096 C 
HETATM   11  C21         0      43.138  33.108  13.730  1.00  0.00     0.084 C 
ENDROOT
BRANCH  10  12
HETATM   12  O20         0      41.060  34.033  13.083  1.00  0.00    -0.359 OA
HETATM   13  H20         0      40.766  33.181  12.782  1.00  0.00     0.218 HD
ENDBRANCH  10  12
BRANCH   4  14
HETATM   14  C5          0      45.478  30.047  15.210  1.00  0.00     0.025 C 
HETATM   15  C6          0      45.500  28.687  14.934  1.00  0.00     0.004 C 
HETATM   16  C7          0      46.700  28.010  15.127  1.00  0.00     0.026 C 
HETATM   17  C8          0      47.804  28.630  15.702  1.00  0.00     0.112 C 
HETATM   18  C10         0      47.503  29.729  16.496  1.00  0.00     0.112 C 
HETATM   19  C12         0      46.339  30.439  16.227  1.00  0.00     0.028 C 
BRANCH  17  20
HETATM   20  O9          0      49.089  28.286  15.321  1.00  0.00    -0.357 OA
HETATM   21  H9          0      49.778  28.920  15.156  1.00  0.00     0.218 HD
ENDBRANCH  17  20
BRANCH  18  22
HETATM   22  O11         0      48.541  30.268  17.242  1.00  0.00    -0.357 OA
HETATM   23  H11         0      49.031  30.980  16.846  1.00  0.00     0.218 HD
ENDBRANCH  18  22
ENDBRANCH   4  14
BRANCH   8  24
HETATM   24  O17         0      44.303  36.689  15.178  1.00  0.00    -0.359 OA
HETATM   25  H17         0      45.169  37.020  15.384  1.00  0.00     0.218 HD
ENDBRANCH   8  24
TORSDOF 5
ENDMDL
MODEL 3
REMARK VINA RESULT:      -7.8     15.533     18.059
REMARK  5 active torsions:
REMARK  status: ('A' for Active; 'I' for Inactive)
REMARK    1  A    between atoms: C4_4  and  C5_5 
REMARK    2  A    between atoms: C8_8  and  O9_9 
REMARK    3  A    between atoms: C10_11  and  O11_12 
REMARK    4  A    between atoms: C16_18  and  O17_19 
REMARK    5  A    between atoms: C19_22  and  O20_23 
ROOT
HETATM    1  O1          0      45.375  27.313  14.753  1.00  0.00    -0.286 OA
HETATM    2  C2          0      45.119  28.547  14.697  1.00  0.00     0.201 C 
HETATM    3  C3          0      43.867  29.040  14.373  1.00  0.00     0.067 C 
HETATM    4  C4          0      43.638  30.402  14.218  1.00  0.00     0.103 C 
HETATM    5  O13         0      44.642  31.240  14.405  1.00  0.00    -0.307 OA
HETATM    6  C14         0      45.859  30.823  14.677  1.00  0.00     0.107 C 
HETATM    7  C15         0      46.969  31.632  14.482  1.00  0.00     0.049 C 
HETATM    8  C16         0      48.257  31.112  14.525  1.00  0.00     0.093 C 
HETATM    9  C18         0      48.395  29.945  15.268  1.00  0.00     0.048 C 
HETATM   10  C19         0      47.295  29.137  15.522  1.00  0.00     0.096 C 
HETATM   11  C21         0      46.063  29.499  15.051  1.00  0.00     0.084 C 
ENDROOT
BRANCH  10  12
HETATM   12  O20         0      47.496  27.803  15.865  1.00  0.00    -0.359 OA
HETATM   13  H20         0      47.670  27.185  15.166  1.00  0.00     0.218 HD
ENDBRANCH  10  12
BRANCH   4  14
HETATM   14  C5          0      42.544  30.800  13.330  1.00  0.00     0.025 C 
HETATM   15  C6          0      41.219  30.467  13.572  1.00  0.00     0.004 C 
HETATM   16  C7          0      40.250  31.419  13.274  1.00  0.00     0.026 C 
HETATM   17  C8          0      40.571  32.611  12.632  1.00  0.00     0.112 C 
HETATM   18  C10         0      41.743  32.571  11.889  1.00  0.00     0.112 C 
HETATM   19  C12         0      42.731  31.667  12.261  1.00  0.00     0.028 C 
BRANCH  17  20
HETATM   20  O9          0      39.875  33.774  12.908  1.00  0.00    -0.357 OA
HETATM   21  H9          0      39.051  33.797  13.381  1.00  0.00     0.218 HD
ENDBRANCH  17  20
BRANCH  18  22
HETATM   22  O11         0      42.011  33.666  11.080  1.00  0.00    -0.357 OA
HETATM   23  H11         0      42.902  33.998  11.087  1.00  0.00     0.218 HD
ENDBRANCH  18  22
ENDBRANCH   4  14
BRANCH   8  24
HETATM   24  O17         0      49.244  31.532  13.626  1.00  0.00    -0.359 OA
HETATM   25  H17         0      49.104  32.265  13.038  1.00  0.00     0.218 HD
ENDBRANCH   8  24
TORSDOF 5
ENDMDL
MODEL 4
REMARK VINA RESULT:      -7.7     15.806     18.138
REMARK  5 active torsions:
REMARK  status: ('A' for Active; 'I' for Inactive)
REMARK    1  A    between atoms: C4_4  and  C5_5 
REMARK    2  A    between atoms: C8_8  and  O9_9 
REMARK    3  A    between atoms: C10_11  and  O11_12 
REMARK    4  A    between atoms: C16_18  and  O17_19 
REMARK    5  A    between atoms: C19_22  and  O20_23 
ROOT
HETATM    1  O1          0      41.579  30.302  12.949  1.00  0.00    -0.286 OA
HETATM    2  C2          0      42.362  31.133  13.486  1.00  0.00     0.201 C 
HETATM    3  C3          0      42.113  32.495  13.503  1.00  0.00     0.067 C 
HETATM    4  C4          0      43.040  33.398  14.010  1.00  0.00     0.103 C 
HETATM    5  O13         0      44.175  32.934  14.503  1.00  0.00    -0.307 OA
HETATM    6  C14         0      44.477  31.655  14.476  1.00  0.00     0.107 C 
HETATM    7  C15         0      45.784  31.209  14.611  1.00  0.00     0.049 C 
HETATM    8  C16         0      46.130  29.893  14.330  1.00  0.00     0.093 C 
HETATM    9  C18         0      45.091  28.977  14.439  1.00  0.00     0.048 C 
HETATM   10  C19         0      43.770  29.395  14.356  1.00  0.00     0.096 C 
HETATM   11  C21         0      43.488  30.722  14.182  1.00  0.00     0.084 C 
ENDROOT
BRANCH  10  12
HETATM   12  O20         0      42.783  28.470  14.031  1.00  0.00    -0.359 OA
HETATM   13  H20         0      42.038  28.773  13.526  1.00  0.00     0.218 HD
ENDBRANCH  10  12
BRANCH   4  14
HETATM   14  C5          0      43.009  34.761  13.475  1.00  0.00     0.025 C 
HETATM   15  C6          0      41.877  35.316  12.895  1.00  0.00     0.004 C 
HETATM   16  C7          0      41.617  36.659  13.147  1.00  0.00     0.026 C 
HETATM   17  C8          0      42.519  37.460  13.838  1.00  0.00     0.112 C 
HETATM   18  C10         0      43.833  37.011  13.810  1.00  0.00     0.112 C 
HETATM   19  C12         0      44.062  35.650  13.642  1.00  0.00     0.028 C 
BRANCH  17  20
HETATM   20  O9          0      42.076  38.488  14.651  1.00  0.00    -0.357 OA
HETATM   21  H9          0      41.911  38.391  15.582  1.00  0.00     0.218 HD
ENDBRANCH  17  20
BRANCH  18  22
HETATM   22  O11         0      44.800  37.865  14.320  1.00  0.00    -0.357 OA
HETATM   23  H11         0      44.866  38.726  13.923  1.00  0.00     0.218 HD
ENDBRANCH  18  22
ENDBRANCH   4  14
BRANCH   8  24
HETATM   24  O17         0      47.323  29.578  13.669  1.00  0.00    -0.359 OA
HETATM   25  H17         0      47.340  29.368  12.743  1.00  0.00     0.218 HD
ENDBRANCH   8  24
TORSDOF 5
ENDMDL
MODEL 5
REMARK VINA RESULT:      -7.7     14.795     16.758
REMARK  5 active torsions:
REMARK  status: ('A' for Active; 'I' for Inactive)
REMARK    1  A    between atoms: C4_4  and  C5_5 
REMARK    2  A    between atoms: C8_8  and  O9_9 
REMARK    3  A    between atoms: C10_11  and  O11_12 
REMARK    4  A    between atoms: C16_18  and  O17_19 
REMARK    5  A    between atoms: C19_22  and  O20_23 
ROOT
HETATM    1  O1          0      45.600  35.998  14.036  1.00  0.00    -0.286 OA
HETATM    2  C2          0      45.095  34.843  14.068  1.00  0.00     0.201 C 
HETATM    3  C3          0      45.815  33.719  14.435  1.00  0.00     0.067 C 
HETATM    4  C4          0      45.263  32.445  14.363  1.00  0.00     0.103 C 
HETATM    5  O13         0      44.013  32.316  13.953  1.00  0.00    -0.307 OA
HETATM    6  C14         0      43.298  33.347  13.557  1.00  0.00     0.107 C 
HETATM    7  C15         0      42.168  33.192  12.768  1.00  0.00     0.049 C 
HETATM    8  C16         0      41.567  34.280  12.146  1.00  0.00     0.093 C 
HETATM    9  C18         0      41.801  35.507  12.755  1.00  0.00     0.048 C 
HETATM   10  C19         0      42.897  35.683  13.589  1.00  0.00     0.096 C 
HETATM   11  C21         0      43.745  34.636  13.826  1.00  0.00     0.084 C 
ENDROOT
BRANCH  10  12
HETATM   12  O20         0      43.366  36.970  13.833  1.00  0.00    -0.359 OA
HETATM   13  H20         0      44.090  37.288  13.307  1.00  0.00     0.218 HD
ENDBRANCH  10  12
BRANCH   4  14
HETATM   14  C5          0      46.186  31.325  14.171  1.00  0.00     0.025 C 
HETATM   15  C6          0      47.548  31.422  14.418  1.00  0.00     0.004 C 
HETATM   16  C7          0      48.179  30.323  14.992  1.00  0.00     0.026 C 
HETATM   17  C8          0      47.511  29.119  15.190  1.00  0.00     0.112 C 
HETATM   18  C10         0      46.412  28.923  14.364  1.00  0.00     0.112 C 
HETATM   19  C12         0      45.748  30.041  13.873  1.00  0.00     0.028 C 
BRANCH  17  20
HETATM   20  O9          0      47.813  28.310  16.270  1.00  0.00    -0.357 OA
HETATM   21  H9          0      48.667  28.283  16.687  1.00  0.00     0.218 HD
ENDBRANCH  17  20
BRANCH  18  22
HETATM   22  O11         0      45.825  27.667  14.387  1.00  0.00    -0.357 OA
HETATM   23  H11         0      44.933  27.602  14.064  1.00  0.00     0.218 HD
ENDBRANCH  18  22
ENDBRANCH   4  14
BRANCH   8  24
HETATM   24  O17         0      41.065  34.189  10.843  1.00  0.00    -0.359 OA
HETATM   25  H17         0      41.303  34.817  10.172  1.00  0.00     0.218 HD
ENDBRANCH   8  24
TORSDOF 5
ENDMDL
MODEL 6
REMARK VINA RESULT:      -7.6      6.680      9.925
REMARK  5 active torsions:
REMARK  status: ('A' for Active; 'I' for Inactive)
REMARK    1  A    between atoms: C4_4  and  C5_5 
REMARK    2  A    between atoms: C8_8  and  O9_9 
REMARK    3  A    between atoms: C10_11  and  O11_12 
REMARK    4  A    between atoms: C16_18  and  O17_19 
REMARK    5  A    between atoms: C19_22  and  O20_23 
ROOT
HETATM    1  O1          0      49.753  39.949  29.364  1.00  0.00    -0.286 OA
HETATM    2  C2          0      49.523  39.711  28.147  1.00  0.00     0.201 C 
HETATM    3  C3          0      48.285  39.918  27.562  1.00  0.00     0.067 C 
HETATM    4  C4          0      48.031  39.551  26.245  1.00  0.00     0.103 C 
HETATM    5  O13         0      49.007  39.010  25.537  1.00  0.00    -0.307 OA
HETATM    6  C14         0      50.189  38.757  26.055  1.00  0.00     0.107 C 
HETATM    7  C15         0      51.064  37.852  25.472  1.00  0.00     0.049 C 
HETATM    8  C16         0      52.190  37.399  26.148  1.00  0.00     0.093 C 
HETATM    9  C18         0      52.664  38.253  27.137  1.00  0.00     0.048 C 
HETATM   10  C19         0      51.828  39.202  27.709  1.00  0.00     0.096 C 
HETATM   11  C21         0      50.532  39.310  27.284  1.00  0.00     0.084 C 
ENDROOT
BRANCH  10  12
HETATM   12  O20         0      52.153  39.733  28.954  1.00  0.00    -0.359 OA
HETATM   13  H20         0      52.575  40.583  28.979  1.00  0.00     0.218 HD
ENDBRANCH  10  12
BRANCH   4  14
HETATM   14  C5          0      46.646  39.233  25.894  1.00  0.00     0.025 C 
HETATM   15  C6          0      46.203  39.147  24.582  1.00  0.00     0.004 C 
HETATM   16  C7          0      45.279  38.152  24.278  1.00  0.00     0.026 C 
HETATM   17  C8          0      44.711  37.357  25.267  1.00  0.00     0.112 C 
HETATM   18  C10         0      44.720  37.917  26.538  1.00  0.00     0.112 C 
HETATM   19  C12         0      45.708  38.846  26.843  1.00  0.00     0.028 C 
BRANCH  17  20
HETATM   20  O9          0      44.371  36.040  25.010  1.00  0.00    -0.357 OA
HETATM   21  H9          0      43.487  35.700  25.078  1.00  0.00     0.218 HD
ENDBRANCH  17  20
BRANCH  18  22
HETATM   22  O11         0      44.002  37.253  27.522  1.00  0.00    -0.357 OA
HETATM   23  H11         0      44.316  37.338  28.415  1.00  0.00     0.218 HD
ENDBRANCH  18  22
ENDBRANCH   4  14
BRANCH   8  24
HETATM   24  O17         0      52.598  36.063  26.072  1.00  0.00    -0.359 OA
HETATM   25  H17         0      52.742  35.540  26.852  1.00  0.00     0.218 HD
ENDBRANCH   8  24
TORSDOF 5
ENDMDL
MODEL 7
REMARK VINA RESULT:      -7.5     16.228     18.705
REMARK  5 active torsions:
REMARK  status: ('A' for Active; 'I' for Inactive)
REMARK    1  A    between atoms: C4_4  and  C5_5 
REMARK    2  A    between atoms: C8_8  and  O9_9 
REMARK    3  A    between atoms: C10_11  and  O11_12 
REMARK    4  A    between atoms: C16_18  and  O17_19 
REMARK    5  A    between atoms: C19_22  and  O20_23 
ROOT
HETATM    1  O1          0      44.800  31.118  15.761  1.00  0.00    -0.286 OA
HETATM    2  C2          0      44.266  31.772  14.823  1.00  0.00     0.201 C 
HETATM    3  C3          0      44.422  33.140  14.678  1.00  0.00     0.067 C 
HETATM    4  C4          0      43.741  33.851  13.696  1.00  0.00     0.103 C 
HETATM    5  O13         0      42.944  33.192  12.874  1.00  0.00    -0.307 OA
HETATM    6  C14         0      42.731  31.900  12.991  1.00  0.00     0.107 C 
HETATM    7  C15         0      41.627  31.286  12.419  1.00  0.00     0.049 C 
HETATM    8  C16         0      41.270  29.985  12.753  1.00  0.00     0.093 C 
HETATM    9  C18         0      42.310  29.195  13.228  1.00  0.00     0.048 C 
HETATM   10  C19         0      43.450  29.777  13.765  1.00  0.00     0.096 C 
HETATM   11  C21         0      43.559  31.140  13.812  1.00  0.00     0.084 C 
ENDROOT
BRANCH  10  12
HETATM   12  O20         0      44.262  29.029  14.611  1.00  0.00    -0.359 OA
HETATM   13  H20         0      44.570  28.185  14.302  1.00  0.00     0.218 HD
ENDBRANCH  10  12
BRANCH   4  14
HETATM   14  C5          0      43.469  35.265  13.961  1.00  0.00     0.025 C 
HETATM   15  C6          0      44.447  36.153  14.384  1.00  0.00     0.004 C 
HETATM   16  C7          0      44.409  37.446  13.872  1.00  0.00     0.026 C 
HETATM   17  C8          0      43.358  37.883  13.073  1.00  0.00     0.112 C 
HETATM   18  C10         0      42.175  37.175  13.233  1.00  0.00     0.112 C 
HETATM   19  C12         0      42.248  35.856  13.664  1.00  0.00     0.028 C 
BRANCH  17  20
HETATM   20  O9          0      43.571  38.805  12.064  1.00  0.00    -0.357 OA
HETATM   21  H9          0      43.045  38.855  11.274  1.00  0.00     0.218 HD
ENDBRANCH  17  20
BRANCH  18  22
HETATM   22  O11         0      41.048  37.684  12.604  1.00  0.00    -0.357 OA
HETATM   23  H11         0      40.521  38.301  13.099  1.00  0.00     0.218 HD
ENDBRANCH  18  22
ENDBRANCH   4  14
BRANCH   8  24
HETATM   24  O17         0      39.931  29.616  12.920  1.00  0.00    -0.359 OA
HETATM   25  H17         0      39.222  30.231  12.775  1.00  0.00     0.218 HD
ENDBRANCH   8  24
TORSDOF 5
ENDMDL
MODEL 8
REMARK VINA RESULT:      -7.5      3.257      4.480
REMARK  5 active torsions:
REMARK  status: ('A' for Active; 'I' for Inactive)
REMARK    1  A    between atoms: C4_4  and  C5_5 
REMARK    2  A    between atoms: C8_8  and  O9_9 
REMARK    3  A    between atoms: C10_11  and  O11_12 
REMARK    4  A    between atoms: C16_18  and  O17_19 
REMARK    5  A    between atoms: C19_22  and  O20_23 
ROOT
HETATM    1  O1          0      51.833  37.874  23.528  1.00  0.00    -0.286 OA
HETATM    2  C2          0      52.685  38.301  24.355  1.00  0.00     0.201 C 
HETATM    3  C3          0      54.049  38.227  24.132  1.00  0.00     0.067 C 
HETATM    4  C4          0      54.968  38.611  25.103  1.00  0.00     0.103 C 
HETATM    5  O13         0      54.517  39.076  26.254  1.00  0.00    -0.307 OA
HETATM    6  C14         0      53.233  39.133  26.531  1.00  0.00     0.107 C 
HETATM    7  C15         0      52.770  39.230  27.835  1.00  0.00     0.049 C 
HETATM    8  C16         0      51.428  39.034  28.141  1.00  0.00     0.093 C 
HETATM    9  C18         0      50.547  39.270  27.093  1.00  0.00     0.048 C 
HETATM   10  C19         0      50.987  39.226  25.778  1.00  0.00     0.096 C 
HETATM   11  C21         0      52.303  38.966  25.510  1.00  0.00     0.084 C 
ENDROOT
BRANCH  10  12
HETATM   12  O20         0      50.062  39.028  24.757  1.00  0.00    -0.359 OA
HETATM   13  H20         0      49.223  39.466  24.826  1.00  0.00     0.218 HD
ENDBRANCH  10  12
BRANCH   4  14
HETATM   14  C5          0      56.286  37.974  25.067  1.00  0.00     0.025 C 
HETATM   15  C6          0      57.133  38.060  23.971  1.00  0.00     0.004 C 
HETATM   16  C7          0      58.496  38.191  24.219  1.00  0.00     0.026 C 
HETATM   17  C8          0      59.015  38.104  25.507  1.00  0.00     0.112 C 
HETATM   18  C10         0      58.219  37.408  26.407  1.00  0.00     0.112 C 
HETATM   19  C12         0      56.849  37.365  26.181  1.00  0.00     0.028 C 
BRANCH  17  20
HETATM   20  O9          0      60.125  38.844  25.874  1.00  0.00    -0.357 OA
HETATM   21  H9          0      60.973  38.461  26.067  1.00  0.00     0.218 HD
ENDBRANCH  17  20
BRANCH  18  22
HETATM   22  O11         0      58.772  37.129  27.648  1.00  0.00    -0.357 OA
HETATM   23  H11         0      58.485  37.667  28.377  1.00  0.00     0.218 HD
ENDBRANCH  18  22
ENDBRANCH   4  14
BRANCH   8  24
HETATM   24  O17         0      51.037  38.336  29.289  1.00  0.00    -0.359 OA
HETATM   25  H17         0      51.609  38.254  30.043  1.00  0.00     0.218 HD
ENDBRANCH   8  24
TORSDOF 5
ENDMDL
MODEL 9
REMARK VINA RESULT:      -7.5      2.544      6.513
REMARK  5 active torsions:
REMARK  status: ('A' for Active; 'I' for Inactive)
REMARK    1  A    between atoms: C4_4  and  C5_5 
REMARK    2  A    between atoms: C8_8  and  O9_9 
REMARK    3  A    between atoms: C10_11  and  O11_12 
REMARK    4  A    between atoms: C16_18  and  O17_19 
REMARK    5  A    between atoms: C19_22  and  O20_23 
ROOT
HETATM    1  O1          0      55.133  36.723  21.936  1.00  0.00    -0.286 OA
HETATM    2  C2          0      55.187  36.893  23.185  1.00  0.00     0.201 C 
HETATM    3  C3          0      54.067  37.159  23.955  1.00  0.00     0.067 C 
HETATM    4  C4          0      54.167  37.444  25.312  1.00  0.00     0.103 C 
HETATM    5  O13         0      55.362  37.438  25.876  1.00  0.00    -0.307 OA
HETATM    6  C14         0      56.460  37.229  25.183  1.00  0.00     0.107 C 
HETATM    7  C15         0      57.708  37.608  25.659  1.00  0.00     0.049 C 
HETATM    8  C16         0      58.823  37.620  24.829  1.00  0.00     0.093 C 
HETATM    9  C18         0      58.749  36.767  23.735  1.00  0.00     0.048 C 
HETATM   10  C19         0      57.519  36.331  23.262  1.00  0.00     0.096 C 
HETATM   11  C21         0      56.370  36.730  23.888  1.00  0.00     0.084 C 
ENDROOT
BRANCH  10  12
HETATM   12  O20         0      57.421  35.861  21.956  1.00  0.00    -0.359 OA
HETATM   13  H20         0      58.200  35.883  21.414  1.00  0.00     0.218 HD
ENDBRANCH  10  12
BRANCH   4  14
HETATM   14  C5          0      53.114  38.272  25.902  1.00  0.00     0.025 C 
HETATM   15  C6          0      52.099  38.847  25.151  1.00  0.00     0.004 C 
HETATM   16  C7          0      50.826  38.886  25.710  1.00  0.00     0.026 C 
HETATM   17  C8          0      50.593  38.492  27.023  1.00  0.00     0.112 C 
HETATM   18  C10         0      51.706  38.548  27.851  1.00  0.00     0.112 C 
HETATM   19  C12         0      52.965  38.421  27.275  1.00  0.00     0.028 C 
BRANCH  17  20
HETATM   20  O9          0      49.397  37.897  27.383  1.00  0.00    -0.357 OA
HETATM   21  H9          0      48.904  37.317  26.814  1.00  0.00     0.218 HD
ENDBRANCH  17  20
BRANCH  18  22
HETATM   22  O11         0      51.491  38.349  29.207  1.00  0.00    -0.357 OA
HETATM   23  H11         0      50.625  38.554  29.540  1.00  0.00     0.218 HD
ENDBRANCH  18  22
ENDBRANCH   4  14
BRANCH   8  24
HETATM   24  O17         0      59.775  38.643  24.903  1.00  0.00    -0.359 OA
HETATM   25  H17         0      60.485  38.619  25.534  1.00  0.00     0.218 HD
ENDBRANCH   8  24
TORSDOF 5
ENDMDL
