MODEL 1
REMARK VINA RESULT:      -0.0      0.000      0.000
REMARK  5 active torsions:
REMARK  status: ('A' for Active; 'I' for Inactive)
REMARK    1  A    between atoms: C4_4  and  C5_5 
REMARK    2  A    between atoms: C8_8  and  O9_9 
REMARK    3  A    between atoms: C10_11  and  O11_12 
REMARK    4  A    between atoms: C16_18  and  O17_19 
REMARK    5  A    between atoms: C19_22  and  O20_23 
ROOT
HETATM    1  O1          0      18.306  14.296 -23.546  1.00  0.00    -0.286 OA
HETATM    2  C2          0      19.308  14.164 -24.301  1.00  0.00     0.201 C 
HETATM    3  C3          0      20.235  13.147 -24.147  1.00  0.00     0.067 C 
HETATM    4  C4          0      21.385  13.084 -24.927  1.00  0.00     0.103 C 
HETATM    5  O13         0      21.577  14.011 -25.849  1.00  0.00    -0.307 OA
HETATM    6  C14         0      20.748  15.019 -26.012  1.00  0.00     0.107 C 
HETATM    7  C15         0      21.127  16.179 -26.671  1.00  0.00     0.049 C 
HETATM    8  C16         0      20.346  17.327 -26.619  1.00  0.00     0.093 C 
HETATM    9  C18         0      18.998  17.108 -26.362  1.00  0.00     0.048 C 
HETATM   10  C19         0      18.578  15.937 -25.746  1.00  0.00     0.096 C 
HETATM   11  C21         0      19.497  14.983 -25.404  1.00  0.00     0.084 C 
ENDROOT
BRANCH  10  12
HETATM   12  O20         0      17.341  15.908 -25.110  1.00  0.00    -0.359 OA
HETATM   13  H20         0      16.579  15.683 -25.629  1.00  0.00     0.218 HD
ENDBRANCH  10  12
BRANCH   4  14
HETATM   14  C5          0      22.550  12.411 -24.350  1.00  0.00     0.025 C 
HETATM   15  C6          0      23.852  12.715 -24.718  1.00  0.00     0.004 C 
HETATM   16  C7          0      24.820  12.716 -23.719  1.00  0.00     0.026 C 
HETATM   17  C8          0      24.533  12.298 -22.424  1.00  0.00     0.112 C 
HETATM   18  C10         0      23.442  11.446 -22.319  1.00  0.00     0.112 C 
HETATM   19  C12         0      22.446  11.525 -23.285  1.00  0.00     0.028 C 
BRANCH  17  20
HETATM   20  O9          0      25.167  12.872 -21.337  1.00  0.00    -0.357 OA
HETATM   21  H9          0      25.560  12.372 -20.630  1.00  0.00     0.218 HD
ENDBRANCH  17  20
BRANCH  18  22
HETATM   22  O11         0      23.226  10.851 -21.084  1.00  0.00    -0.357 OA
HETATM   23  H11         0      22.905   9.957 -21.087  1.00  0.00     0.218 HD
ENDBRANCH  18  22
ENDBRANCH   4  14
BRANCH   8  24
HETATM   24  O17         0      20.922  18.596 -26.496  1.00  0.00    -0.359 OA
HETATM   25  H17         0      21.105  19.137 -27.255  1.00  0.00     0.218 HD
ENDBRANCH   8  24
TORSDOF 5
ENDMDL
MODEL 2
REMARK VINA RESULT:      -0.0      4.440      7.718
REMARK  5 active torsions:
REMARK  status: ('A' for Active; 'I' for Inactive)
REMARK    1  A    between atoms: C4_4  and  C5_5 
REMARK    2  A    between atoms: C8_8  and  O9_9 
REMARK    3  A    between atoms: C10_11  and  O11_12 
REMARK    4  A    between atoms: C16_18  and  O17_19 
REMARK    5  A    between atoms: C19_22  and  O20_23 
ROOT
HETATM    1  O1          0      20.748   8.785 -27.955  1.00  0.00    -0.286 OA
HETATM    2  C2          0      20.617  10.004 -27.657  1.00  0.00     0.201 C 
HETATM    3  C3          0      19.404  10.667 -27.725  1.00  0.00     0.067 C 
HETATM    4  C4          0      19.307  12.034 -27.490  1.00  0.00     0.103 C 
HETATM    5  O13         0      20.402  12.703 -27.175  1.00  0.00    -0.307 OA
HETATM    6  C14         0      21.584  12.129 -27.133  1.00  0.00     0.107 C 
HETATM    7  C15         0      22.758  12.867 -27.203  1.00  0.00     0.049 C 
HETATM    8  C16         0      23.985  12.251 -27.415  1.00  0.00     0.093 C 
HETATM    9  C18         0      24.049  10.918 -27.026  1.00  0.00     0.048 C 
HETATM   10  C19         0      22.890  10.164 -26.901  1.00  0.00     0.096 C 
HETATM   11  C21         0      21.674  10.742 -27.146  1.00  0.00     0.084 C 
ENDROOT
BRANCH  10  12
HETATM   12  O20         0      22.974   8.776 -26.945  1.00  0.00    -0.359 OA
HETATM   13  H20         0      22.207   8.292 -27.228  1.00  0.00     0.218 HD
ENDBRANCH  10  12
BRANCH   4  14
HETATM   14  C5          0      18.206  12.749 -28.139  1.00  0.00     0.025 C 
HETATM   15  C6          0      18.268  14.099 -28.454  1.00  0.00     0.004 C 
HETATM   16  C7          0      17.693  14.508 -29.653  1.00  0.00     0.026 C 
HETATM   17  C8          0      16.964  13.631 -30.448  1.00  0.00     0.112 C 
HETATM   18  C10         0      16.435  12.539 -29.773  1.00  0.00     0.112 C 
HETATM   19  C12         0      17.079  12.098 -28.624  1.00  0.00     0.028 C 
BRANCH  17  20
HETATM   20  O9          0      16.967  13.755 -31.826  1.00  0.00    -0.357 OA
HETATM   21  H9          0      17.514  14.371 -32.300  1.00  0.00     0.218 HD
ENDBRANCH  17  20
BRANCH  18  22
HETATM   22  O11         0      15.545  11.737 -30.475  1.00  0.00    -0.357 OA
HETATM   23  H11         0      14.720  12.133 -30.731  1.00  0.00     0.218 HD
ENDBRANCH  18  22
ENDBRANCH   4  14
BRANCH   8  24
HETATM   24  O17         0      24.951  12.819 -28.253  1.00  0.00    -0.359 OA
HETATM   25  H17         0      25.811  13.064 -27.930  1.00  0.00     0.218 HD
ENDBRANCH   8  24
TORSDOF 5
ENDMDL
MODEL 3
REMARK VINA RESULT:      -0.0     10.970     13.198
REMARK  5 active torsions:
REMARK  status: ('A' for Active; 'I' for Inactive)
REMARK    1  A    between atoms: C4_4  and  C5_5 
REMARK    2  A    between atoms: C8_8  and  O9_9 
REMARK    3  A    between atoms: C10_11  and  O11_12 
REMARK    4  A    between atoms: C16_18  and  O17_19 
REMARK    5  A    between atoms: C19_22  and  O20_23 
ROOT
HETATM    1  O1          0      24.705  10.265 -33.500  1.00  0.00    -0.286 OA
HETATM    2  C2          0      23.888   9.634 -34.225  1.00  0.00     0.201 C 
HETATM    3  C3          0      23.068  10.258 -35.150  1.00  0.00     0.067 C 
HETATM    4  C4          0      22.104   9.553 -35.862  1.00  0.00     0.103 C 
HETATM    5  O13         0      21.990   8.253 -35.659  1.00  0.00    -0.307 OA
HETATM    6  C14         0      22.717   7.618 -34.766  1.00  0.00     0.107 C 
HETATM    7  C15         0      22.344   6.379 -34.266  1.00  0.00     0.049 C 
HETATM    8  C16         0      22.968   5.833 -33.151  1.00  0.00     0.093 C 
HETATM    9  C18         0      24.258   6.294 -32.915  1.00  0.00     0.048 C 
HETATM   10  C19         0      24.679   7.509 -33.439  1.00  0.00     0.096 C 
HETATM   11  C21         0      23.824   8.249 -34.208  1.00  0.00     0.084 C 
ENDROOT
BRANCH  10  12
HETATM   12  O20         0      25.767   8.158 -32.863  1.00  0.00    -0.359 OA
HETATM   13  H20         0      26.040   7.884 -31.996  1.00  0.00     0.218 HD
ENDBRANCH  10  12
BRANCH   4  14
HETATM   14  C5          0      20.932  10.300 -36.323  1.00  0.00     0.025 C 
HETATM   15  C6          0      19.699   9.704 -36.542  1.00  0.00     0.004 C 
HETATM   16  C7          0      18.563  10.424 -36.185  1.00  0.00     0.026 C 
HETATM   17  C8          0      18.641  11.743 -35.751  1.00  0.00     0.112 C 
HETATM   18  C10         0      19.780  12.422 -36.164  1.00  0.00     0.112 C 
HETATM   19  C12         0      20.927  11.685 -36.432  1.00  0.00     0.028 C 
BRANCH  17  20
HETATM   20  O9          0      17.750  12.235 -34.815  1.00  0.00    -0.357 OA
HETATM   21  H9          0      16.948  11.791 -34.564  1.00  0.00     0.218 HD
ENDBRANCH  17  20
BRANCH  18  22
HETATM   22  O11         0      19.820  13.787 -35.920  1.00  0.00    -0.357 OA
HETATM   23  H11         0      20.552  14.268 -36.288  1.00  0.00     0.218 HD
ENDBRANCH  18  22
ENDBRANCH   4  14
BRANCH   8  24
HETATM   24  O17         0      22.242   5.147 -32.171  1.00  0.00    -0.359 OA
HETATM   25  H17         0      22.119   5.504 -31.300  1.00  0.00     0.218 HD
ENDBRANCH   8  24
TORSDOF 5
ENDMDL
MODEL 4
REMARK VINA RESULT:      -0.0     10.982     11.741
REMARK  5 active torsions:
REMARK  status: ('A' for Active; 'I' for Inactive)
REMARK    1  A    between atoms: C4_4  and  C5_5 
REMARK    2  A    between atoms: C8_8  and  O9_9 
REMARK    3  A    between atoms: C10_11  and  O11_12 
REMARK    4  A    between atoms: C16_18  and  O17_19 
REMARK    5  A    between atoms: C19_22  and  O20_23 
ROOT
HETATM    1  O1          0      16.985   9.163 -34.337  1.00  0.00    -0.286 OA
HETATM    2  C2          0      17.998   8.427 -34.493  1.00  0.00     0.201 C 
HETATM    3  C3          0      18.710   7.895 -33.431  1.00  0.00     0.067 C 
HETATM    4  C4          0      19.881   7.172 -33.628  1.00  0.00     0.103 C 
HETATM    5  O13         0      20.305   6.976 -34.864  1.00  0.00    -0.307 OA
HETATM    6  C14         0      19.687   7.489 -35.905  1.00  0.00     0.107 C 
HETATM    7  C15         0      20.318   7.633 -37.132  1.00  0.00     0.049 C 
HETATM    8  C16         0      19.758   8.399 -38.147  1.00  0.00     0.093 C 
HETATM    9  C18         0      18.378   8.546 -38.077  1.00  0.00     0.048 C 
HETATM   10  C19         0      17.709   8.364 -36.875  1.00  0.00     0.096 C 
HETATM   11  C21         0      18.411   8.021 -35.752  1.00  0.00     0.084 C 
ENDROOT
BRANCH  10  12
HETATM   12  O20         0      16.445   8.922 -36.709  1.00  0.00    -0.359 OA
HETATM   13  H20         0      15.691   8.391 -36.936  1.00  0.00     0.218 HD
ENDBRANCH  10  12
BRANCH   4  14
HETATM   14  C5          0      20.859   7.172 -32.539  1.00  0.00     0.025 C 
HETATM   15  C6          0      22.219   6.989 -32.749  1.00  0.00     0.004 C 
HETATM   16  C7          0      23.097   7.739 -31.974  1.00  0.00     0.026 C 
HETATM   17  C8          0      22.647   8.543 -30.932  1.00  0.00     0.112 C 
HETATM   18  C10         0      21.413   8.178 -30.409  1.00  0.00     0.112 C 
HETATM   19  C12         0      20.520   7.503 -31.234  1.00  0.00     0.028 C 
BRANCH  17  20
HETATM   20  O9          0      23.296   9.723 -30.616  1.00  0.00    -0.357 OA
HETATM   21  H9          0      23.073  10.566 -30.993  1.00  0.00     0.218 HD
ENDBRANCH  17  20
BRANCH  18  22
HETATM   22  O11         0      21.005   8.825 -29.252  1.00  0.00    -0.357 OA
HETATM   23  H11         0      20.365   9.521 -29.351  1.00  0.00     0.218 HD
ENDBRANCH  18  22
ENDBRANCH   4  14
BRANCH   8  24
HETATM   24  O17         0      20.546   9.224 -38.958  1.00  0.00    -0.359 OA
HETATM   25  H17         0      20.384   9.309 -39.890  1.00  0.00     0.218 HD
ENDBRANCH   8  24
TORSDOF 5
ENDMDL
MODEL 5
REMARK VINA RESULT:       0.0     10.711     13.266
REMARK  5 active torsions:
REMARK  status: ('A' for Active; 'I' for Inactive)
REMARK    1  A    between atoms: C4_4  and  C5_5 
REMARK    2  A    between atoms: C8_8  and  O9_9 
REMARK    3  A    between atoms: C10_11  and  O11_12 
REMARK    4  A    between atoms: C16_18  and  O17_19 
REMARK    5  A    between atoms: C19_22  and  O20_23 
ROOT
HETATM    1  O1          0      22.198  12.448 -37.330  1.00  0.00    -0.286 OA
HETATM    2  C2          0      21.244  12.399 -36.506  1.00  0.00     0.201 C 
HETATM    3  C3          0      20.018  11.833 -36.810  1.00  0.00     0.067 C 
HETATM    4  C4          0      18.951  11.883 -35.920  1.00  0.00     0.103 C 
HETATM    5  O13         0      19.128  12.471 -34.749  1.00  0.00    -0.307 OA
HETATM    6  C14         0      20.260  13.057 -34.426  1.00  0.00     0.107 C 
HETATM    7  C15         0      20.331  13.998 -33.408  1.00  0.00     0.049 C 
HETATM    8  C16         0      21.458  14.794 -33.239  1.00  0.00     0.093 C 
HETATM    9  C18         0      22.636  14.260 -33.747  1.00  0.00     0.048 C 
HETATM   10  C19         0      22.600  13.284 -34.733  1.00  0.00     0.096 C 
HETATM   11  C21         0      21.395  12.831 -35.197  1.00  0.00     0.084 C 
ENDROOT
BRANCH  10  12
HETATM   12  O20         0      23.724  13.077 -35.527  1.00  0.00    -0.359 OA
HETATM   13  H20         0      24.104  12.207 -35.542  1.00  0.00     0.218 HD
ENDBRANCH  10  12
BRANCH   4  14
HETATM   14  C5          0      17.603  11.835 -36.487  1.00  0.00     0.025 C 
HETATM   15  C6          0      16.501  12.395 -35.857  1.00  0.00     0.004 C 
HETATM   16  C7          0      15.551  13.023 -36.656  1.00  0.00     0.026 C 
HETATM   17  C8          0      15.623  12.981 -38.044  1.00  0.00     0.112 C 
HETATM   18  C10         0      16.349  11.913 -38.555  1.00  0.00     0.112 C 
HETATM   19  C12         0      17.350  11.358 -37.767  1.00  0.00     0.028 C 
BRANCH  17  20
HETATM   20  O9          0      15.181  14.045 -38.809  1.00  0.00    -0.357 OA
HETATM   21  H9          0      15.327  14.956 -38.582  1.00  0.00     0.218 HD
ENDBRANCH  17  20
BRANCH  18  22
HETATM   22  O11         0      16.295  11.716 -39.927  1.00  0.00    -0.357 OA
HETATM   23  H11         0      17.125  11.671 -40.388  1.00  0.00     0.218 HD
ENDBRANCH  18  22
ENDBRANCH   4  14
BRANCH   8  24
HETATM   24  O17         0      21.350  16.147 -32.899  1.00  0.00    -0.359 OA
HETATM   25  H17         0      20.664  16.464 -32.323  1.00  0.00     0.218 HD
ENDBRANCH   8  24
TORSDOF 5
ENDMDL
MODEL 6
REMARK VINA RESULT:       0.0      5.661      7.881
REMARK  5 active torsions:
REMARK  status: ('A' for Active; 'I' for Inactive)
REMARK    1  A    between atoms: C4_4  and  C5_5 
REMARK    2  A    between atoms: C8_8  and  O9_9 
REMARK    3  A    between atoms: C10_11  and  O11_12 
REMARK    4  A    between atoms: C16_18  and  O17_19 
REMARK    5  A    between atoms: C19_22  and  O20_23 
ROOT
HETATM    1  O1          0      17.583  14.314 -30.569  1.00  0.00    -0.286 OA
HETATM    2  C2          0      17.016  15.320 -30.061  1.00  0.00     0.201 C 
HETATM    3  C3          0      17.716  16.416 -29.587  1.00  0.00     0.067 C 
HETATM    4  C4          0      17.075  17.466 -28.939  1.00  0.00     0.103 C 
HETATM    5  O13         0      15.762  17.415 -28.795  1.00  0.00    -0.307 OA
HETATM    6  C14         0      15.054  16.381 -29.193  1.00  0.00     0.107 C 
HETATM    7  C15         0      13.780  16.136 -28.703  1.00  0.00     0.049 C 
HETATM    8  C16         0      13.142  14.921 -28.926  1.00  0.00     0.093 C 
HETATM    9  C18         0      13.579  14.226 -30.048  1.00  0.00     0.048 C 
HETATM   10  C19         0      14.830  14.480 -30.592  1.00  0.00     0.096 C 
HETATM   11  C21         0      15.635  15.434 -30.029  1.00  0.00     0.084 C 
ENDROOT
BRANCH  10  12
HETATM   12  O20         0      15.427  13.520 -31.404  1.00  0.00    -0.359 OA
HETATM   13  H20         0      15.738  12.722 -30.994  1.00  0.00     0.218 HD
ENDBRANCH  10  12
BRANCH   4  14
HETATM   14  C5          0      17.861  18.238 -27.975  1.00  0.00     0.025 C 
HETATM   15  C6          0      17.288  18.908 -26.903  1.00  0.00     0.004 C 
HETATM   16  C7          0      17.980  18.903 -25.696  1.00  0.00     0.026 C 
HETATM   17  C8          0      19.259  18.367 -25.591  1.00  0.00     0.112 C 
HETATM   18  C10         0      19.966  18.314 -26.785  1.00  0.00     0.112 C 
HETATM   19  C12         0      19.250  18.233 -27.973  1.00  0.00     0.028 C 
BRANCH  17  20
HETATM   20  O9          0      19.676  17.752 -24.423  1.00  0.00    -0.357 OA
HETATM   21  H9          0      20.488  17.964 -23.976  1.00  0.00     0.218 HD
ENDBRANCH  17  20
BRANCH  18  22
HETATM   22  O11         0      21.307  17.966 -26.706  1.00  0.00    -0.357 OA
HETATM   23  H11         0      21.933  18.586 -27.060  1.00  0.00     0.218 HD
ENDBRANCH  18  22
ENDBRANCH   4  14
BRANCH   8  24
HETATM   24  O17         0      12.381  14.303 -27.928  1.00  0.00    -0.359 OA
HETATM   25  H17         0      12.749  14.093 -27.078  1.00  0.00     0.218 HD
ENDBRANCH   8  24
TORSDOF 5
ENDMDL
MODEL 7
REMARK VINA RESULT:       0.0      9.141     10.302
REMARK  5 active torsions:
REMARK  status: ('A' for Active; 'I' for Inactive)
REMARK    1  A    between atoms: C4_4  and  C5_5 
REMARK    2  A    between atoms: C8_8  and  O9_9 
REMARK    3  A    between atoms: C10_11  and  O11_12 
REMARK    4  A    between atoms: C16_18  and  O17_19 
REMARK    5  A    between atoms: C19_22  and  O20_23 
ROOT
HETATM    1  O1          0      19.425   6.838 -32.418  1.00  0.00    -0.286 OA
HETATM    2  C2          0      18.993   6.876 -31.233  1.00  0.00     0.201 C 
HETATM    3  C3          0      19.811   7.124 -30.144  1.00  0.00     0.067 C 
HETATM    4  C4          0      19.329   7.059 -28.841  1.00  0.00     0.103 C 
HETATM    5  O13         0      18.054   6.772 -28.650  1.00  0.00    -0.307 OA
HETATM    6  C14         0      17.243   6.491 -29.647  1.00  0.00     0.107 C 
HETATM    7  C15         0      16.049   5.814 -29.449  1.00  0.00     0.049 C 
HETATM    8  C16         0      15.326   5.298 -30.518  1.00  0.00     0.093 C 
HETATM    9  C18         0      15.550   5.928 -31.736  1.00  0.00     0.048 C 
HETATM   10  C19         0      16.714   6.653 -31.952  1.00  0.00     0.096 C 
HETATM   11  C21         0      17.641   6.763 -30.951  1.00  0.00     0.084 C 
ENDROOT
BRANCH  10  12
HETATM   12  O20         0      17.130   6.899 -33.257  1.00  0.00    -0.359 OA
HETATM   13  H20         0      16.549   6.647 -33.964  1.00  0.00     0.218 HD
ENDBRANCH  10  12
BRANCH   4  14
HETATM   14  C5          0      20.291   6.732 -27.787  1.00  0.00     0.025 C 
HETATM   15  C6          0      19.924   6.118 -26.599  1.00  0.00     0.004 C 
HETATM   16  C7          0      20.793   5.169 -26.069  1.00  0.00     0.026 C 
HETATM   17  C8          0      22.045   4.934 -26.627  1.00  0.00     0.112 C 
HETATM   18  C10         0      22.556   5.990 -27.370  1.00  0.00     0.112 C 
HETATM   19  C12         0      21.662   6.876 -27.959  1.00  0.00     0.028 C 
BRANCH  17  20
HETATM   20  O9          0      22.606   3.669 -26.602  1.00  0.00    -0.357 OA
HETATM   21  H9          0      23.382   3.426 -27.094  1.00  0.00     0.218 HD
ENDBRANCH  17  20
BRANCH  18  22
HETATM   22  O11         0      23.874   5.883 -27.789  1.00  0.00    -0.357 OA
HETATM   23  H11         0      24.026   5.855 -28.726  1.00  0.00     0.218 HD
ENDBRANCH  18  22
ENDBRANCH   4  14
BRANCH   8  24
HETATM   24  O17         0      14.698   4.050 -30.439  1.00  0.00    -0.359 OA
HETATM   25  H17         0      14.296   3.743 -29.635  1.00  0.00     0.218 HD
ENDBRANCH   8  24
TORSDOF 5
ENDMDL
MODEL 8
REMARK VINA RESULT:       0.0      9.565     10.471
REMARK  5 active torsions:
REMARK  status: ('A' for Active; 'I' for Inactive)
REMARK    1  A    between atoms: C4_4  and  C5_5 
REMARK    2  A    between atoms: C8_8  and  O9_9 
REMARK    3  A    between atoms: C10_11  and  O11_12 
REMARK    4  A    between atoms: C16_18  and  O17_19 
REMARK    5  A    between atoms: C19_22  and  O20_23 
ROOT
HETATM    1  O1          0      14.029  10.083 -34.574  1.00  0.00    -0.286 OA
HETATM    2  C2          0      15.242  10.391 -34.413  1.00  0.00     0.201 C 
HETATM    3  C3          0      16.183   9.502 -33.924  1.00  0.00     0.067 C 
HETATM    4  C4          0      17.490   9.897 -33.660  1.00  0.00     0.103 C 
HETATM    5  O13         0      17.837  11.148 -33.905  1.00  0.00    -0.307 OA
HETATM    6  C14         0      16.973  12.042 -34.334  1.00  0.00     0.107 C 
HETATM    7  C15         0      17.208  13.404 -34.212  1.00  0.00     0.049 C 
HETATM    8  C16         0      16.198  14.333 -34.428  1.00  0.00     0.093 C 
HETATM    9  C18         0      15.167  13.899 -35.252  1.00  0.00     0.048 C 
HETATM   10  C19         0      14.933  12.542 -35.434  1.00  0.00     0.096 C 
HETATM   11  C21         0      15.734  11.626 -34.809  1.00  0.00     0.084 C 
ENDROOT
BRANCH  10  12
HETATM   12  O20         0      13.684  12.121 -35.879  1.00  0.00    -0.359 OA
HETATM   13  H20         0      13.651  11.544 -36.632  1.00  0.00     0.218 HD
ENDBRANCH  10  12
BRANCH   4  14
HETATM   14  C5          0      18.221   9.150 -32.635  1.00  0.00     0.025 C 
HETATM   15  C6          0      19.254   9.705 -31.894  1.00  0.00     0.004 C 
HETATM   16  C7          0      19.343   9.356 -30.550  1.00  0.00     0.026 C 
HETATM   17  C8          0      18.517   8.387 -29.992  1.00  0.00     0.112 C 
HETATM   18  C10         0      17.994   7.477 -30.901  1.00  0.00     0.112 C 
HETATM   19  C12         0      17.836   7.881 -32.222  1.00  0.00     0.028 C 
BRANCH  17  20
HETATM   20  O9          0      18.104   8.480 -28.675  1.00  0.00    -0.357 OA
HETATM   21  H9          0      18.484   9.080 -28.043  1.00  0.00     0.218 HD
ENDBRANCH  17  20
BRANCH  18  22
HETATM   22  O11         0      17.320   6.383 -30.379  1.00  0.00    -0.357 OA
HETATM   23  H11         0      16.942   5.773 -31.002  1.00  0.00     0.218 HD
ENDBRANCH  18  22
ENDBRANCH   4  14
BRANCH   8  24
HETATM   24  O17         0      16.065  15.466 -33.618  1.00  0.00    -0.359 OA
HETATM   25  H17         0      15.217  15.860 -33.446  1.00  0.00     0.218 HD
ENDBRANCH   8  24
TORSDOF 5
ENDMDL
MODEL 9
REMARK VINA RESULT:       0.0      5.820      7.444
REMARK  5 active torsions:
REMARK  status: ('A' for Active; 'I' for Inactive)
REMARK    1  A    between atoms: C4_4  and  C5_5 
REMARK    2  A    between atoms: C8_8  and  O9_9 
REMARK    3  A    between atoms: C10_11  and  O11_12 
REMARK    4  A    between atoms: C16_18  and  O17_19 
REMARK    5  A    between atoms: C19_22  and  O20_23 
ROOT
HETATM    1  O1          0      19.164  15.348 -32.636  1.00  0.00    -0.286 OA
HETATM    2  C2          0      19.398  16.125 -31.671  1.00  0.00     0.201 C 
HETATM    3  C3          0      20.546  16.895 -31.590  1.00  0.00     0.067 C 
HETATM    4  C4          0      20.829  17.666 -30.467  1.00  0.00     0.103 C 
HETATM    5  O13         0      19.965  17.672 -29.467  1.00  0.00    -0.307 OA
HETATM    6  C14         0      18.879  16.930 -29.478  1.00  0.00     0.107 C 
HETATM    7  C15         0      18.194  16.622 -28.311  1.00  0.00     0.049 C 
HETATM    8  C16         0      17.209  15.642 -28.291  1.00  0.00     0.093 C 
HETATM    9  C18         0      16.600  15.396 -29.516  1.00  0.00     0.048 C 
HETATM   10  C19         0      17.237  15.735 -30.701  1.00  0.00     0.096 C 
HETATM   11  C21         0      18.468  16.331 -30.664  1.00  0.00     0.084 C 
ENDROOT
BRANCH  10  12
HETATM   12  O20         0      16.849  15.114 -31.884  1.00  0.00    -0.359 OA
HETATM   13  H20         0      16.238  14.389 -31.827  1.00  0.00     0.218 HD
ENDBRANCH  10  12
BRANCH   4  14
HETATM   14  C5          0      22.238  17.943 -30.183  1.00  0.00     0.025 C 
HETATM   15  C6          0      22.711  18.196 -28.903  1.00  0.00     0.004 C 
HETATM   16  C7          0      23.954  17.672 -28.560  1.00  0.00     0.026 C 
HETATM   17  C8          0      24.760  17.034 -29.496  1.00  0.00     0.112 C 
HETATM   18  C10         0      24.506  17.384 -30.816  1.00  0.00     0.112 C 
HETATM   19  C12         0      23.230  17.824 -31.148  1.00  0.00     0.028 C 
BRANCH  17  20
HETATM   20  O9          0      25.586  15.988 -29.125  1.00  0.00    -0.357 OA
HETATM   21  H9          0      25.276  15.105 -28.956  1.00  0.00     0.218 HD
ENDBRANCH  17  20
BRANCH  18  22
HETATM   22  O11         0      25.400  16.925 -31.772  1.00  0.00    -0.357 OA
HETATM   23  H11         0      26.132  17.493 -31.984  1.00  0.00     0.218 HD
ENDBRANCH  18  22
ENDBRANCH   4  14
BRANCH   8  24
HETATM   24  O17         0      17.086  14.753 -27.217  1.00  0.00    -0.359 OA
HETATM   25  H17         0      16.455  14.895 -26.521  1.00  0.00     0.218 HD
ENDBRANCH   8  24
TORSDOF 5
ENDMDL
