MODEL 1
REMARK VINA RESULT:      -6.9      0.000      0.000
REMARK  5 active torsions:
REMARK  status: ('A' for Active; 'I' for Inactive)
REMARK    1  A    between atoms: C4_4  and  C5_5 
REMARK    2  A    between atoms: C8_8  and  O9_9 
REMARK    3  A    between atoms: C10_11  and  O11_12 
REMARK    4  A    between atoms: C16_18  and  O17_19 
REMARK    5  A    between atoms: C19_22  and  O20_23 
ROOT
HETATM    1  O1          0       6.530  77.487 -17.098  1.00  0.00    -0.286 OA
HETATM    2  C2          0       5.378  77.919 -16.815  1.00  0.00     0.201 C 
HETATM    3  C3          0       4.838  77.838 -15.543  1.00  0.00     0.067 C 
HETATM    4  C4          0       3.530  78.227 -15.281  1.00  0.00     0.103 C 
HETATM    5  O13         0       2.799  78.704 -16.273  1.00  0.00    -0.307 OA
HETATM    6  C14         0       3.250  78.768 -17.506  1.00  0.00     0.107 C 
HETATM    7  C15         0       2.395  78.878 -18.593  1.00  0.00     0.049 C 
HETATM    8  C16         0       2.851  78.689 -19.892  1.00  0.00     0.093 C 
HETATM    9  C18         0       4.209  78.919 -20.077  1.00  0.00     0.048 C 
HETATM   10  C19         0       5.086  78.863 -19.003  1.00  0.00     0.096 C 
HETATM   11  C21         0       4.609  78.595 -17.749  1.00  0.00     0.084 C 
ENDROOT
BRANCH  10  12
HETATM   12  O20         0       6.442  78.658 -19.242  1.00  0.00    -0.359 OA
HETATM   13  H20         0       6.834  79.096 -19.987  1.00  0.00     0.218 HD
ENDBRANCH  10  12
BRANCH   4  14
HETATM   14  C5          0       2.853  77.586 -14.152  1.00  0.00     0.025 C 
HETATM   15  C6          0       3.253  76.364 -13.631  1.00  0.00     0.004 C 
HETATM   16  C7          0       3.193  76.200 -12.251  1.00  0.00     0.026 C 
HETATM   17  C8          0       2.629  77.167 -11.426  1.00  0.00     0.112 C 
HETATM   18  C10         0       1.722  78.009 -12.055  1.00  0.00     0.112 C 
HETATM   19  C12         0       1.857  78.222 -13.422  1.00  0.00     0.028 C 
BRANCH  17  20
HETATM   20  O9          0       3.114  77.379 -10.147  1.00  0.00    -0.357 OA
HETATM   21  H9          0       2.748  78.014  -9.542  1.00  0.00     0.218 HD
ENDBRANCH  17  20
BRANCH  18  22
HETATM   22  O11         0       0.991  78.865 -11.244  1.00  0.00    -0.357 OA
HETATM   23  H11         0       1.478  79.533 -10.774  1.00  0.00     0.218 HD
ENDBRANCH  18  22
ENDBRANCH   4  14
BRANCH   8  24
HETATM   24  O17         0       2.085  78.003 -20.841  1.00  0.00    -0.359 OA
HETATM   25  H17         0       1.404  77.392 -20.585  1.00  0.00     0.218 HD
ENDBRANCH   8  24
TORSDOF 5
ENDMDL
MODEL 2
REMARK VINA RESULT:      -6.6      3.327      7.462
REMARK  5 active torsions:
REMARK  status: ('A' for Active; 'I' for Inactive)
REMARK    1  A    between atoms: C4_4  and  C5_5 
REMARK    2  A    between atoms: C8_8  and  O9_9 
REMARK    3  A    between atoms: C10_11  and  O11_12 
REMARK    4  A    between atoms: C16_18  and  O17_19 
REMARK    5  A    between atoms: C19_22  and  O20_23 
ROOT
HETATM    1  O1          0      -0.124  73.652 -13.852  1.00  0.00    -0.286 OA
HETATM    2  C2          0       0.852  74.277 -13.355  1.00  0.00     0.201 C 
HETATM    3  C3          0       1.190  75.566 -13.733  1.00  0.00     0.067 C 
HETATM    4  C4          0       2.330  76.193 -13.245  1.00  0.00     0.103 C 
HETATM    5  O13         0       3.092  75.543 -12.383  1.00  0.00    -0.307 OA
HETATM    6  C14         0       2.838  74.306 -12.019  1.00  0.00     0.107 C 
HETATM    7  C15         0       3.811  73.495 -11.454  1.00  0.00     0.049 C 
HETATM    8  C16         0       3.616  72.127 -11.309  1.00  0.00     0.093 C 
HETATM    9  C18         0       2.286  71.727 -11.245  1.00  0.00     0.048 C 
HETATM   10  C19         0       1.282  72.536 -11.759  1.00  0.00     0.096 C 
HETATM   11  C21         0       1.601  73.744 -12.317  1.00  0.00     0.084 C 
ENDROOT
BRANCH  10  12
HETATM   12  O20         0       0.054  71.969 -12.088  1.00  0.00    -0.359 OA
HETATM   13  H20         0      -0.350  71.386 -11.457  1.00  0.00     0.218 HD
ENDBRANCH  10  12
BRANCH   4  14
HETATM   14  C5          0       2.939  77.225 -14.086  1.00  0.00     0.025 C 
HETATM   15  C6          0       3.970  78.043 -13.646  1.00  0.00     0.004 C 
HETATM   16  C7          0       4.974  78.360 -14.555  1.00  0.00     0.026 C 
HETATM   17  C8          0       4.890  77.990 -15.893  1.00  0.00     0.112 C 
HETATM   18  C10         0       3.599  77.761 -16.351  1.00  0.00     0.112 C 
HETATM   19  C12         0       2.634  77.362 -15.434  1.00  0.00     0.028 C 
BRANCH  17  20
HETATM   20  O9          0       6.028  77.679 -16.615  1.00  0.00    -0.357 OA
HETATM   21  H9          0       6.910  77.761 -16.272  1.00  0.00     0.218 HD
ENDBRANCH  17  20
BRANCH  18  22
HETATM   22  O11         0       3.441  77.576 -17.717  1.00  0.00    -0.357 OA
HETATM   23  H11         0       4.215  77.682 -18.258  1.00  0.00     0.218 HD
ENDBRANCH  18  22
ENDBRANCH   4  14
BRANCH   8  24
HETATM   24  O17         0       4.648  71.213 -11.549  1.00  0.00    -0.359 OA
HETATM   25  H17         0       5.496  71.492 -11.875  1.00  0.00     0.218 HD
ENDBRANCH   8  24
TORSDOF 5
ENDMDL
MODEL 3
REMARK VINA RESULT:      -6.4      2.813      4.555
REMARK  5 active torsions:
REMARK  status: ('A' for Active; 'I' for Inactive)
REMARK    1  A    between atoms: C4_4  and  C5_5 
REMARK    2  A    between atoms: C8_8  and  O9_9 
REMARK    3  A    between atoms: C10_11  and  O11_12 
REMARK    4  A    between atoms: C16_18  and  O17_19 
REMARK    5  A    between atoms: C19_22  and  O20_23 
ROOT
HETATM    1  O1          0       7.635  78.616 -21.500  1.00  0.00    -0.286 OA
HETATM    2  C2          0       6.435  78.419 -21.163  1.00  0.00     0.201 C 
HETATM    3  C3          0       5.975  78.621 -19.873  1.00  0.00     0.067 C 
HETATM    4  C4          0       4.674  78.298 -19.505  1.00  0.00     0.103 C 
HETATM    5  O13         0       3.858  77.807 -20.421  1.00  0.00    -0.307 OA
HETATM    6  C14         0       4.254  77.561 -21.650  1.00  0.00     0.107 C 
HETATM    7  C15         0       3.558  76.699 -22.484  1.00  0.00     0.049 C 
HETATM    8  C16         0       4.109  76.246 -23.677  1.00  0.00     0.093 C 
HETATM    9  C18         0       5.083  77.071 -24.224  1.00  0.00     0.048 C 
HETATM   10  C19         0       5.768  77.979 -23.427  1.00  0.00     0.096 C 
HETATM   11  C21         0       5.468  78.074 -22.095  1.00  0.00     0.084 C 
ENDROOT
BRANCH  10  12
HETATM   12  O20         0       6.997  78.469 -23.855  1.00  0.00    -0.359 OA
HETATM   13  H20         0       7.052  78.830 -24.732  1.00  0.00     0.218 HD
ENDBRANCH  10  12
BRANCH   4  14
HETATM   14  C5          0       4.439  77.963 -18.099  1.00  0.00     0.025 C 
HETATM   15  C6          0       5.466  77.667 -17.215  1.00  0.00     0.004 C 
HETATM   16  C7          0       5.349  78.136 -15.910  1.00  0.00     0.026 C 
HETATM   17  C8          0       4.191  78.761 -15.461  1.00  0.00     0.112 C 
HETATM   18  C10         0       3.046  78.447 -16.181  1.00  0.00     0.112 C 
HETATM   19  C12         0       3.186  78.062 -17.509  1.00  0.00     0.028 C 
BRANCH  17  20
HETATM   20  O9          0       4.251  79.768 -14.514  1.00  0.00    -0.357 OA
HETATM   21  H9          0       4.095  79.630 -13.587  1.00  0.00     0.218 HD
ENDBRANCH  17  20
BRANCH  18  22
HETATM   22  O11         0       1.838  78.891 -15.664  1.00  0.00    -0.357 OA
HETATM   23  H11         0       1.842  79.202 -14.766  1.00  0.00     0.218 HD
ENDBRANCH  18  22
ENDBRANCH   4  14
BRANCH   8  24
HETATM   24  O17         0       3.943  74.922 -24.101  1.00  0.00    -0.359 OA
HETATM   25  H17         0       3.410  74.704 -24.856  1.00  0.00     0.218 HD
ENDBRANCH   8  24
TORSDOF 5
ENDMDL
MODEL 4
REMARK VINA RESULT:      -6.4      4.805      7.830
REMARK  5 active torsions:
REMARK  status: ('A' for Active; 'I' for Inactive)
REMARK    1  A    between atoms: C4_4  and  C5_5 
REMARK    2  A    between atoms: C8_8  and  O9_9 
REMARK    3  A    between atoms: C10_11  and  O11_12 
REMARK    4  A    between atoms: C16_18  and  O17_19 
REMARK    5  A    between atoms: C19_22  and  O20_23 
ROOT
HETATM    1  O1          0       0.608  71.066 -11.511  1.00  0.00    -0.286 OA
HETATM    2  C2          0       1.629  71.725 -11.850  1.00  0.00     0.201 C 
HETATM    3  C3          0       1.723  73.097 -11.694  1.00  0.00     0.067 C 
HETATM    4  C4          0       2.817  73.811 -12.170  1.00  0.00     0.103 C 
HETATM    5  O13         0       3.795  73.152 -12.766  1.00  0.00    -0.307 OA
HETATM    6  C14         0       3.739  71.855 -12.973  1.00  0.00     0.107 C 
HETATM    7  C15         0       4.536  71.231 -13.922  1.00  0.00     0.049 C 
HETATM    8  C16         0       4.297  69.920 -14.315  1.00  0.00     0.093 C 
HETATM    9  C18         0       3.626  69.140 -13.382  1.00  0.00     0.048 C 
HETATM   10  C19         0       2.857  69.733 -12.389  1.00  0.00     0.096 C 
HETATM   11  C21         0       2.773  71.097 -12.320  1.00  0.00     0.084 C 
ENDROOT
BRANCH  10  12
HETATM   12  O20         0       1.869  68.986 -11.757  1.00  0.00    -0.359 OA
HETATM   13  H20         0       2.005  68.050 -11.670  1.00  0.00     0.218 HD
ENDBRANCH  10  12
BRANCH   4  14
HETATM   14  C5          0       2.599  75.217 -12.518  1.00  0.00     0.025 C 
HETATM   15  C6          0       3.270  76.259 -11.896  1.00  0.00     0.004 C 
HETATM   16  C7          0       3.661  77.336 -12.685  1.00  0.00     0.026 C 
HETATM   17  C8          0       3.281  77.439 -14.018  1.00  0.00     0.112 C 
HETATM   18  C10         0       2.137  76.726 -14.352  1.00  0.00     0.112 C 
HETATM   19  C12         0       1.817  75.603 -13.599  1.00  0.00     0.028 C 
BRANCH  17  20
HETATM   20  O9          0       4.114  78.035 -14.949  1.00  0.00    -0.357 OA
HETATM   21  H9          0       3.853  78.763 -15.501  1.00  0.00     0.218 HD
ENDBRANCH  17  20
BRANCH  18  22
HETATM   22  O11         0       1.608  76.943 -15.616  1.00  0.00    -0.357 OA
HETATM   23  H11         0       0.754  76.566 -15.796  1.00  0.00     0.218 HD
ENDBRANCH  18  22
ENDBRANCH   4  14
BRANCH   8  24
HETATM   24  O17         0       4.417  69.526 -15.653  1.00  0.00    -0.359 OA
HETATM   25  H17         0       4.973  69.997 -16.263  1.00  0.00     0.218 HD
ENDBRANCH   8  24
TORSDOF 5
ENDMDL
MODEL 5
REMARK VINA RESULT:      -6.2      5.134      7.714
REMARK  5 active torsions:
REMARK  status: ('A' for Active; 'I' for Inactive)
REMARK    1  A    between atoms: C4_4  and  C5_5 
REMARK    2  A    between atoms: C8_8  and  O9_9 
REMARK    3  A    between atoms: C10_11  and  O11_12 
REMARK    4  A    between atoms: C16_18  and  O17_19 
REMARK    5  A    between atoms: C19_22  and  O20_23 
ROOT
HETATM    1  O1          0       0.482  71.079 -11.482  1.00  0.00    -0.286 OA
HETATM    2  C2          0       1.468  71.769 -11.863  1.00  0.00     0.201 C 
HETATM    3  C3          0       1.492  73.151 -11.785  1.00  0.00     0.067 C 
HETATM    4  C4          0       2.547  73.891 -12.306  1.00  0.00     0.103 C 
HETATM    5  O13         0       3.555  73.250 -12.871  1.00  0.00    -0.307 OA
HETATM    6  C14         0       3.564  71.942 -13.005  1.00  0.00     0.107 C 
HETATM    7  C15         0       4.389  71.307 -13.922  1.00  0.00     0.049 C 
HETATM    8  C16         0       4.216  69.965 -14.240  1.00  0.00     0.093 C 
HETATM    9  C18         0       3.587  69.206 -13.261  1.00  0.00     0.048 C 
HETATM   10  C19         0       2.793  69.814 -12.298  1.00  0.00     0.096 C 
HETATM   11  C21         0       2.640  71.174 -12.304  1.00  0.00     0.084 C 
ENDROOT
BRANCH  10  12
HETATM   12  O20         0       1.845  69.055 -11.619  1.00  0.00    -0.359 OA
HETATM   13  H20         0       1.173  69.514 -11.130  1.00  0.00     0.218 HD
ENDBRANCH  10  12
BRANCH   4  14
HETATM   14  C5          0       2.257  75.262 -12.731  1.00  0.00     0.025 C 
HETATM   15  C6          0       1.023  75.649 -13.233  1.00  0.00     0.004 C 
HETATM   16  C7          0       0.543  76.903 -12.869  1.00  0.00     0.026 C 
HETATM   17  C8          0       1.321  77.798 -12.143  1.00  0.00     0.112 C 
HETATM   18  C10         0       2.690  77.592 -12.244  1.00  0.00     0.112 C 
HETATM   19  C12         0       3.146  76.309 -12.525  1.00  0.00     0.028 C 
BRANCH  17  20
HETATM   20  O9          0       0.740  78.670 -11.239  1.00  0.00    -0.357 OA
HETATM   21  H9          0       0.887  78.634 -10.301  1.00  0.00     0.218 HD
ENDBRANCH  17  20
BRANCH  18  22
HETATM   22  O11         0       3.514  78.565 -11.696  1.00  0.00    -0.357 OA
HETATM   23  H11         0       4.149  78.277 -11.050  1.00  0.00     0.218 HD
ENDBRANCH  18  22
ENDBRANCH   4  14
BRANCH   8  24
HETATM   24  O17         0       4.351  69.504 -15.554  1.00  0.00    -0.359 OA
HETATM   25  H17         0       3.597  69.254 -16.076  1.00  0.00     0.218 HD
ENDBRANCH   8  24
TORSDOF 5
ENDMDL
MODEL 6
REMARK VINA RESULT:      -6.1      9.182     11.569
REMARK  5 active torsions:
REMARK  status: ('A' for Active; 'I' for Inactive)
REMARK    1  A    between atoms: C4_4  and  C5_5 
REMARK    2  A    between atoms: C8_8  and  O9_9 
REMARK    3  A    between atoms: C10_11  and  O11_12 
REMARK    4  A    between atoms: C16_18  and  O17_19 
REMARK    5  A    between atoms: C19_22  and  O20_23 
ROOT
HETATM    1  O1          0       2.068  71.289 -10.169  1.00  0.00    -0.286 OA
HETATM    2  C2          0       2.127  70.289 -10.936  1.00  0.00     0.201 C 
HETATM    3  C3          0       1.600  69.054 -10.600  1.00  0.00     0.067 C 
HETATM    4  C4          0       1.769  67.943 -11.418  1.00  0.00     0.103 C 
HETATM    5  O13         0       2.434  68.084 -12.552  1.00  0.00    -0.307 OA
HETATM    6  C14         0       2.986  69.226 -12.900  1.00  0.00     0.107 C 
HETATM    7  C15         0       3.995  69.289 -13.850  1.00  0.00     0.049 C 
HETATM    8  C16         0       4.746  70.445 -14.030  1.00  0.00     0.093 C 
HETATM    9  C18         0       4.118  71.620 -13.633  1.00  0.00     0.048 C 
HETATM   10  C19         0       3.074  71.588 -12.719  1.00  0.00     0.096 C 
HETATM   11  C21         0       2.647  70.389 -12.217  1.00  0.00     0.084 C 
ENDROOT
BRANCH  10  12
HETATM   12  O20         0       2.754  72.743 -12.011  1.00  0.00    -0.359 OA
HETATM   13  H20         0       1.839  72.907 -11.818  1.00  0.00     0.218 HD
ENDBRANCH  10  12
BRANCH   4  14
HETATM   14  C5          0       1.745  66.627 -10.776  1.00  0.00     0.025 C 
HETATM   15  C6          0       0.596  66.084 -10.219  1.00  0.00     0.004 C 
HETATM   16  C7          0       0.390  64.717 -10.374  1.00  0.00     0.026 C 
HETATM   17  C8          0       1.355  63.893 -10.944  1.00  0.00     0.112 C 
HETATM   18  C10         0       2.651  64.386 -10.876  1.00  0.00     0.112 C 
HETATM   19  C12         0       2.831  65.763 -10.808  1.00  0.00     0.028 C 
BRANCH  17  20
HETATM   20  O9          0       0.991  62.789 -11.694  1.00  0.00    -0.357 OA
HETATM   21  H9          0       0.208  62.275 -11.531  1.00  0.00     0.218 HD
ENDBRANCH  17  20
BRANCH  18  22
HETATM   22  O11         0       3.671  63.526 -11.257  1.00  0.00    -0.357 OA
HETATM   23  H11         0       4.556  63.872 -11.234  1.00  0.00     0.218 HD
ENDBRANCH  18  22
ENDBRANCH   4  14
BRANCH   8  24
HETATM   24  O17         0       6.124  70.390 -14.265  1.00  0.00    -0.359 OA
HETATM   25  H17         0       6.660  69.684 -13.925  1.00  0.00     0.218 HD
ENDBRANCH   8  24
TORSDOF 5
ENDMDL
MODEL 7
REMARK VINA RESULT:      -6.0      2.881      5.012
REMARK  5 active torsions:
REMARK  status: ('A' for Active; 'I' for Inactive)
REMARK    1  A    between atoms: C4_4  and  C5_5 
REMARK    2  A    between atoms: C8_8  and  O9_9 
REMARK    3  A    between atoms: C10_11  and  O11_12 
REMARK    4  A    between atoms: C16_18  and  O17_19 
REMARK    5  A    between atoms: C19_22  and  O20_23 
ROOT
HETATM    1  O1          0       7.319  77.834 -21.651  1.00  0.00    -0.286 OA
HETATM    2  C2          0       6.090  78.057 -21.475  1.00  0.00     0.201 C 
HETATM    3  C3          0       5.601  78.742 -20.375  1.00  0.00     0.067 C 
HETATM    4  C4          0       4.236  78.884 -20.153  1.00  0.00     0.103 C 
HETATM    5  O13         0       3.393  78.366 -21.028  1.00  0.00    -0.307 OA
HETATM    6  C14         0       3.803  77.674 -22.069  1.00  0.00     0.107 C 
HETATM    7  C15         0       2.959  76.808 -22.749  1.00  0.00     0.049 C 
HETATM    8  C16         0       3.454  75.897 -23.675  1.00  0.00     0.093 C 
HETATM    9  C18         0       4.668  76.248 -24.253  1.00  0.00     0.048 C 
HETATM   10  C19         0       5.516  77.148 -23.621  1.00  0.00     0.096 C 
HETATM   11  C21         0       5.146  77.706 -22.428  1.00  0.00     0.084 C 
ENDROOT
BRANCH  10  12
HETATM   12  O20         0       6.866  77.160 -23.957  1.00  0.00    -0.359 OA
HETATM   13  H20         0       7.271  76.338 -24.205  1.00  0.00     0.218 HD
ENDBRANCH  10  12
BRANCH   4  14
HETATM   14  C5          0       3.798  79.052 -18.766  1.00  0.00     0.025 C 
HETATM   15  C6          0       2.536  78.680 -18.326  1.00  0.00     0.004 C 
HETATM   16  C7          0       2.436  78.112 -17.060  1.00  0.00     0.026 C 
HETATM   17  C8          0       3.531  78.039 -16.206  1.00  0.00     0.112 C 
HETATM   18  C10         0       4.529  78.969 -16.462  1.00  0.00     0.112 C 
HETATM   19  C12         0       4.661  79.457 -17.756  1.00  0.00     0.028 C 
BRANCH  17  20
HETATM   20  O9          0       3.674  76.981 -15.326  1.00  0.00    -0.357 OA
HETATM   21  H9          0       3.160  76.182 -15.372  1.00  0.00     0.218 HD
ENDBRANCH  17  20
BRANCH  18  22
HETATM   22  O11         0       5.552  79.066 -15.529  1.00  0.00    -0.357 OA
HETATM   23  H11         0       6.056  78.278 -15.360  1.00  0.00     0.218 HD
ENDBRANCH  18  22
ENDBRANCH   4  14
BRANCH   8  24
HETATM   24  O17         0       2.948  74.595 -23.758  1.00  0.00    -0.359 OA
HETATM   25  H17         0       2.153  74.398 -24.239  1.00  0.00     0.218 HD
ENDBRANCH   8  24
TORSDOF 5
ENDMDL
MODEL 8
REMARK VINA RESULT:      -5.8      5.091     10.122
REMARK  5 active torsions:
REMARK  status: ('A' for Active; 'I' for Inactive)
REMARK    1  A    between atoms: C4_4  and  C5_5 
REMARK    2  A    between atoms: C8_8  and  O9_9 
REMARK    3  A    between atoms: C10_11  and  O11_12 
REMARK    4  A    between atoms: C16_18  and  O17_19 
REMARK    5  A    between atoms: C19_22  and  O20_23 
ROOT
HETATM    1  O1          0       4.414  76.359 -23.124  1.00  0.00    -0.286 OA
HETATM    2  C2          0       5.330  77.120 -22.708  1.00  0.00     0.201 C 
HETATM    3  C3          0       6.487  77.365 -23.427  1.00  0.00     0.067 C 
HETATM    4  C4          0       7.525  78.126 -22.900  1.00  0.00     0.103 C 
HETATM    5  O13         0       7.385  78.639 -21.691  1.00  0.00    -0.307 OA
HETATM    6  C14         0       6.324  78.407 -20.951  1.00  0.00     0.107 C 
HETATM    7  C15         0       6.336  78.592 -19.576  1.00  0.00     0.049 C 
HETATM    8  C16         0       5.309  78.108 -18.774  1.00  0.00     0.093 C 
HETATM    9  C18         0       4.091  77.935 -19.420  1.00  0.00     0.048 C 
HETATM   10  C19         0       4.038  77.794 -20.800  1.00  0.00     0.096 C 
HETATM   11  C21         0       5.193  77.842 -21.532  1.00  0.00     0.084 C 
ENDROOT
BRANCH  10  12
HETATM   12  O20         0       2.922  77.200 -21.380  1.00  0.00    -0.359 OA
HETATM   13  H20         0       2.548  76.440 -20.951  1.00  0.00     0.218 HD
ENDBRANCH  10  12
BRANCH   4  14
HETATM   14  C5          0       8.875  77.854 -23.399  1.00  0.00     0.025 C 
HETATM   15  C6          0       9.208  76.685 -24.068  1.00  0.00     0.004 C 
HETATM   16  C7          0      10.096  76.783 -25.134  1.00  0.00     0.026 C 
HETATM   17  C8          0      10.737  77.979 -25.441  1.00  0.00     0.112 C 
HETATM   18  C10         0      10.836  78.872 -24.383  1.00  0.00     0.112 C 
HETATM   19  C12         0       9.884  78.807 -23.373  1.00  0.00     0.028 C 
BRANCH  17  20
HETATM   20  O9          0      11.044  78.302 -26.751  1.00  0.00    -0.357 OA
HETATM   21  H9          0      11.895  78.621 -27.031  1.00  0.00     0.218 HD
ENDBRANCH  17  20
BRANCH  18  22
HETATM   22  O11         0      11.628  79.995 -24.581  1.00  0.00    -0.357 OA
HETATM   23  H11         0      11.406  80.554 -25.316  1.00  0.00     0.218 HD
ENDBRANCH  18  22
ENDBRANCH   4  14
BRANCH   8  24
HETATM   24  O17         0       5.570  77.529 -17.527  1.00  0.00    -0.359 OA
HETATM   25  H17         0       6.301  77.809 -16.989  1.00  0.00     0.218 HD
ENDBRANCH   8  24
TORSDOF 5
ENDMDL
MODEL 9
REMARK VINA RESULT:      -5.8      6.616     10.723
REMARK  5 active torsions:
REMARK  status: ('A' for Active; 'I' for Inactive)
REMARK    1  A    between atoms: C4_4  and  C5_5 
REMARK    2  A    between atoms: C8_8  and  O9_9 
REMARK    3  A    between atoms: C10_11  and  O11_12 
REMARK    4  A    between atoms: C16_18  and  O17_19 
REMARK    5  A    between atoms: C19_22  and  O20_23 
ROOT
HETATM    1  O1          0       6.525  77.908 -20.309  1.00  0.00    -0.286 OA
HETATM    2  C2          0       6.592  77.653 -21.543  1.00  0.00     0.201 C 
HETATM    3  C3          0       7.750  77.822 -22.282  1.00  0.00     0.067 C 
HETATM    4  C4          0       7.770  77.632 -23.659  1.00  0.00     0.103 C 
HETATM    5  O13         0       6.655  77.262 -24.265  1.00  0.00    -0.307 OA
HETATM    6  C14         0       5.519  77.125 -23.616  1.00  0.00     0.107 C 
HETATM    7  C15         0       4.297  77.136 -24.272  1.00  0.00     0.049 C 
HETATM    8  C16         0       3.102  77.247 -23.570  1.00  0.00     0.093 C 
HETATM    9  C18         0       3.155  76.817 -22.250  1.00  0.00     0.048 C 
HETATM   10  C19         0       4.368  76.750 -21.578  1.00  0.00     0.096 C 
HETATM   11  C21         0       5.523  77.093 -22.226  1.00  0.00     0.084 C 
ENDROOT
BRANCH  10  12
HETATM   12  O20         0       4.375  76.750 -20.186  1.00  0.00    -0.359 OA
HETATM   13  H20         0       3.650  77.167 -19.737  1.00  0.00     0.218 HD
ENDBRANCH  10  12
BRANCH   4  14
HETATM   14  C5          0       8.774  78.373 -24.423  1.00  0.00     0.025 C 
HETATM   15  C6          0       9.998  78.751 -23.889  1.00  0.00     0.004 C 
HETATM   16  C7          0      11.112  78.683 -24.719  1.00  0.00     0.026 C 
HETATM   17  C8          0      10.997  78.380 -26.071  1.00  0.00     0.112 C 
HETATM   18  C10         0       9.749  78.646 -26.621  1.00  0.00     0.112 C 
HETATM   19  C12         0       8.641  78.623 -25.783  1.00  0.00     0.028 C 
BRANCH  17  20
HETATM   20  O9          0      11.991  77.677 -26.728  1.00  0.00    -0.357 OA
HETATM   21  H9          0      12.702  78.089 -27.206  1.00  0.00     0.218 HD
ENDBRANCH  17  20
BRANCH  18  22
HETATM   22  O11         0       9.635  78.541 -27.999  1.00  0.00    -0.357 OA
HETATM   23  H11         0      10.151  77.866 -28.424  1.00  0.00     0.218 HD
ENDBRANCH  18  22
ENDBRANCH   4  14
BRANCH   8  24
HETATM   24  O17         0       2.047  78.033 -24.047  1.00  0.00    -0.359 OA
HETATM   25  H17         0       1.665  77.889 -24.904  1.00  0.00     0.218 HD
ENDBRANCH   8  24
TORSDOF 5
ENDMDL
