MODEL 1
REMARK VINA RESULT:      -5.1      0.000      0.000
REMARK  5 active torsions:
REMARK  status: ('A' for Active; 'I' for Inactive)
REMARK    1  A    between atoms: C4_4  and  C5_5 
REMARK    2  A    between atoms: C8_8  and  O9_9 
REMARK    3  A    between atoms: C10_11  and  O11_12 
REMARK    4  A    between atoms: C16_18  and  O17_19 
REMARK    5  A    between atoms: C19_22  and  O20_23 
ROOT
HETATM    1  O1          0      54.945  55.116 -11.059  1.00  0.00    -0.286 OA
HETATM    2  C2          0      54.642  53.956 -11.453  1.00  0.00     0.201 C 
HETATM    3  C3          0      55.276  52.816 -10.988  1.00  0.00     0.067 C 
HETATM    4  C4          0      54.993  51.560 -11.514  1.00  0.00     0.103 C 
HETATM    5  O13         0      54.082  51.460 -12.465  1.00  0.00    -0.307 OA
HETATM    6  C14         0      53.477  52.515 -12.968  1.00  0.00     0.107 C 
HETATM    7  C15         0      52.842  52.474 -14.200  1.00  0.00     0.049 C 
HETATM    8  C16         0      52.431  53.638 -14.839  1.00  0.00     0.093 C 
HETATM    9  C18         0      52.202  54.720 -13.998  1.00  0.00     0.048 C 
HETATM   10  C19         0      52.785  54.771 -12.739  1.00  0.00     0.096 C 
HETATM   11  C21         0      53.579  53.739 -12.316  1.00  0.00     0.084 C 
ENDROOT
BRANCH  10  12
HETATM   12  O20         0      52.916  55.999 -12.098  1.00  0.00    -0.359 OA
HETATM   13  H20         0      53.772  56.409 -12.093  1.00  0.00     0.218 HD
ENDBRANCH  10  12
BRANCH   4  14
HETATM   14  C5          0      56.052  50.551 -11.443  1.00  0.00     0.025 C 
HETATM   15  C6          0      56.912  50.439 -10.361  1.00  0.00     0.004 C 
HETATM   16  C7          0      57.274  49.158  -9.956  1.00  0.00     0.026 C 
HETATM   17  C8          0      56.903  48.031 -10.682  1.00  0.00     0.112 C 
HETATM   18  C10         0      56.619  48.271 -12.020  1.00  0.00     0.112 C 
HETATM   19  C12         0      56.178  49.538 -12.384  1.00  0.00     0.028 C 
BRANCH  17  20
HETATM   20  O9          0      56.643  46.831 -10.045  1.00  0.00    -0.357 OA
HETATM   21  H9          0      56.471  46.016 -10.503  1.00  0.00     0.218 HD
ENDBRANCH  17  20
BRANCH  18  22
HETATM   22  O11         0      56.429  47.161 -12.831  1.00  0.00    -0.357 OA
HETATM   23  H11         0      56.594  47.274 -13.760  1.00  0.00     0.218 HD
ENDBRANCH  18  22
ENDBRANCH   4  14
BRANCH   8  24
HETATM   24  O17         0      52.569  53.798 -16.222  1.00  0.00    -0.359 OA
HETATM   25  H17         0      51.890  54.203 -16.748  1.00  0.00     0.218 HD
ENDBRANCH   8  24
TORSDOF 5
ENDMDL
MODEL 2
REMARK VINA RESULT:      -5.1      2.621      6.933
REMARK  5 active torsions:
REMARK  status: ('A' for Active; 'I' for Inactive)
REMARK    1  A    between atoms: C4_4  and  C5_5 
REMARK    2  A    between atoms: C8_8  and  O9_9 
REMARK    3  A    between atoms: C10_11  and  O11_12 
REMARK    4  A    between atoms: C16_18  and  O17_19 
REMARK    5  A    between atoms: C19_22  and  O20_23 
ROOT
HETATM    1  O1          0      54.295  50.376 -12.293  1.00  0.00    -0.286 OA
HETATM    2  C2          0      54.370  51.502 -12.859  1.00  0.00     0.201 C 
HETATM    3  C3          0      53.342  52.429 -12.823  1.00  0.00     0.067 C 
HETATM    4  C4          0      53.409  53.618 -13.540  1.00  0.00     0.103 C 
HETATM    5  O13         0      54.492  53.870 -14.253  1.00  0.00    -0.307 OA
HETATM    6  C14         0      55.480  53.007 -14.351  1.00  0.00     0.107 C 
HETATM    7  C15         0      56.408  53.073 -15.380  1.00  0.00     0.049 C 
HETATM    8  C16         0      57.288  52.026 -15.626  1.00  0.00     0.093 C 
HETATM    9  C18         0      57.552  51.211 -14.532  1.00  0.00     0.048 C 
HETATM   10  C19         0      56.667  51.157 -13.463  1.00  0.00     0.096 C 
HETATM   11  C21         0      55.535  51.924 -13.480  1.00  0.00     0.084 C 
ENDROOT
BRANCH  10  12
HETATM   12  O20         0      56.698  50.059 -12.609  1.00  0.00    -0.359 OA
HETATM   13  H20         0      57.329  49.372 -12.790  1.00  0.00     0.218 HD
ENDBRANCH  10  12
BRANCH   4  14
HETATM   14  C5          0      52.141  54.228 -13.945  1.00  0.00     0.025 C 
HETATM   15  C6          0      51.800  55.535 -13.630  1.00  0.00     0.004 C 
HETATM   16  C7          0      51.119  56.274 -14.592  1.00  0.00     0.026 C 
HETATM   17  C8          0      50.673  55.695 -15.775  1.00  0.00     0.112 C 
HETATM   18  C10         0      50.495  54.319 -15.717  1.00  0.00     0.112 C 
HETATM   19  C12         0      51.251  53.594 -14.803  1.00  0.00     0.028 C 
BRANCH  17  20
HETATM   20  O9          0      50.628  56.427 -16.949  1.00  0.00    -0.357 OA
HETATM   21  H9          0      49.864  56.474 -17.512  1.00  0.00     0.218 HD
ENDBRANCH  17  20
BRANCH  18  22
HETATM   22  O11         0      49.875  53.719 -16.803  1.00  0.00    -0.357 OA
HETATM   23  H11         0      48.983  53.418 -16.677  1.00  0.00     0.218 HD
ENDBRANCH  18  22
ENDBRANCH   4  14
BRANCH   8  24
HETATM   24  O17         0      57.604  51.631 -16.931  1.00  0.00    -0.359 OA
HETATM   25  H17         0      57.983  52.236 -17.558  1.00  0.00     0.218 HD
ENDBRANCH   8  24
TORSDOF 5
ENDMDL
MODEL 3
REMARK VINA RESULT:      -5.1      1.883      6.820
REMARK  5 active torsions:
REMARK  status: ('A' for Active; 'I' for Inactive)
REMARK    1  A    between atoms: C4_4  and  C5_5 
REMARK    2  A    between atoms: C8_8  and  O9_9 
REMARK    3  A    between atoms: C10_11  and  O11_12 
REMARK    4  A    between atoms: C16_18  and  O17_19 
REMARK    5  A    between atoms: C19_22  and  O20_23 
ROOT
HETATM    1  O1          0      55.129  54.647 -10.254  1.00  0.00    -0.286 OA
HETATM    2  C2          0      54.821  54.208 -11.396  1.00  0.00     0.201 C 
HETATM    3  C3          0      53.888  54.826 -12.212  1.00  0.00     0.067 C 
HETATM    4  C4          0      53.493  54.266 -13.421  1.00  0.00     0.103 C 
HETATM    5  O13         0      54.041  53.126 -13.802  1.00  0.00    -0.307 OA
HETATM    6  C14         0      54.903  52.479 -13.049  1.00  0.00     0.107 C 
HETATM    7  C15         0      55.172  51.131 -13.237  1.00  0.00     0.049 C 
HETATM    8  C16         0      55.879  50.396 -12.293  1.00  0.00     0.093 C 
HETATM    9  C18         0      56.722  51.144 -11.480  1.00  0.00     0.048 C 
HETATM   10  C19         0      56.511  52.505 -11.306  1.00  0.00     0.096 C 
HETATM   11  C21         0      55.473  53.119 -11.953  1.00  0.00     0.084 C 
ENDROOT
BRANCH  10  12
HETATM   12  O20         0      57.053  53.141 -10.194  1.00  0.00    -0.359 OA
HETATM   13  H20         0      57.812  53.696 -10.325  1.00  0.00     0.218 HD
ENDBRANCH  10  12
BRANCH   4  14
HETATM   14  C5          0      52.154  54.601 -13.908  1.00  0.00     0.025 C 
HETATM   15  C6          0      51.467  55.736 -13.501  1.00  0.00     0.004 C 
HETATM   16  C7          0      50.711  56.409 -14.455  1.00  0.00     0.026 C 
HETATM   17  C8          0      50.532  55.900 -15.736  1.00  0.00     0.112 C 
HETATM   18  C10         0      50.702  54.526 -15.843  1.00  0.00     0.112 C 
HETATM   19  C12         0      51.532  53.890 -14.927  1.00  0.00     0.028 C 
BRANCH  17  20
HETATM   20  O9          0      50.408  56.745 -16.824  1.00  0.00    -0.357 OA
HETATM   21  H9          0      49.795  56.603 -17.536  1.00  0.00     0.218 HD
ENDBRANCH  17  20
BRANCH  18  22
HETATM   22  O11         0      50.353  53.941 -17.052  1.00  0.00    -0.357 OA
HETATM   23  H11         0      50.353  54.504 -17.817  1.00  0.00     0.218 HD
ENDBRANCH  18  22
ENDBRANCH   4  14
BRANCH   8  24
HETATM   24  O17         0      55.517  49.084 -11.969  1.00  0.00    -0.359 OA
HETATM   25  H17         0      56.140  48.473 -11.595  1.00  0.00     0.218 HD
ENDBRANCH   8  24
TORSDOF 5
ENDMDL
MODEL 4
REMARK VINA RESULT:      -4.8      1.957      2.469
REMARK  5 active torsions:
REMARK  status: ('A' for Active; 'I' for Inactive)
REMARK    1  A    between atoms: C4_4  and  C5_5 
REMARK    2  A    between atoms: C8_8  and  O9_9 
REMARK    3  A    between atoms: C10_11  and  O11_12 
REMARK    4  A    between atoms: C16_18  and  O17_19 
REMARK    5  A    between atoms: C19_22  and  O20_23 
ROOT
HETATM    1  O1          0      55.070  56.034 -14.161  1.00  0.00    -0.286 OA
HETATM    2  C2          0      54.517  54.935 -13.883  1.00  0.00     0.201 C 
HETATM    3  C3          0      55.217  53.845 -13.394  1.00  0.00     0.067 C 
HETATM    4  C4          0      54.602  52.615 -13.193  1.00  0.00     0.103 C 
HETATM    5  O13         0      53.313  52.499 -13.459  1.00  0.00    -0.307 OA
HETATM    6  C14         0      52.610  53.491 -13.960  1.00  0.00     0.107 C 
HETATM    7  C15         0      51.400  53.277 -14.604  1.00  0.00     0.049 C 
HETATM    8  C16         0      50.791  54.281 -15.348  1.00  0.00     0.093 C 
HETATM    9  C18         0      51.142  55.575 -14.985  1.00  0.00     0.048 C 
HETATM   10  C19         0      52.324  55.820 -14.298  1.00  0.00     0.096 C 
HETATM   11  C21         0      53.141  54.776 -13.961  1.00  0.00     0.084 C 
ENDROOT
BRANCH  10  12
HETATM   12  O20         0      52.874  57.097 -14.325  1.00  0.00    -0.359 OA
HETATM   13  H20         0      53.714  57.229 -13.902  1.00  0.00     0.218 HD
ENDBRANCH  10  12
BRANCH   4  14
HETATM   14  C5          0      55.448  51.423 -13.271  1.00  0.00     0.025 C 
HETATM   15  C6          0      56.602  51.368 -14.038  1.00  0.00     0.004 C 
HETATM   16  C7          0      57.691  50.678 -13.516  1.00  0.00     0.026 C 
HETATM   17  C8          0      57.597  49.953 -12.333  1.00  0.00     0.112 C 
HETATM   18  C10         0      56.310  49.552 -12.001  1.00  0.00     0.112 C 
HETATM   19  C12         0      55.241  50.309 -12.466  1.00  0.00     0.028 C 
BRANCH  17  20
HETATM   20  O9          0      58.680  49.844 -11.480  1.00  0.00    -0.357 OA
HETATM   21  H9          0      59.494  49.413 -11.712  1.00  0.00     0.218 HD
ENDBRANCH  17  20
BRANCH  18  22
HETATM   22  O11         0      56.181  48.670 -10.938  1.00  0.00    -0.357 OA
HETATM   23  H11         0      55.930  47.777 -11.147  1.00  0.00     0.218 HD
ENDBRANCH  18  22
ENDBRANCH   4  14
BRANCH   8  24
HETATM   24  O17         0      50.156  54.004 -16.564  1.00  0.00    -0.359 OA
HETATM   25  H17         0      49.453  54.550 -16.895  1.00  0.00     0.218 HD
ENDBRANCH   8  24
TORSDOF 5
ENDMDL
MODEL 5
REMARK VINA RESULT:      -4.8      3.310      7.325
REMARK  5 active torsions:
REMARK  status: ('A' for Active; 'I' for Inactive)
REMARK    1  A    between atoms: C4_4  and  C5_5 
REMARK    2  A    between atoms: C8_8  and  O9_9 
REMARK    3  A    between atoms: C10_11  and  O11_12 
REMARK    4  A    between atoms: C16_18  and  O17_19 
REMARK    5  A    between atoms: C19_22  and  O20_23 
ROOT
HETATM    1  O1          0      53.760  51.789 -12.509  1.00  0.00    -0.286 OA
HETATM    2  C2          0      53.364  52.984 -12.579  1.00  0.00     0.201 C 
HETATM    3  C3          0      52.299  53.377 -13.372  1.00  0.00     0.067 C 
HETATM    4  C4          0      51.949  54.716 -13.510  1.00  0.00     0.103 C 
HETATM    5  O13         0      52.643  55.625 -12.849  1.00  0.00    -0.307 OA
HETATM    6  C14         0      53.685  55.310 -12.112  1.00  0.00     0.107 C 
HETATM    7  C15         0      54.638  56.252 -11.751  1.00  0.00     0.049 C 
HETATM    8  C16         0      55.855  55.873 -11.198  1.00  0.00     0.093 C 
HETATM    9  C18         0      55.849  54.641 -10.556  1.00  0.00     0.048 C 
HETATM   10  C19         0      54.882  53.692 -10.858  1.00  0.00     0.096 C 
HETATM   11  C21         0      53.917  53.978 -11.785  1.00  0.00     0.084 C 
ENDROOT
BRANCH  10  12
HETATM   12  O20         0      55.125  52.354 -10.561  1.00  0.00    -0.359 OA
HETATM   13  H20         0      54.757  51.696 -11.138  1.00  0.00     0.218 HD
ENDBRANCH  10  12
BRANCH   4  14
HETATM   14  C5          0      51.276  55.107 -14.750  1.00  0.00     0.025 C 
HETATM   15  C6          0      50.644  56.332 -14.908  1.00  0.00     0.004 C 
HETATM   16  C7          0      50.756  56.959 -16.145  1.00  0.00     0.026 C 
HETATM   17  C8          0      51.359  56.332 -17.230  1.00  0.00     0.112 C 
HETATM   18  C10         0      51.375  54.945 -17.162  1.00  0.00     0.112 C 
HETATM   19  C12         0      51.348  54.345 -15.909  1.00  0.00     0.028 C 
BRANCH  17  20
HETATM   20  O9          0      52.062  57.063 -18.170  1.00  0.00    -0.357 OA
HETATM   21  H9          0      52.088  58.013 -18.190  1.00  0.00     0.218 HD
ENDBRANCH  17  20
BRANCH  18  22
HETATM   22  O11         0      51.792  54.265 -18.298  1.00  0.00    -0.357 OA
HETATM   23  H11         0      52.724  54.269 -18.483  1.00  0.00     0.218 HD
ENDBRANCH  18  22
ENDBRANCH   4  14
BRANCH   8  24
HETATM   24  O17         0      57.048  56.512 -11.553  1.00  0.00    -0.359 OA
HETATM   25  H17         0      57.891  56.202 -11.245  1.00  0.00     0.218 HD
ENDBRANCH   8  24
TORSDOF 5
ENDMDL
MODEL 6
REMARK VINA RESULT:      -4.8      6.077      9.050
REMARK  5 active torsions:
REMARK  status: ('A' for Active; 'I' for Inactive)
REMARK    1  A    between atoms: C4_4  and  C5_5 
REMARK    2  A    between atoms: C8_8  and  O9_9 
REMARK    3  A    between atoms: C10_11  and  O11_12 
REMARK    4  A    between atoms: C16_18  and  O17_19 
REMARK    5  A    between atoms: C19_22  and  O20_23 
ROOT
HETATM    1  O1          0      59.955  43.970 -11.905  1.00  0.00    -0.286 OA
HETATM    2  C2          0      58.885  44.173 -11.268  1.00  0.00     0.201 C 
HETATM    3  C3          0      57.879  43.227 -11.169  1.00  0.00     0.067 C 
HETATM    4  C4          0      56.669  43.513 -10.548  1.00  0.00     0.103 C 
HETATM    5  O13         0      56.491  44.714 -10.026  1.00  0.00    -0.307 OA
HETATM    6  C14         0      57.398  45.660 -10.125  1.00  0.00     0.107 C 
HETATM    7  C15         0      57.080  46.999  -9.949  1.00  0.00     0.049 C 
HETATM    8  C16         0      57.972  48.005 -10.302  1.00  0.00     0.093 C 
HETATM    9  C18         0      59.309  47.626 -10.316  1.00  0.00     0.048 C 
HETATM   10  C19         0      59.662  46.290 -10.443  1.00  0.00     0.096 C 
HETATM   11  C21         0      58.686  45.336 -10.539  1.00  0.00     0.084 C 
ENDROOT
BRANCH  10  12
HETATM   12  O20         0      60.939  45.963 -10.888  1.00  0.00    -0.359 OA
HETATM   13  H20         0      61.487  46.663 -11.221  1.00  0.00     0.218 HD
ENDBRANCH  10  12
BRANCH   4  14
HETATM   14  C5          0      55.496  42.755 -10.987  1.00  0.00     0.025 C 
HETATM   15  C6          0      55.211  41.477 -10.528  1.00  0.00     0.004 C 
HETATM   16  C7          0      53.877  41.158 -10.294  1.00  0.00     0.026 C 
HETATM   17  C8          0      52.848  42.031 -10.632  1.00  0.00     0.112 C 
HETATM   18  C10         0      53.169  42.949 -11.623  1.00  0.00     0.112 C 
HETATM   19  C12         0      54.501  43.314 -11.779  1.00  0.00     0.028 C 
BRANCH  17  20
HETATM   20  O9          0      51.692  42.091  -9.875  1.00  0.00    -0.357 OA
HETATM   21  H9          0      50.903  41.601 -10.078  1.00  0.00     0.218 HD
ENDBRANCH  17  20
BRANCH  18  22
HETATM   22  O11         0      52.130  43.715 -12.130  1.00  0.00    -0.357 OA
HETATM   23  H11         0      51.272  43.307 -12.167  1.00  0.00     0.218 HD
ENDBRANCH  18  22
ENDBRANCH   4  14
BRANCH   8  24
HETATM   24  O17         0      57.535  49.185 -10.915  1.00  0.00    -0.359 OA
HETATM   25  H17         0      57.702  49.362 -11.833  1.00  0.00     0.218 HD
ENDBRANCH   8  24
TORSDOF 5
ENDMDL
MODEL 7
REMARK VINA RESULT:      -4.8      1.973      6.998
REMARK  5 active torsions:
REMARK  status: ('A' for Active; 'I' for Inactive)
REMARK    1  A    between atoms: C4_4  and  C5_5 
REMARK    2  A    between atoms: C8_8  and  O9_9 
REMARK    3  A    between atoms: C10_11  and  O11_12 
REMARK    4  A    between atoms: C16_18  and  O17_19 
REMARK    5  A    between atoms: C19_22  and  O20_23 
ROOT
HETATM    1  O1          0      55.138  49.608 -12.301  1.00  0.00    -0.286 OA
HETATM    2  C2          0      54.960  50.839 -12.090  1.00  0.00     0.201 C 
HETATM    3  C3          0      53.976  51.575 -12.727  1.00  0.00     0.067 C 
HETATM    4  C4          0      53.867  52.950 -12.554  1.00  0.00     0.103 C 
HETATM    5  O13         0      54.717  53.557 -11.744  1.00  0.00    -0.307 OA
HETATM    6  C14         0      55.693  52.911 -11.144  1.00  0.00     0.107 C 
HETATM    7  C15         0      56.801  53.572 -10.632  1.00  0.00     0.049 C 
HETATM    8  C16         0      57.936  52.877 -10.233  1.00  0.00     0.093 C 
HETATM    9  C18         0      57.717  51.552  -9.875  1.00  0.00     0.048 C 
HETATM   10  C19         0      56.594  50.874 -10.331  1.00  0.00     0.096 C 
HETATM   11  C21         0      55.687  51.521 -11.126  1.00  0.00     0.084 C 
ENDROOT
BRANCH  10  12
HETATM   12  O20         0      56.598  49.483 -10.344  1.00  0.00    -0.359 OA
HETATM   13  H20         0      56.605  49.030  -9.509  1.00  0.00     0.218 HD
ENDBRANCH  10  12
BRANCH   4  14
HETATM   14  C5          0      53.264  53.717 -13.645  1.00  0.00     0.025 C 
HETATM   15  C6          0      52.084  53.337 -14.268  1.00  0.00     0.004 C 
HETATM   16  C7          0      51.194  54.343 -14.630  1.00  0.00     0.026 C 
HETATM   17  C8          0      51.522  55.689 -14.501  1.00  0.00     0.112 C 
HETATM   18  C10         0      52.885  55.954 -14.484  1.00  0.00     0.112 C 
HETATM   19  C12         0      53.746  54.959 -14.037  1.00  0.00     0.028 C 
BRANCH  17  20
HETATM   20  O9          0      50.552  56.629 -14.202  1.00  0.00    -0.357 OA
HETATM   21  H9          0      49.720  56.691 -14.656  1.00  0.00     0.218 HD
ENDBRANCH  17  20
BRANCH  18  22
HETATM   22  O11         0      53.266  57.287 -14.548  1.00  0.00    -0.357 OA
HETATM   23  H11         0      52.771  57.901 -14.018  1.00  0.00     0.218 HD
ENDBRANCH  18  22
ENDBRANCH   4  14
BRANCH   8  24
HETATM   24  O17         0      59.220  53.365 -10.497  1.00  0.00    -0.359 OA
HETATM   25  H17         0      59.635  54.008  -9.934  1.00  0.00     0.218 HD
ENDBRANCH   8  24
TORSDOF 5
ENDMDL
MODEL 8
REMARK VINA RESULT:      -4.8      2.252      6.942
REMARK  5 active torsions:
REMARK  status: ('A' for Active; 'I' for Inactive)
REMARK    1  A    between atoms: C4_4  and  C5_5 
REMARK    2  A    between atoms: C8_8  and  O9_9 
REMARK    3  A    between atoms: C10_11  and  O11_12 
REMARK    4  A    between atoms: C16_18  and  O17_19 
REMARK    5  A    between atoms: C19_22  and  O20_23 
ROOT
HETATM    1  O1          0      57.091  53.179 -14.866  1.00  0.00    -0.286 OA
HETATM    2  C2          0      56.040  52.647 -14.413  1.00  0.00     0.201 C 
HETATM    3  C3          0      54.774  53.132 -14.694  1.00  0.00     0.067 C 
HETATM    4  C4          0      53.639  52.591 -14.100  1.00  0.00     0.103 C 
HETATM    5  O13         0      53.781  51.577 -13.265  1.00  0.00    -0.307 OA
HETATM    6  C14         0      54.963  51.104 -12.935  1.00  0.00     0.107 C 
HETATM    7  C15         0      55.151  50.340 -11.793  1.00  0.00     0.049 C 
HETATM    8  C16         0      56.426  50.059 -11.314  1.00  0.00     0.093 C 
HETATM    9  C18         0      57.434  50.104 -12.268  1.00  0.00     0.048 C 
HETATM   10  C19         0      57.261  50.821 -13.444  1.00  0.00     0.096 C 
HETATM   11  C21         0      56.081  51.475 -13.673  1.00  0.00     0.084 C 
ENDROOT
BRANCH  10  12
HETATM   12  O20         0      58.380  51.222 -14.168  1.00  0.00    -0.359 OA
HETATM   13  H20         0      58.269  51.409 -15.092  1.00  0.00     0.218 HD
ENDBRANCH  10  12
BRANCH   4  14
HETATM   14  C5          0      52.478  53.470 -13.950  1.00  0.00     0.025 C 
HETATM   15  C6          0      52.295  54.293 -12.848  1.00  0.00     0.004 C 
HETATM   16  C7          0      51.756  55.556 -13.069  1.00  0.00     0.026 C 
HETATM   17  C8          0      51.289  55.941 -14.321  1.00  0.00     0.112 C 
HETATM   18  C10         0      50.934  54.890 -15.155  1.00  0.00     0.112 C 
HETATM   19  C12         0      51.551  53.659 -14.967  1.00  0.00     0.028 C 
BRANCH  17  20
HETATM   20  O9          0      51.387  57.256 -14.740  1.00  0.00    -0.357 OA
HETATM   21  H9          0      50.723  57.915 -14.573  1.00  0.00     0.218 HD
ENDBRANCH  17  20
BRANCH  18  22
HETATM   22  O11         0      50.287  55.218 -16.339  1.00  0.00    -0.357 OA
HETATM   23  H11         0      49.340  55.146 -16.346  1.00  0.00     0.218 HD
ENDBRANCH  18  22
ENDBRANCH   4  14
BRANCH   8  24
HETATM   24  O17         0      56.708  50.071  -9.943  1.00  0.00    -0.359 OA
HETATM   25  H17         0      57.413  50.596  -9.583  1.00  0.00     0.218 HD
ENDBRANCH   8  24
TORSDOF 5
ENDMDL
MODEL 9
REMARK VINA RESULT:      -4.7      2.819      7.654
REMARK  5 active torsions:
REMARK  status: ('A' for Active; 'I' for Inactive)
REMARK    1  A    between atoms: C4_4  and  C5_5 
REMARK    2  A    between atoms: C8_8  and  O9_9 
REMARK    3  A    between atoms: C10_11  and  O11_12 
REMARK    4  A    between atoms: C16_18  and  O17_19 
REMARK    5  A    between atoms: C19_22  and  O20_23 
ROOT
HETATM    1  O1          0      56.380  53.952 -15.840  1.00  0.00    -0.286 OA
HETATM    2  C2          0      55.231  53.556 -15.502  1.00  0.00     0.201 C 
HETATM    3  C3          0      54.068  54.104 -16.014  1.00  0.00     0.067 C 
HETATM    4  C4          0      52.815  53.719 -15.549  1.00  0.00     0.103 C 
HETATM    5  O13         0      52.744  52.792 -14.611  1.00  0.00    -0.307 OA
HETATM    6  C14         0      53.818  52.266 -14.064  1.00  0.00     0.107 C 
HETATM    7  C15         0      53.771  51.615 -12.840  1.00  0.00     0.049 C 
HETATM    8  C16         0      54.934  51.289 -12.151  1.00  0.00     0.093 C 
HETATM    9  C18         0      56.067  51.154 -12.944  1.00  0.00     0.048 C 
HETATM   10  C19         0      56.129  51.753 -14.194  1.00  0.00     0.096 C 
HETATM   11  C21         0      55.059  52.469 -14.658  1.00  0.00     0.084 C 
ENDROOT
BRANCH  10  12
HETATM   12  O20         0      57.371  51.986 -14.776  1.00  0.00    -0.359 OA
HETATM   13  H20         0      57.770  52.839 -14.648  1.00  0.00     0.218 HD
ENDBRANCH  10  12
BRANCH   4  14
HETATM   14  C5          0      51.731  54.697 -15.658  1.00  0.00     0.025 C 
HETATM   15  C6          0      50.993  55.127 -14.565  1.00  0.00     0.004 C 
HETATM   16  C7          0      50.627  56.468 -14.521  1.00  0.00     0.026 C 
HETATM   17  C8          0      50.869  57.326 -15.589  1.00  0.00     0.112 C 
HETATM   18  C10         0      51.011  56.695 -16.818  1.00  0.00     0.112 C 
HETATM   19  C12         0      51.460  55.380 -16.837  1.00  0.00     0.028 C 
BRANCH  17  20
HETATM   20  O9          0      51.150  58.663 -15.375  1.00  0.00    -0.357 OA
HETATM   21  H9          0      51.252  59.300 -16.073  1.00  0.00     0.218 HD
ENDBRANCH  17  20
BRANCH  18  22
HETATM   22  O11         0      51.064  57.510 -17.940  1.00  0.00    -0.357 OA
HETATM   23  H11         0      50.304  58.054 -18.112  1.00  0.00     0.218 HD
ENDBRANCH  18  22
ENDBRANCH   4  14
BRANCH   8  24
HETATM   24  O17         0      55.019  51.424 -10.761  1.00  0.00    -0.359 OA
HETATM   25  H17         0      55.703  50.996 -10.259  1.00  0.00     0.218 HD
ENDBRANCH   8  24
TORSDOF 5
ENDMDL
