MODEL 1
REMARK VINA RESULT:      -1.9      0.000      0.000
REMARK  5 active torsions:
REMARK  status: ('A' for Active; 'I' for Inactive)
REMARK    1  A    between atoms: C4_4  and  C5_5 
REMARK    2  A    between atoms: C8_8  and  O9_9 
REMARK    3  A    between atoms: C10_11  and  O11_12 
REMARK    4  A    between atoms: C16_18  and  O17_19 
REMARK    5  A    between atoms: C19_22  and  O20_23 
ROOT
HETATM    1  O1          0      53.121  15.069 -21.722  1.00  0.00    -0.286 OA
HETATM    2  C2          0      53.689  13.984 -21.416  1.00  0.00     0.201 C 
HETATM    3  C3          0      54.996  13.697 -21.770  1.00  0.00     0.067 C 
HETATM    4  C4          0      55.564  12.455 -21.511  1.00  0.00     0.103 C 
HETATM    5  O13         0      54.837  11.540 -20.894  1.00  0.00    -0.307 OA
HETATM    6  C14         0      53.579  11.748 -20.570  1.00  0.00     0.107 C 
HETATM    7  C15         0      52.711  10.701 -20.301  1.00  0.00     0.049 C 
HETATM    8  C16         0      51.339  10.905 -20.212  1.00  0.00     0.093 C 
HETATM    9  C18         0      50.959  12.199 -19.876  1.00  0.00     0.048 C 
HETATM   10  C19         0      51.822  13.265 -20.089  1.00  0.00     0.096 C 
HETATM   11  C21         0      53.064  13.039 -20.618  1.00  0.00     0.084 C 
ENDROOT
BRANCH  10  12
HETATM   12  O20         0      51.304  14.554 -20.168  1.00  0.00    -0.359 OA
HETATM   13  H20         0      51.194  14.938 -21.030  1.00  0.00     0.218 HD
ENDBRANCH  10  12
BRANCH   4  14
HETATM   14  C5          0      56.647  12.016 -22.393  1.00  0.00     0.025 C 
HETATM   15  C6          0      56.499  10.986 -23.311  1.00  0.00     0.004 C 
HETATM   16  C7          0      57.124  11.128 -24.546  1.00  0.00     0.026 C 
HETATM   17  C8          0      57.976  12.194 -24.814  1.00  0.00     0.112 C 
HETATM   18  C10         0      58.542  12.781 -23.689  1.00  0.00     0.112 C 
HETATM   19  C12         0      57.855  12.697 -22.484  1.00  0.00     0.028 C 
BRANCH  17  20
HETATM   20  O9          0      58.062  12.731 -26.086  1.00  0.00    -0.357 OA
HETATM   21  H9          0      58.863  13.080 -26.459  1.00  0.00     0.218 HD
ENDBRANCH  17  20
BRANCH  18  22
HETATM   22  O11         0      59.541  13.719 -23.906  1.00  0.00    -0.357 OA
HETATM   23  H11         0      59.659  14.383 -23.236  1.00  0.00     0.218 HD
ENDBRANCH  18  22
ENDBRANCH   4  14
BRANCH   8  24
HETATM   24  O17         0      50.429   9.986 -20.745  1.00  0.00    -0.359 OA
HETATM   25  H17         0      49.636   9.742 -20.281  1.00  0.00     0.218 HD
ENDBRANCH   8  24
TORSDOF 5
ENDMDL
MODEL 2
REMARK VINA RESULT:      -1.8      2.020      6.431
REMARK  5 active torsions:
REMARK  status: ('A' for Active; 'I' for Inactive)
REMARK    1  A    between atoms: C4_4  and  C5_5 
REMARK    2  A    between atoms: C8_8  and  O9_9 
REMARK    3  A    between atoms: C10_11  and  O11_12 
REMARK    4  A    between atoms: C16_18  and  O17_19 
REMARK    5  A    between atoms: C19_22  and  O20_23 
ROOT
HETATM    1  O1          0      55.933  12.829 -24.627  1.00  0.00    -0.286 OA
HETATM    2  C2          0      55.751  12.587 -23.402  1.00  0.00     0.201 C 
HETATM    3  C3          0      54.770  11.724 -22.945  1.00  0.00     0.067 C 
HETATM    4  C4          0      54.523  11.555 -21.588  1.00  0.00     0.103 C 
HETATM    5  O13         0      55.262  12.224 -20.720  1.00  0.00    -0.307 OA
HETATM    6  C14         0      56.181  13.084 -21.101  1.00  0.00     0.107 C 
HETATM    7  C15         0      56.668  14.060 -20.244  1.00  0.00     0.049 C 
HETATM    8  C16         0      57.440  15.115 -20.717  1.00  0.00     0.093 C 
HETATM    9  C18         0      58.116  14.862 -21.904  1.00  0.00     0.048 C 
HETATM   10  C19         0      57.684  13.860 -22.763  1.00  0.00     0.096 C 
HETATM   11  C21         0      56.592  13.105 -22.429  1.00  0.00     0.084 C 
ENDROOT
BRANCH  10  12
HETATM   12  O20         0      58.068  13.897 -24.099  1.00  0.00    -0.359 OA
HETATM   13  H20         0      58.640  13.209 -24.417  1.00  0.00     0.218 HD
ENDBRANCH  10  12
BRANCH   4  14
HETATM   14  C5          0      53.171  11.151 -21.198  1.00  0.00     0.025 C 
HETATM   15  C6          0      52.639  11.416 -19.944  1.00  0.00     0.004 C 
HETATM   16  C7          0      51.294  11.766 -19.875  1.00  0.00     0.026 C 
HETATM   17  C8          0      50.471  11.724 -20.996  1.00  0.00     0.112 C 
HETATM   18  C10         0      50.906  10.873 -22.003  1.00  0.00     0.112 C 
HETATM   19  C12         0      52.267  10.607 -22.101  1.00  0.00     0.028 C 
BRANCH  17  20
HETATM   20  O9          0      49.434  12.627 -21.147  1.00  0.00    -0.357 OA
HETATM   21  H9          0      49.555  13.531 -21.413  1.00  0.00     0.218 HD
ENDBRANCH  17  20
BRANCH  18  22
HETATM   22  O11         0      50.032  10.650 -23.057  1.00  0.00    -0.357 OA
HETATM   23  H11         0      49.948   9.754 -23.363  1.00  0.00     0.218 HD
ENDBRANCH  18  22
ENDBRANCH   4  14
BRANCH   8  24
HETATM   24  O17         0      57.276  16.415 -20.226  1.00  0.00    -0.359 OA
HETATM   25  H17         0      56.672  16.610 -19.520  1.00  0.00     0.218 HD
ENDBRANCH   8  24
TORSDOF 5
ENDMDL
MODEL 3
REMARK VINA RESULT:      -1.7      3.246      6.430
REMARK  5 active torsions:
REMARK  status: ('A' for Active; 'I' for Inactive)
REMARK    1  A    between atoms: C4_4  and  C5_5 
REMARK    2  A    between atoms: C8_8  and  O9_9 
REMARK    3  A    between atoms: C10_11  and  O11_12 
REMARK    4  A    between atoms: C16_18  and  O17_19 
REMARK    5  A    between atoms: C19_22  and  O20_23 
ROOT
HETATM    1  O1          0      55.154  11.255 -20.816  1.00  0.00    -0.286 OA
HETATM    2  C2          0      54.013  11.781 -20.694  1.00  0.00     0.201 C 
HETATM    3  C3          0      52.837  11.062 -20.824  1.00  0.00     0.067 C 
HETATM    4  C4          0      51.595  11.685 -20.787  1.00  0.00     0.103 C 
HETATM    5  O13         0      51.546  12.993 -20.602  1.00  0.00    -0.307 OA
HETATM    6  C14         0      52.633  13.727 -20.509  1.00  0.00     0.107 C 
HETATM    7  C15         0      52.608  15.099 -20.716  1.00  0.00     0.049 C 
HETATM    8  C16         0      53.781  15.827 -20.870  1.00  0.00     0.093 C 
HETATM    9  C18         0      54.908  15.252 -20.294  1.00  0.00     0.048 C 
HETATM   10  C19         0      54.949  13.890 -20.030  1.00  0.00     0.096 C 
HETATM   11  C21         0      53.865  13.109 -20.324  1.00  0.00     0.084 C 
ENDROOT
BRANCH  10  12
HETATM   12  O20         0      56.182  13.264 -19.875  1.00  0.00    -0.359 OA
HETATM   13  H20         0      56.604  12.914 -20.651  1.00  0.00     0.218 HD
ENDBRANCH  10  12
BRANCH   4  14
HETATM   14  C5          0      50.497  11.033 -21.503  1.00  0.00     0.025 C 
HETATM   15  C6          0      49.164  11.219 -21.166  1.00  0.00     0.004 C 
HETATM   16  C7          0      48.242  11.299 -22.204  1.00  0.00     0.026 C 
HETATM   17  C8          0      48.609  11.068 -23.525  1.00  0.00     0.112 C 
HETATM   18  C10         0      49.751  10.295 -23.683  1.00  0.00     0.112 C 
HETATM   19  C12         0      50.698  10.300 -22.665  1.00  0.00     0.028 C 
BRANCH  17  20
HETATM   20  O9          0      47.991  11.745 -24.562  1.00  0.00    -0.357 OA
HETATM   21  H9          0      47.893  12.690 -24.591  1.00  0.00     0.218 HD
ENDBRANCH  17  20
BRANCH  18  22
HETATM   22  O11         0      50.055   9.877 -24.971  1.00  0.00    -0.357 OA
HETATM   23  H11         0      50.233  10.555 -25.612  1.00  0.00     0.218 HD
ENDBRANCH  18  22
ENDBRANCH   4  14
BRANCH   8  24
HETATM   24  O17         0      53.880  16.861 -21.807  1.00  0.00    -0.359 OA
HETATM   25  H17         0      53.400  16.840 -22.626  1.00  0.00     0.218 HD
ENDBRANCH   8  24
TORSDOF 5
ENDMDL
MODEL 4
REMARK VINA RESULT:      -1.7      1.146      1.340
REMARK  5 active torsions:
REMARK  status: ('A' for Active; 'I' for Inactive)
REMARK    1  A    between atoms: C4_4  and  C5_5 
REMARK    2  A    between atoms: C8_8  and  O9_9 
REMARK    3  A    between atoms: C10_11  and  O11_12 
REMARK    4  A    between atoms: C16_18  and  O17_19 
REMARK    5  A    between atoms: C19_22  and  O20_23 
ROOT
HETATM    1  O1          0      53.787  15.555 -22.205  1.00  0.00    -0.286 OA
HETATM    2  C2          0      54.501  14.624 -21.742  1.00  0.00     0.201 C 
HETATM    3  C3          0      55.854  14.511 -22.014  1.00  0.00     0.067 C 
HETATM    4  C4          0      56.596  13.419 -21.577  1.00  0.00     0.103 C 
HETATM    5  O13         0      55.991  12.483 -20.868  1.00  0.00    -0.307 OA
HETATM    6  C14         0      54.701  12.523 -20.614  1.00  0.00     0.107 C 
HETATM    7  C15         0      53.995  11.390 -20.237  1.00  0.00     0.049 C 
HETATM    8  C16         0      52.605  11.379 -20.218  1.00  0.00     0.093 C 
HETATM    9  C18         0      52.010  12.625 -20.066  1.00  0.00     0.048 C 
HETATM   10  C19         0      52.705  13.783 -20.390  1.00  0.00     0.096 C 
HETATM   11  C21         0      53.992  13.697 -20.846  1.00  0.00     0.084 C 
ENDROOT
BRANCH  10  12
HETATM   12  O20         0      51.996  14.950 -20.655  1.00  0.00    -0.359 OA
HETATM   13  H20         0      52.403  15.602 -21.213  1.00  0.00     0.218 HD
ENDBRANCH  10  12
BRANCH   4  14
HETATM   14  C5          0      57.779  13.056 -22.360  1.00  0.00     0.025 C 
HETATM   15  C6          0      57.943  11.806 -22.938  1.00  0.00     0.004 C 
HETATM   16  C7          0      58.533  11.750 -24.197  1.00  0.00     0.026 C 
HETATM   17  C8          0      59.064  12.883 -24.804  1.00  0.00     0.112 C 
HETATM   18  C10         0      59.419  13.899 -23.926  1.00  0.00     0.112 C 
HETATM   19  C12         0      58.753  13.982 -22.709  1.00  0.00     0.028 C 
BRANCH  17  20
HETATM   20  O9          0      59.028  13.033 -26.179  1.00  0.00    -0.357 OA
HETATM   21  H9          0      59.253  13.840 -26.628  1.00  0.00     0.218 HD
ENDBRANCH  17  20
BRANCH  18  22
HETATM   22  O11         0      60.125  14.969 -24.457  1.00  0.00    -0.357 OA
HETATM   23  H11         0      60.231  14.989 -25.401  1.00  0.00     0.218 HD
ENDBRANCH  18  22
ENDBRANCH   4  14
BRANCH   8  24
HETATM   24  O17         0      51.879  10.265 -20.654  1.00  0.00    -0.359 OA
HETATM   25  H17         0      51.011  10.351 -21.029  1.00  0.00     0.218 HD
ENDBRANCH   8  24
TORSDOF 5
ENDMDL
MODEL 5
REMARK VINA RESULT:      -1.6      3.452      4.250
REMARK  5 active torsions:
REMARK  status: ('A' for Active; 'I' for Inactive)
REMARK    1  A    between atoms: C4_4  and  C5_5 
REMARK    2  A    between atoms: C8_8  and  O9_9 
REMARK    3  A    between atoms: C10_11  and  O11_12 
REMARK    4  A    between atoms: C16_18  and  O17_19 
REMARK    5  A    between atoms: C19_22  and  O20_23 
ROOT
HETATM    1  O1          0      55.855  13.493 -22.316  1.00  0.00    -0.286 OA
HETATM    2  C2          0      55.100  12.617 -22.820  1.00  0.00     0.201 C 
HETATM    3  C3          0      55.004  12.404 -24.185  1.00  0.00     0.067 C 
HETATM    4  C4          0      54.090  11.504 -24.720  1.00  0.00     0.103 C 
HETATM    5  O13         0      53.312  10.825 -23.896  1.00  0.00    -0.307 OA
HETATM    6  C14         0      53.336  11.015 -22.595  1.00  0.00     0.107 C 
HETATM    7  C15         0      52.284  10.625 -21.779  1.00  0.00     0.049 C 
HETATM    8  C16         0      52.198  11.051 -20.459  1.00  0.00     0.093 C 
HETATM    9  C18         0      53.409  11.402 -19.875  1.00  0.00     0.048 C 
HETATM   10  C19         0      54.497  11.753 -20.663  1.00  0.00     0.096 C 
HETATM   11  C21         0      54.381  11.737 -22.027  1.00  0.00     0.084 C 
ENDROOT
BRANCH  10  12
HETATM   12  O20         0      55.528  12.502 -20.105  1.00  0.00    -0.359 OA
HETATM   13  H20         0      55.358  13.415 -19.907  1.00  0.00     0.218 HD
ENDBRANCH  10  12
BRANCH   4  14
HETATM   14  C5          0      53.622  11.755 -26.084  1.00  0.00     0.025 C 
HETATM   15  C6          0      52.354  12.241 -26.367  1.00  0.00     0.004 C 
HETATM   16  C7          0      52.232  13.160 -27.404  1.00  0.00     0.026 C 
HETATM   17  C8          0      53.309  13.484 -28.222  1.00  0.00     0.112 C 
HETATM   18  C10         0      54.307  12.520 -28.275  1.00  0.00     0.112 C 
HETATM   19  C12         0      54.462  11.669 -27.187  1.00  0.00     0.028 C 
BRANCH  17  20
HETATM   20  O9          0      53.440  14.756 -28.751  1.00  0.00    -0.357 OA
HETATM   21  H9          0      53.815  14.936 -29.605  1.00  0.00     0.218 HD
ENDBRANCH  17  20
BRANCH  18  22
HETATM   22  O11         0      55.310  12.705 -29.216  1.00  0.00    -0.357 OA
HETATM   23  H11         0      55.035  12.890 -30.107  1.00  0.00     0.218 HD
ENDBRANCH  18  22
ENDBRANCH   4  14
BRANCH   8  24
HETATM   24  O17         0      50.973  11.416 -19.889  1.00  0.00    -0.359 OA
HETATM   25  H17         0      50.165  10.970 -20.114  1.00  0.00     0.218 HD
ENDBRANCH   8  24
TORSDOF 5
ENDMDL
MODEL 6
REMARK VINA RESULT:      -1.5      2.946      4.960
REMARK  5 active torsions:
REMARK  status: ('A' for Active; 'I' for Inactive)
REMARK    1  A    between atoms: C4_4  and  C5_5 
REMARK    2  A    between atoms: C8_8  and  O9_9 
REMARK    3  A    between atoms: C10_11  and  O11_12 
REMARK    4  A    between atoms: C16_18  and  O17_19 
REMARK    5  A    between atoms: C19_22  and  O20_23 
ROOT
HETATM    1  O1          0      53.579  14.192 -23.279  1.00  0.00    -0.286 OA
HETATM    2  C2          0      54.504  13.607 -22.652  1.00  0.00     0.201 C 
HETATM    3  C3          0      55.113  14.152 -21.533  1.00  0.00     0.067 C 
HETATM    4  C4          0      56.199  13.534 -20.922  1.00  0.00     0.103 C 
HETATM    5  O13         0      56.639  12.391 -21.416  1.00  0.00    -0.307 OA
HETATM    6  C14         0      56.122  11.850 -22.497  1.00  0.00     0.107 C 
HETATM    7  C15         0      56.808  10.899 -23.239  1.00  0.00     0.049 C 
HETATM    8  C16         0      56.376  10.522 -24.504  1.00  0.00     0.093 C 
HETATM    9  C18         0      55.020  10.714 -24.743  1.00  0.00     0.048 C 
HETATM   10  C19         0      54.293  11.624 -23.988  1.00  0.00     0.096 C 
HETATM   11  C21         0      54.911  12.326 -22.990  1.00  0.00     0.084 C 
ENDROOT
BRANCH  10  12
HETATM   12  O20         0      53.097  12.126 -24.494  1.00  0.00    -0.359 OA
HETATM   13  H20         0      53.100  12.480 -25.375  1.00  0.00     0.218 HD
ENDBRANCH  10  12
BRANCH   4  14
HETATM   14  C5          0      57.132  14.393 -20.190  1.00  0.00     0.025 C 
HETATM   15  C6          0      58.425  14.001 -19.875  1.00  0.00     0.004 C 
HETATM   16  C7          0      59.427  14.963 -19.953  1.00  0.00     0.026 C 
HETATM   17  C8          0      59.137  16.300 -20.204  1.00  0.00     0.112 C 
HETATM   18  C10         0      57.843  16.684 -19.875  1.00  0.00     0.112 C 
HETATM   19  C12         0      56.844  15.718 -19.888  1.00  0.00     0.028 C 
BRANCH  17  20
HETATM   20  O9          0      60.016  17.094 -20.918  1.00  0.00    -0.357 OA
HETATM   21  H9          0      59.762  17.895 -21.362  1.00  0.00     0.218 HD
ENDBRANCH  17  20
BRANCH  18  22
HETATM   22  O11         0      57.559  18.041 -19.927  1.00  0.00    -0.357 OA
HETATM   23  H11         0      58.144  18.621 -19.454  1.00  0.00     0.218 HD
ENDBRANCH  18  22
ENDBRANCH   4  14
BRANCH   8  24
HETATM   24  O17         0      57.282  10.295 -25.546  1.00  0.00    -0.359 OA
HETATM   25  H17         0      58.213  10.448 -25.440  1.00  0.00     0.218 HD
ENDBRANCH   8  24
TORSDOF 5
ENDMDL
MODEL 7
REMARK VINA RESULT:      -1.5      3.395      5.822
REMARK  5 active torsions:
REMARK  status: ('A' for Active; 'I' for Inactive)
REMARK    1  A    between atoms: C4_4  and  C5_5 
REMARK    2  A    between atoms: C8_8  and  O9_9 
REMARK    3  A    between atoms: C10_11  and  O11_12 
REMARK    4  A    between atoms: C16_18  and  O17_19 
REMARK    5  A    between atoms: C19_22  and  O20_23 
ROOT
HETATM    1  O1          0      55.048  13.519 -20.023  1.00  0.00    -0.286 OA
HETATM    2  C2          0      54.135  13.657 -20.882  1.00  0.00     0.201 C 
HETATM    3  C3          0      53.992  14.803 -21.647  1.00  0.00     0.067 C 
HETATM    4  C4          0      52.917  14.971 -22.513  1.00  0.00     0.103 C 
HETATM    5  O13         0      52.027  14.000 -22.615  1.00  0.00    -0.307 OA
HETATM    6  C14         0      52.095  12.909 -21.885  1.00  0.00     0.107 C 
HETATM    7  C15         0      50.992  12.091 -21.688  1.00  0.00     0.049 C 
HETATM    8  C16         0      50.997  11.093 -20.721  1.00  0.00     0.093 C 
HETATM    9  C18         0      52.256  10.621 -20.372  1.00  0.00     0.048 C 
HETATM   10  C19         0      53.387  11.394 -20.598  1.00  0.00     0.096 C 
HETATM   11  C21         0      53.262  12.623 -21.185  1.00  0.00     0.084 C 
ENDROOT
BRANCH  10  12
HETATM   12  O20         0      54.547  11.130 -19.876  1.00  0.00    -0.359 OA
HETATM   13  H20         0      55.306  10.816 -20.352  1.00  0.00     0.218 HD
ENDBRANCH  10  12
BRANCH   4  14
HETATM   14  C5          0      52.500  16.344 -22.803  1.00  0.00     0.025 C 
HETATM   15  C6          0      51.483  16.648 -23.696  1.00  0.00     0.004 C 
HETATM   16  C7          0      50.631  17.699 -23.370  1.00  0.00     0.026 C 
HETATM   17  C8          0      50.862  18.507 -22.262  1.00  0.00     0.112 C 
HETATM   18  C10         0      52.181  18.536 -21.829  1.00  0.00     0.112 C 
HETATM   19  C12         0      52.987  17.435 -22.095  1.00  0.00     0.028 C 
BRANCH  17  20
HETATM   20  O9          0      49.807  19.051 -21.549  1.00  0.00    -0.357 OA
HETATM   21  H9          0      48.896  18.956 -21.801  1.00  0.00     0.218 HD
ENDBRANCH  17  20
BRANCH  18  22
HETATM   22  O11         0      52.501  19.467 -20.852  1.00  0.00    -0.357 OA
HETATM   23  H11         0      51.899  19.548 -20.121  1.00  0.00     0.218 HD
ENDBRANCH  18  22
ENDBRANCH   4  14
BRANCH   8  24
HETATM   24  O17         0      49.870  10.834 -19.934  1.00  0.00    -0.359 OA
HETATM   25  H17         0      49.837  11.074 -19.015  1.00  0.00     0.218 HD
ENDBRANCH   8  24
TORSDOF 5
ENDMDL
MODEL 8
REMARK VINA RESULT:      -1.5      3.423      5.452
REMARK  5 active torsions:
REMARK  status: ('A' for Active; 'I' for Inactive)
REMARK    1  A    between atoms: C4_4  and  C5_5 
REMARK    2  A    between atoms: C8_8  and  O9_9 
REMARK    3  A    between atoms: C10_11  and  O11_12 
REMARK    4  A    between atoms: C16_18  and  O17_19 
REMARK    5  A    between atoms: C19_22  and  O20_23 
ROOT
HETATM    1  O1          0      54.960  13.534 -20.050  1.00  0.00    -0.286 OA
HETATM    2  C2          0      54.054  13.643 -20.921  1.00  0.00     0.201 C 
HETATM    3  C3          0      53.899  14.775 -21.703  1.00  0.00     0.067 C 
HETATM    4  C4          0      52.830  14.911 -22.583  1.00  0.00     0.103 C 
HETATM    5  O13         0      51.960  13.922 -22.682  1.00  0.00    -0.307 OA
HETATM    6  C14         0      52.040  12.842 -21.935  1.00  0.00     0.107 C 
HETATM    7  C15         0      50.950  12.007 -21.739  1.00  0.00     0.049 C 
HETATM    8  C16         0      50.963  11.022 -20.759  1.00  0.00     0.093 C 
HETATM    9  C18         0      52.228  10.579 -20.389  1.00  0.00     0.048 C 
HETATM   10  C19         0      53.346  11.370 -20.613  1.00  0.00     0.096 C 
HETATM   11  C21         0      53.205  12.589 -21.219  1.00  0.00     0.084 C 
ENDROOT
BRANCH  10  12
HETATM   12  O20         0      54.503  11.138 -19.875  1.00  0.00    -0.359 OA
HETATM   13  H20         0      54.948  10.308 -19.995  1.00  0.00     0.218 HD
ENDBRANCH  10  12
BRANCH   4  14
HETATM   14  C5          0      52.390  16.272 -22.896  1.00  0.00     0.025 C 
HETATM   15  C6          0      53.074  17.400 -22.469  1.00  0.00     0.004 C 
HETATM   16  C7          0      53.155  18.476 -23.347  1.00  0.00     0.026 C 
HETATM   17  C8          0      52.467  18.485 -24.556  1.00  0.00     0.112 C 
HETATM   18  C10         0      51.360  17.649 -24.598  1.00  0.00     0.112 C 
HETATM   19  C12         0      51.343  16.532 -23.770  1.00  0.00     0.028 C 
BRANCH  17  20
HETATM   20  O9          0      52.994  19.119 -25.667  1.00  0.00    -0.357 OA
HETATM   21  H9          0      52.635  19.034 -26.543  1.00  0.00     0.218 HD
ENDBRANCH  17  20
BRANCH  18  22
HETATM   22  O11         0      50.531  17.758 -25.706  1.00  0.00    -0.357 OA
HETATM   23  H11         0      49.657  17.395 -25.627  1.00  0.00     0.218 HD
ENDBRANCH  18  22
ENDBRANCH   4  14
BRANCH   8  24
HETATM   24  O17         0      49.832  10.752 -19.980  1.00  0.00    -0.359 OA
HETATM   25  H17         0      49.785  11.005 -19.066  1.00  0.00     0.218 HD
ENDBRANCH   8  24
TORSDOF 5
ENDMDL
MODEL 9
REMARK VINA RESULT:      -1.5      1.414      6.790
REMARK  5 active torsions:
REMARK  status: ('A' for Active; 'I' for Inactive)
REMARK    1  A    between atoms: C4_4  and  C5_5 
REMARK    2  A    between atoms: C8_8  and  O9_9 
REMARK    3  A    between atoms: C10_11  and  O11_12 
REMARK    4  A    between atoms: C16_18  and  O17_19 
REMARK    5  A    between atoms: C19_22  and  O20_23 
ROOT
HETATM    1  O1          0      54.920  13.504 -25.477  1.00  0.00    -0.286 OA
HETATM    2  C2          0      55.295  12.914 -24.426  1.00  0.00     0.201 C 
HETATM    3  C3          0      54.409  12.467 -23.461  1.00  0.00     0.067 C 
HETATM    4  C4          0      54.853  11.913 -22.265  1.00  0.00     0.103 C 
HETATM    5  O13         0      56.154  11.796 -22.065  1.00  0.00    -0.307 OA
HETATM    6  C14         0      57.038  12.239 -22.932  1.00  0.00     0.107 C 
HETATM    7  C15         0      58.355  12.487 -22.572  1.00  0.00     0.049 C 
HETATM    8  C16         0      59.212  13.187 -23.412  1.00  0.00     0.093 C 
HETATM    9  C18         0      58.879  13.144 -24.760  1.00  0.00     0.048 C 
HETATM   10  C19         0      57.581  12.853 -25.157  1.00  0.00     0.096 C 
HETATM   11  C21         0      56.626  12.589 -24.213  1.00  0.00     0.084 C 
ENDROOT
BRANCH  10  12
HETATM   12  O20         0      57.157  13.231 -26.427  1.00  0.00    -0.359 OA
HETATM   13  H20         0      56.284  12.973 -26.700  1.00  0.00     0.218 HD
ENDBRANCH  10  12
BRANCH   4  14
HETATM   14  C5          0      53.968  12.027 -21.105  1.00  0.00     0.025 C 
HETATM   15  C6          0      53.866  13.186 -20.348  1.00  0.00     0.004 C 
HETATM   16  C7          0      52.606  13.538 -19.875  1.00  0.00     0.026 C 
HETATM   17  C8          0      51.507  12.701 -20.034  1.00  0.00     0.112 C 
HETATM   18  C10         0      51.821  11.360 -20.211  1.00  0.00     0.112 C 
HETATM   19  C12         0      53.055  11.038 -20.765  1.00  0.00     0.028 C 
BRANCH  17  20
HETATM   20  O9          0      50.238  13.223 -20.209  1.00  0.00    -0.357 OA
HETATM   21  H9          0      49.636  13.397 -19.495  1.00  0.00     0.218 HD
ENDBRANCH  17  20
BRANCH  18  22
HETATM   22  O11         0      50.766  10.459 -20.185  1.00  0.00    -0.357 OA
HETATM   23  H11         0      49.908  10.807 -19.972  1.00  0.00     0.218 HD
ENDBRANCH  18  22
ENDBRANCH   4  14
BRANCH   8  24
HETATM   24  O17         0      60.121  14.124 -22.908  1.00  0.00    -0.359 OA
HETATM   25  H17         0      60.182  15.003 -23.265  1.00  0.00     0.218 HD
ENDBRANCH   8  24
TORSDOF 5
ENDMDL
