MODEL 1
REMARK VINA RESULT:      -1.2      0.000      0.000
REMARK  5 active torsions:
REMARK  status: ('A' for Active; 'I' for Inactive)
REMARK    1  A    between atoms: C4_4  and  C5_5 
REMARK    2  A    between atoms: C8_8  and  O9_9 
REMARK    3  A    between atoms: C10_11  and  O11_12 
REMARK    4  A    between atoms: C16_18  and  O17_19 
REMARK    5  A    between atoms: C19_22  and  O20_23 
ROOT
HETATM    1  O1          0      72.667  61.488  32.942  1.00  0.00    -0.286 OA
HETATM    2  C2          0      71.557  60.981  33.262  1.00  0.00     0.201 C 
HETATM    3  C3          0      70.526  60.798  32.356  1.00  0.00     0.067 C 
HETATM    4  C4          0      69.279  60.332  32.755  1.00  0.00     0.103 C 
HETATM    5  O13         0      69.088  60.042  34.030  1.00  0.00    -0.307 OA
HETATM    6  C14         0      70.020  60.233  34.938  1.00  0.00     0.107 C 
HETATM    7  C15         0      69.718  60.317  36.289  1.00  0.00     0.049 C 
HETATM    8  C16         0      70.655  60.768  37.211  1.00  0.00     0.093 C 
HETATM    9  C18         0      71.981  60.613  36.825  1.00  0.00     0.048 C 
HETATM   10  C19         0      72.314  60.479  35.484  1.00  0.00     0.096 C 
HETATM   11  C21         0      71.328  60.483  34.536  1.00  0.00     0.084 C 
ENDROOT
BRANCH  10  12
HETATM   12  O20         0      73.614  60.760  35.075  1.00  0.00    -0.359 OA
HETATM   13  H20         0      73.948  61.636  35.224  1.00  0.00     0.218 HD
ENDBRANCH  10  12
BRANCH   4  14
HETATM   14  C5          0      68.126  60.723  31.941  1.00  0.00     0.025 C 
HETATM   15  C6          0      67.650  59.950  30.892  1.00  0.00     0.004 C 
HETATM   16  C7          0      66.272  59.880  30.717  1.00  0.00     0.026 C 
HETATM   17  C8          0      65.400  60.657  31.473  1.00  0.00     0.112 C 
HETATM   18  C10         0      65.964  61.807  32.008  1.00  0.00     0.112 C 
HETATM   19  C12         0      67.332  61.819  32.253  1.00  0.00     0.028 C 
BRANCH  17  20
HETATM   20  O9          0      64.146  60.183  31.818  1.00  0.00    -0.357 OA
HETATM   21  H9          0      63.628  60.534  32.533  1.00  0.00     0.218 HD
ENDBRANCH  17  20
BRANCH  18  22
HETATM   22  O11         0      65.099  62.710  32.609  1.00  0.00    -0.357 OA
HETATM   23  H11         0      64.903  63.505  32.126  1.00  0.00     0.218 HD
ENDBRANCH  18  22
ENDBRANCH   4  14
BRANCH   8  24
HETATM   24  O17         0      70.290  61.609  38.269  1.00  0.00    -0.359 OA
HETATM   25  H17         0      70.409  62.550  38.223  1.00  0.00     0.218 HD
ENDBRANCH   8  24
TORSDOF 5
ENDMDL
MODEL 2
REMARK VINA RESULT:      -1.2      2.701      6.849
REMARK  5 active torsions:
REMARK  status: ('A' for Active; 'I' for Inactive)
REMARK    1  A    between atoms: C4_4  and  C5_5 
REMARK    2  A    between atoms: C8_8  and  O9_9 
REMARK    3  A    between atoms: C10_11  and  O11_12 
REMARK    4  A    between atoms: C16_18  and  O17_19 
REMARK    5  A    between atoms: C19_22  and  O20_23 
ROOT
HETATM    1  O1          0      70.002  60.425  35.252  1.00  0.00    -0.286 OA
HETATM    2  C2          0      70.516  60.195  34.123  1.00  0.00     0.201 C 
HETATM    3  C3          0      71.878  60.031  33.938  1.00  0.00     0.067 C 
HETATM    4  C4          0      72.428  59.881  32.670  1.00  0.00     0.103 C 
HETATM    5  O13         0      71.621  59.875  31.624  1.00  0.00    -0.307 OA
HETATM    6  C14         0      70.325  60.064  31.741  1.00  0.00     0.107 C 
HETATM    7  C15         0      69.543  60.454  30.663  1.00  0.00     0.049 C 
HETATM    8  C16         0      68.237  60.897  30.842  1.00  0.00     0.093 C 
HETATM    9  C18         0      67.614  60.436  31.995  1.00  0.00     0.048 C 
HETATM   10  C19         0      68.366  59.994  33.075  1.00  0.00     0.096 C 
HETATM   11  C21         0      69.732  59.995  32.997  1.00  0.00     0.084 C 
ENDROOT
BRANCH  10  12
HETATM   12  O20         0      67.784  59.954  34.338  1.00  0.00    -0.359 OA
HETATM   13  H20         0      67.376  60.747  34.665  1.00  0.00     0.218 HD
ENDBRANCH  10  12
BRANCH   4  14
HETATM   14  C5          0      73.816  60.311  32.487  1.00  0.00     0.025 C 
HETATM   15  C6          0      74.591  59.909  31.409  1.00  0.00     0.004 C 
HETATM   16  C7          0      75.455  60.846  30.852  1.00  0.00     0.026 C 
HETATM   17  C8          0      75.643  62.098  31.427  1.00  0.00     0.112 C 
HETATM   18  C10         0      75.342  62.165  32.781  1.00  0.00     0.112 C 
HETATM   19  C12         0      74.411  61.271  33.295  1.00  0.00     0.028 C 
BRANCH  17  20
HETATM   20  O9          0      75.901  63.208  30.642  1.00  0.00    -0.357 OA
HETATM   21  H9          0      76.649  63.280  30.061  1.00  0.00     0.218 HD
ENDBRANCH  17  20
BRANCH  18  22
HETATM   22  O11         0      75.688  63.333  33.445  1.00  0.00    -0.357 OA
HETATM   23  H11         0      76.392  63.849  33.068  1.00  0.00     0.218 HD
ENDBRANCH  18  22
ENDBRANCH   4  14
BRANCH   8  24
HETATM   24  O17         0      67.726  61.973  30.108  1.00  0.00    -0.359 OA
HETATM   25  H17         0      67.899  62.072  29.180  1.00  0.00     0.218 HD
ENDBRANCH   8  24
TORSDOF 5
ENDMDL
MODEL 3
REMARK VINA RESULT:      -1.1      2.711      7.363
REMARK  5 active torsions:
REMARK  status: ('A' for Active; 'I' for Inactive)
REMARK    1  A    between atoms: C4_4  and  C5_5 
REMARK    2  A    between atoms: C8_8  and  O9_9 
REMARK    3  A    between atoms: C10_11  and  O11_12 
REMARK    4  A    between atoms: C16_18  and  O17_19 
REMARK    5  A    between atoms: C19_22  and  O20_23 
ROOT
HETATM    1  O1          0      63.877  62.970  34.776  1.00  0.00    -0.286 OA
HETATM    2  C2          0      64.455  62.102  34.066  1.00  0.00     0.201 C 
HETATM    3  C3          0      65.833  62.006  33.972  1.00  0.00     0.067 C 
HETATM    4  C4          0      66.442  61.107  33.103  1.00  0.00     0.103 C 
HETATM    5  O13         0      65.680  60.316  32.369  1.00  0.00    -0.307 OA
HETATM    6  C14         0      64.367  60.393  32.393  1.00  0.00     0.107 C 
HETATM    7  C15         0      63.586  59.875  31.369  1.00  0.00     0.049 C 
HETATM    8  C16         0      62.234  60.179  31.269  1.00  0.00     0.093 C 
HETATM    9  C18         0      61.624  60.543  32.464  1.00  0.00     0.048 C 
HETATM   10  C19         0      62.381  61.020  33.525  1.00  0.00     0.096 C 
HETATM   11  C21         0      63.740  61.118  33.400  1.00  0.00     0.084 C 
ENDROOT
BRANCH  10  12
HETATM   12  O20         0      61.761  61.773  34.518  1.00  0.00    -0.359 OA
HETATM   13  H20         0      62.136  62.618  34.735  1.00  0.00     0.218 HD
ENDBRANCH  10  12
BRANCH   4  14
HETATM   14  C5          0      67.778  61.451  32.613  1.00  0.00     0.025 C 
HETATM   15  C6          0      68.733  62.073  33.405  1.00  0.00     0.004 C 
HETATM   16  C7          0      70.056  61.672  33.254  1.00  0.00     0.026 C 
HETATM   17  C8          0      70.439  60.780  32.258  1.00  0.00     0.112 C 
HETATM   18  C10         0      69.578  60.721  31.171  1.00  0.00     0.112 C 
HETATM   19  C12         0      68.242  61.046  31.368  1.00  0.00     0.028 C 
BRANCH  17  20
HETATM   20  O9          0      71.478  59.889  32.466  1.00  0.00    -0.357 OA
HETATM   21  H9          0      71.605  59.406  33.274  1.00  0.00     0.218 HD
ENDBRANCH  17  20
BRANCH  18  22
HETATM   22  O11         0      70.006  59.993  30.069  1.00  0.00    -0.357 OA
HETATM   23  H11         0      70.800  60.289  29.640  1.00  0.00     0.218 HD
ENDBRANCH  18  22
ENDBRANCH   4  14
BRANCH   8  24
HETATM   24  O17         0      61.631  60.425  30.031  1.00  0.00    -0.359 OA
HETATM   25  H17         0      61.500  61.308  29.706  1.00  0.00     0.218 HD
ENDBRANCH   8  24
TORSDOF 5
ENDMDL
MODEL 4
REMARK VINA RESULT:      -1.1      2.593      4.103
REMARK  5 active torsions:
REMARK  status: ('A' for Active; 'I' for Inactive)
REMARK    1  A    between atoms: C4_4  and  C5_5 
REMARK    2  A    between atoms: C8_8  and  O9_9 
REMARK    3  A    between atoms: C10_11  and  O11_12 
REMARK    4  A    between atoms: C16_18  and  O17_19 
REMARK    5  A    between atoms: C19_22  and  O20_23 
ROOT
HETATM    1  O1          0      67.601  64.068  32.221  1.00  0.00    -0.286 OA
HETATM    2  C2          0      67.209  62.870  32.176  1.00  0.00     0.201 C 
HETATM    3  C3          0      66.188  62.445  31.343  1.00  0.00     0.067 C 
HETATM    4  C4          0      65.706  61.142  31.386  1.00  0.00     0.103 C 
HETATM    5  O13         0      66.257  60.290  32.233  1.00  0.00    -0.307 OA
HETATM    6  C14         0      67.204  60.650  33.071  1.00  0.00     0.107 C 
HETATM    7  C15         0      67.500  59.905  34.203  1.00  0.00     0.049 C 
HETATM    8  C16         0      68.312  60.414  35.210  1.00  0.00     0.093 C 
HETATM    9  C18         0      69.198  61.405  34.804  1.00  0.00     0.048 C 
HETATM   10  C19         0      68.957  62.138  33.650  1.00  0.00     0.096 C 
HETATM   11  C21         0      67.846  61.871  32.896  1.00  0.00     0.084 C 
ENDROOT
BRANCH  10  12
HETATM   12  O20         0      69.574  63.374  33.488  1.00  0.00    -0.359 OA
HETATM   13  H20         0      70.508  63.387  33.317  1.00  0.00     0.218 HD
ENDBRANCH  10  12
BRANCH   4  14
HETATM   14  C5          0      64.318  60.926  30.972  1.00  0.00     0.025 C 
HETATM   15  C6          0      63.547  59.875  31.446  1.00  0.00     0.004 C 
HETATM   16  C7          0      62.203  60.127  31.704  1.00  0.00     0.026 C 
HETATM   17  C8          0      61.613  61.342  31.377  1.00  0.00     0.112 C 
HETATM   18  C10         0      62.261  62.050  30.373  1.00  0.00     0.112 C 
HETATM   19  C12         0      63.623  61.842  30.193  1.00  0.00     0.028 C 
BRANCH  17  20
HETATM   20  O9          0      60.594  61.867  32.152  1.00  0.00    -0.357 OA
HETATM   21  H9          0      60.504  61.706  33.084  1.00  0.00     0.218 HD
ENDBRANCH  17  20
BRANCH  18  22
HETATM   22  O11         0      61.614  63.173  29.878  1.00  0.00    -0.357 OA
HETATM   23  H11         0      61.330  63.141  28.971  1.00  0.00     0.218 HD
ENDBRANCH  18  22
ENDBRANCH   4  14
BRANCH   8  24
HETATM   24  O17         0      68.025  60.192  36.561  1.00  0.00    -0.359 OA
HETATM   25  H17         0      67.754  60.898  37.136  1.00  0.00     0.218 HD
ENDBRANCH   8  24
TORSDOF 5
ENDMDL
MODEL 5
REMARK VINA RESULT:      -1.1      4.630      5.970
REMARK  5 active torsions:
REMARK  status: ('A' for Active; 'I' for Inactive)
REMARK    1  A    between atoms: C4_4  and  C5_5 
REMARK    2  A    between atoms: C8_8  and  O9_9 
REMARK    3  A    between atoms: C10_11  and  O11_12 
REMARK    4  A    between atoms: C16_18  and  O17_19 
REMARK    5  A    between atoms: C19_22  and  O20_23 
ROOT
HETATM    1  O1          0      75.458  61.822  38.924  1.00  0.00    -0.286 OA
HETATM    2  C2          0      74.743  61.191  38.098  1.00  0.00     0.201 C 
HETATM    3  C3          0      75.081  61.058  36.762  1.00  0.00     0.067 C 
HETATM    4  C4          0      74.225  60.446  35.852  1.00  0.00     0.103 C 
HETATM    5  O13         0      73.074  59.966  36.288  1.00  0.00    -0.307 OA
HETATM    6  C14         0      72.688  60.100  37.538  1.00  0.00     0.107 C 
HETATM    7  C15         0      71.358  59.970  37.910  1.00  0.00     0.049 C 
HETATM    8  C16         0      70.921  60.359  39.171  1.00  0.00     0.093 C 
HETATM    9  C18         0      71.900  60.362  40.157  1.00  0.00     0.048 C 
HETATM   10  C19         0      73.243  60.443  39.817  1.00  0.00     0.096 C 
HETATM   11  C21         0      73.608  60.504  38.500  1.00  0.00     0.084 C 
ENDROOT
BRANCH  10  12
HETATM   12  O20         0      74.161  60.878  40.769  1.00  0.00    -0.359 OA
HETATM   13  H20         0      73.866  60.957  41.668  1.00  0.00     0.218 HD
ENDBRANCH  10  12
BRANCH   4  14
HETATM   14  C5          0      74.334  60.856  34.451  1.00  0.00     0.025 C 
HETATM   15  C6          0      75.223  60.270  33.562  1.00  0.00     0.004 C 
HETATM   16  C7          0      74.791  60.071  32.255  1.00  0.00     0.026 C 
HETATM   17  C8          0      73.568  60.559  31.809  1.00  0.00     0.112 C 
HETATM   18  C10         0      73.070  61.631  32.539  1.00  0.00     0.112 C 
HETATM   19  C12         0      73.452  61.757  33.869  1.00  0.00     0.028 C 
BRANCH  17  20
HETATM   20  O9          0      72.837  59.875  30.853  1.00  0.00    -0.357 OA
HETATM   21  H9          0      72.057  59.368  31.048  1.00  0.00     0.218 HD
ENDBRANCH  17  20
BRANCH  18  22
HETATM   22  O11         0      71.953  62.275  32.027  1.00  0.00    -0.357 OA
HETATM   23  H11         0      71.523  62.906  32.593  1.00  0.00     0.218 HD
ENDBRANCH  18  22
ENDBRANCH   4  14
BRANCH   8  24
HETATM   24  O17         0      69.696  61.013  39.348  1.00  0.00    -0.359 OA
HETATM   25  H17         0      68.869  60.577  39.180  1.00  0.00     0.218 HD
ENDBRANCH   8  24
TORSDOF 5
ENDMDL
MODEL 6
REMARK VINA RESULT:      -1.1      2.125      7.282
REMARK  5 active torsions:
REMARK  status: ('A' for Active; 'I' for Inactive)
REMARK    1  A    between atoms: C4_4  and  C5_5 
REMARK    2  A    between atoms: C8_8  and  O9_9 
REMARK    3  A    between atoms: C10_11  and  O11_12 
REMARK    4  A    between atoms: C16_18  and  O17_19 
REMARK    5  A    between atoms: C19_22  and  O20_23 
ROOT
HETATM    1  O1          0      67.503  61.307  35.579  1.00  0.00    -0.286 OA
HETATM    2  C2          0      68.634  60.846  35.262  1.00  0.00     0.201 C 
HETATM    3  C3          0      69.725  60.884  36.113  1.00  0.00     0.067 C 
HETATM    4  C4          0      70.984  60.463  35.702  1.00  0.00     0.103 C 
HETATM    5  O13         0      71.129  59.997  34.474  1.00  0.00    -0.307 OA
HETATM    6  C14         0      70.134  59.974  33.614  1.00  0.00     0.107 C 
HETATM    7  C15         0      70.352  59.875  32.247  1.00  0.00     0.049 C 
HETATM    8  C16         0      69.329  60.106  31.335  1.00  0.00     0.093 C 
HETATM    9  C18         0      68.046  59.907  31.829  1.00  0.00     0.048 C 
HETATM   10  C19         0      67.801  59.953  33.195  1.00  0.00     0.096 C 
HETATM   11  C21         0      68.834  60.179  34.063  1.00  0.00     0.084 C 
ENDROOT
BRANCH  10  12
HETATM   12  O20         0      66.506  60.189  33.646  1.00  0.00    -0.359 OA
HETATM   13  H20         0      66.087  61.003  33.391  1.00  0.00     0.218 HD
ENDBRANCH  10  12
BRANCH   4  14
HETATM   14  C5          0      72.142  61.062  36.369  1.00  0.00     0.025 C 
HETATM   15  C6          0      72.044  61.753  37.568  1.00  0.00     0.004 C 
HETATM   16  C7          0      73.069  61.586  38.494  1.00  0.00     0.026 C 
HETATM   17  C8          0      74.218  60.865  38.187  1.00  0.00     0.112 C 
HETATM   18  C10         0      74.499  60.770  36.831  1.00  0.00     0.112 C 
HETATM   19  C12         0      73.443  60.855  35.931  1.00  0.00     0.028 C 
BRANCH  17  20
HETATM   20  O9          0      74.880  60.138  39.161  1.00  0.00    -0.357 OA
HETATM   21  H9          0      75.507  59.450  38.972  1.00  0.00     0.218 HD
ENDBRANCH  17  20
BRANCH  18  22
HETATM   22  O11         0      75.727  60.227  36.479  1.00  0.00    -0.357 OA
HETATM   23  H11         0      76.498  60.619  36.871  1.00  0.00     0.218 HD
ENDBRANCH  18  22
ENDBRANCH   4  14
BRANCH   8  24
HETATM   24  O17         0      69.559  60.801  30.143  1.00  0.00    -0.359 OA
HETATM   25  H17         0      68.900  61.371  29.762  1.00  0.00     0.218 HD
ENDBRANCH   8  24
TORSDOF 5
ENDMDL
MODEL 7
REMARK VINA RESULT:      -1.0      4.357      6.021
REMARK  5 active torsions:
REMARK  status: ('A' for Active; 'I' for Inactive)
REMARK    1  A    between atoms: C4_4  and  C5_5 
REMARK    2  A    between atoms: C8_8  and  O9_9 
REMARK    3  A    between atoms: C10_11  and  O11_12 
REMARK    4  A    between atoms: C16_18  and  O17_19 
REMARK    5  A    between atoms: C19_22  and  O20_23 
ROOT
HETATM    1  O1          0      74.134  61.398  38.262  1.00  0.00    -0.286 OA
HETATM    2  C2          0      73.451  60.936  37.307  1.00  0.00     0.201 C 
HETATM    3  C3          0      73.860  61.013  35.987  1.00  0.00     0.067 C 
HETATM    4  C4          0      73.042  60.588  34.945  1.00  0.00     0.103 C 
HETATM    5  O13         0      71.856  60.083  35.235  1.00  0.00    -0.307 OA
HETATM    6  C14         0      71.404  60.022  36.469  1.00  0.00     0.107 C 
HETATM    7  C15         0      70.053  59.878  36.746  1.00  0.00     0.049 C 
HETATM    8  C16         0      69.555  60.070  38.029  1.00  0.00     0.093 C 
HETATM    9  C18         0      70.477  59.877  39.051  1.00  0.00     0.048 C 
HETATM   10  C19         0      71.839  59.967  38.799  1.00  0.00     0.096 C 
HETATM   11  C21         0      72.278  60.231  37.530  1.00  0.00     0.084 C 
ENDROOT
BRANCH  10  12
HETATM   12  O20         0      72.712  60.208  39.855  1.00  0.00    -0.359 OA
HETATM   13  H20         0      73.552  60.604  39.657  1.00  0.00     0.218 HD
ENDBRANCH  10  12
BRANCH   4  14
HETATM   14  C5          0      73.239  61.220  33.639  1.00  0.00     0.025 C 
HETATM   15  C6          0      73.687  62.524  33.494  1.00  0.00     0.004 C 
HETATM   16  C7          0      74.569  62.791  32.452  1.00  0.00     0.026 C 
HETATM   17  C8          0      74.891  61.826  31.504  1.00  0.00     0.112 C 
HETATM   18  C10         0      73.948  60.817  31.361  1.00  0.00     0.112 C 
HETATM   19  C12         0      73.137  60.513  32.448  1.00  0.00     0.028 C 
BRANCH  17  20
HETATM   20  O9          0      76.148  61.791  30.927  1.00  0.00    -0.357 OA
HETATM   21  H9          0      76.297  61.772  29.988  1.00  0.00     0.218 HD
ENDBRANCH  17  20
BRANCH  18  22
HETATM   22  O11         0      74.126  59.936  30.303  1.00  0.00    -0.357 OA
HETATM   23  H11         0      74.076  59.008  30.503  1.00  0.00     0.218 HD
ENDBRANCH  18  22
ENDBRANCH   4  14
BRANCH   8  24
HETATM   24  O17         0      68.339  60.726  38.249  1.00  0.00    -0.359 OA
HETATM   25  H17         0      67.569  60.539  37.726  1.00  0.00     0.218 HD
ENDBRANCH   8  24
TORSDOF 5
ENDMDL
MODEL 8
REMARK VINA RESULT:      -1.0      2.422      6.597
REMARK  5 active torsions:
REMARK  status: ('A' for Active; 'I' for Inactive)
REMARK    1  A    between atoms: C4_4  and  C5_5 
REMARK    2  A    between atoms: C8_8  and  O9_9 
REMARK    3  A    between atoms: C10_11  and  O11_12 
REMARK    4  A    between atoms: C16_18  and  O17_19 
REMARK    5  A    between atoms: C19_22  and  O20_23 
ROOT
HETATM    1  O1          0      67.072  63.926  33.479  1.00  0.00    -0.286 OA
HETATM    2  C2          0      67.163  62.706  33.172  1.00  0.00     0.201 C 
HETATM    3  C3          0      68.362  62.015  33.188  1.00  0.00     0.067 C 
HETATM    4  C4          0      68.452  60.699  32.747  1.00  0.00     0.103 C 
HETATM    5  O13         0      67.355  60.097  32.322  1.00  0.00    -0.307 OA
HETATM    6  C14         0      66.199  60.718  32.250  1.00  0.00     0.107 C 
HETATM    7  C15         0      65.164  60.248  31.455  1.00  0.00     0.049 C 
HETATM    8  C16         0      64.049  61.032  31.183  1.00  0.00     0.093 C 
HETATM    9  C18         0      63.780  62.017  32.125  1.00  0.00     0.048 C 
HETATM   10  C19         0      64.781  62.478  32.969  1.00  0.00     0.096 C 
HETATM   11  C21         0      66.039  61.946  32.885  1.00  0.00     0.084 C 
ENDROOT
BRANCH  10  12
HETATM   12  O20         0      64.638  63.720  33.580  1.00  0.00    -0.359 OA
HETATM   13  H20         0      65.427  64.196  33.811  1.00  0.00     0.218 HD
ENDBRANCH  10  12
BRANCH   4  14
HETATM   14  C5          0      69.747  60.253  32.231  1.00  0.00     0.025 C 
HETATM   15  C6          0      70.006  60.105  30.876  1.00  0.00     0.004 C 
HETATM   16  C7          0      71.265  60.475  30.416  1.00  0.00     0.026 C 
HETATM   17  C8          0      72.279  60.852  31.290  1.00  0.00     0.112 C 
HETATM   18  C10         0      72.137  60.370  32.585  1.00  0.00     0.112 C 
HETATM   19  C12         0      70.857  60.088  33.048  1.00  0.00     0.028 C 
BRANCH  17  20
HETATM   20  O9          0      73.216  61.801  30.922  1.00  0.00    -0.357 OA
HETATM   21  H9          0      73.941  61.627  30.333  1.00  0.00     0.218 HD
ENDBRANCH  17  20
BRANCH  18  22
HETATM   22  O11         0      73.209  60.556  33.446  1.00  0.00    -0.357 OA
HETATM   23  H11         0      73.390  61.447  33.722  1.00  0.00     0.218 HD
ENDBRANCH  18  22
ENDBRANCH   4  14
BRANCH   8  24
HETATM   24  O17         0      63.461  61.048  29.913  1.00  0.00    -0.359 OA
HETATM   25  H17         0      63.961  61.265  29.135  1.00  0.00     0.218 HD
ENDBRANCH   8  24
TORSDOF 5
ENDMDL
MODEL 9
REMARK VINA RESULT:      -1.0      2.220      7.030
REMARK  5 active torsions:
REMARK  status: ('A' for Active; 'I' for Inactive)
REMARK    1  A    between atoms: C4_4  and  C5_5 
REMARK    2  A    between atoms: C8_8  and  O9_9 
REMARK    3  A    between atoms: C10_11  and  O11_12 
REMARK    4  A    between atoms: C16_18  and  O17_19 
REMARK    5  A    between atoms: C19_22  and  O20_23 
ROOT
HETATM    1  O1          0      69.425  60.420  36.264  1.00  0.00    -0.286 OA
HETATM    2  C2          0      70.019  60.265  35.162  1.00  0.00     0.201 C 
HETATM    3  C3          0      71.396  60.166  35.059  1.00  0.00     0.067 C 
HETATM    4  C4          0      72.031  60.100  33.824  1.00  0.00     0.103 C 
HETATM    5  O13         0      71.293  60.111  32.729  1.00  0.00    -0.307 OA
HETATM    6  C14         0      69.985  60.241  32.769  1.00  0.00     0.107 C 
HETATM    7  C15         0      69.256  60.651  31.661  1.00  0.00     0.049 C 
HETATM    8  C16         0      67.924  61.031  31.774  1.00  0.00     0.093 C 
HETATM    9  C18         0      67.250  60.490  32.862  1.00  0.00     0.048 C 
HETATM   10  C19         0      67.950  60.028  33.967  1.00  0.00     0.096 C 
HETATM   11  C21         0      69.317  60.089  33.979  1.00  0.00     0.084 C 
ENDROOT
BRANCH  10  12
HETATM   12  O20         0      67.292  59.904  35.187  1.00  0.00    -0.359 OA
HETATM   13  H20         0      67.447  60.570  35.846  1.00  0.00     0.218 HD
ENDBRANCH  10  12
BRANCH   4  14
HETATM   14  C5          0      73.408  60.594  33.752  1.00  0.00     0.025 C 
HETATM   15  C6          0      73.726  61.867  33.303  1.00  0.00     0.004 C 
HETATM   16  C7          0      74.757  62.540  33.952  1.00  0.00     0.026 C 
HETATM   17  C8          0      75.535  61.920  34.924  1.00  0.00     0.112 C 
HETATM   18  C10         0      75.565  60.534  34.844  1.00  0.00     0.112 C 
HETATM   19  C12         0      74.483  59.881  34.267  1.00  0.00     0.028 C 
BRANCH  17  20
HETATM   20  O9          0      76.044  62.640  35.990  1.00  0.00    -0.357 OA
HETATM   21  H9          0      76.032  62.331  36.889  1.00  0.00     0.218 HD
ENDBRANCH  17  20
BRANCH  18  22
HETATM   22  O11         0      76.470  59.877  35.666  1.00  0.00    -0.357 OA
HETATM   23  H11         0      77.285  59.593  35.268  1.00  0.00     0.218 HD
ENDBRANCH  18  22
ENDBRANCH   4  14
BRANCH   8  24
HETATM   24  O17         0      67.414  62.119  31.058  1.00  0.00    -0.359 OA
HETATM   25  H17         0      66.596  62.537  31.301  1.00  0.00     0.218 HD
ENDBRANCH   8  24
TORSDOF 5
ENDMDL
