MODEL 1
REMARK VINA RESULT:      -1.4      0.000      0.000
REMARK  5 active torsions:
REMARK  status: ('A' for Active; 'I' for Inactive)
REMARK    1  A    between atoms: C4_4  and  C5_5 
REMARK    2  A    between atoms: C8_8  and  O9_9 
REMARK    3  A    between atoms: C10_11  and  O11_12 
REMARK    4  A    between atoms: C16_18  and  O17_19 
REMARK    5  A    between atoms: C19_22  and  O20_23 
ROOT
HETATM    1  O1          0      32.546 106.197  19.910  1.00  0.00    -0.286 OA
HETATM    2  C2          0      33.290 107.126  20.326  1.00  0.00     0.201 C 
HETATM    3  C3          0      34.672 107.070  20.255  1.00  0.00     0.067 C 
HETATM    4  C4          0      35.471 108.061  20.814  1.00  0.00     0.103 C 
HETATM    5  O13         0      34.888 109.087  21.408  1.00  0.00    -0.307 OA
HETATM    6  C14         0      33.582 109.171  21.536  1.00  0.00     0.107 C 
HETATM    7  C15         0      32.992 110.001  22.478  1.00  0.00     0.049 C 
HETATM    8  C16         0      31.640 109.899  22.784  1.00  0.00     0.093 C 
HETATM    9  C18         0      30.851 109.350  21.781  1.00  0.00     0.048 C 
HETATM   10  C19         0      31.416 108.552  20.796  1.00  0.00     0.096 C 
HETATM   11  C21         0      32.764 108.318  20.803  1.00  0.00     0.084 C 
ENDROOT
BRANCH  10  12
HETATM   12  O20         0      30.605 107.674  20.083  1.00  0.00    -0.359 OA
HETATM   13  H20         0      31.001 107.175  19.379  1.00  0.00     0.218 HD
ENDBRANCH  10  12
BRANCH   4  14
HETATM   14  C5          0      36.819 107.676  21.235  1.00  0.00     0.025 C 
HETATM   15  C6          0      37.221 107.678  22.563  1.00  0.00     0.004 C 
HETATM   16  C7          0      38.060 106.651  22.984  1.00  0.00     0.026 C 
HETATM   17  C8          0      38.590 105.728  22.089  1.00  0.00     0.112 C 
HETATM   18  C10         0      38.654 106.168  20.773  1.00  0.00     0.112 C 
HETATM   19  C12         0      37.748 107.136  20.355  1.00  0.00     0.028 C 
BRANCH  17  20
HETATM   20  O9          0      38.822 104.420  22.473  1.00  0.00    -0.357 OA
HETATM   21  H9          0      39.675 104.003  22.439  1.00  0.00     0.218 HD
ENDBRANCH  17  20
BRANCH  18  22
HETATM   22  O11         0      39.345 105.366  19.875  1.00  0.00    -0.357 OA
HETATM   23  H11         0      39.511 104.469  20.140  1.00  0.00     0.218 HD
ENDBRANCH  18  22
ENDBRANCH   4  14
BRANCH   8  24
HETATM   24  O17         0      31.179 110.020  24.100  1.00  0.00    -0.359 OA
HETATM   25  H17         0      31.638 110.547  24.743  1.00  0.00     0.218 HD
ENDBRANCH   8  24
TORSDOF 5
ENDMDL
MODEL 2
REMARK VINA RESULT:      -1.3      2.548      6.769
REMARK  5 active torsions:
REMARK  status: ('A' for Active; 'I' for Inactive)
REMARK    1  A    between atoms: C4_4  and  C5_5 
REMARK    2  A    between atoms: C8_8  and  O9_9 
REMARK    3  A    between atoms: C10_11  and  O11_12 
REMARK    4  A    between atoms: C16_18  and  O17_19 
REMARK    5  A    between atoms: C19_22  and  O20_23 
ROOT
HETATM    1  O1          0      35.424 107.305  24.276  1.00  0.00    -0.286 OA
HETATM    2  C2          0      35.172 108.184  23.407  1.00  0.00     0.201 C 
HETATM    3  C3          0      33.894 108.424  22.931  1.00  0.00     0.067 C 
HETATM    4  C4          0      33.658 109.326  21.900  1.00  0.00     0.103 C 
HETATM    5  O13         0      34.683 109.979  21.381  1.00  0.00    -0.307 OA
HETATM    6  C14         0      35.920 109.760  21.769  1.00  0.00     0.107 C 
HETATM    7  C15         0      37.007 110.121  20.986  1.00  0.00     0.049 C 
HETATM    8  C16         0      38.288 109.666  21.275  1.00  0.00     0.093 C 
HETATM    9  C18         0      38.501 109.316  22.603  1.00  0.00     0.048 C 
HETATM   10  C19         0      37.432 108.994  23.427  1.00  0.00     0.096 C 
HETATM   11  C21         0      36.156 109.038  22.934  1.00  0.00     0.084 C 
ENDROOT
BRANCH  10  12
HETATM   12  O20         0      37.661 108.244  24.577  1.00  0.00    -0.359 OA
HETATM   13  H20         0      38.289 107.534  24.527  1.00  0.00     0.218 HD
ENDBRANCH  10  12
BRANCH   4  14
HETATM   14  C5          0      32.474 109.099  21.070  1.00  0.00     0.025 C 
HETATM   15  C6          0      32.320 107.977  20.270  1.00  0.00     0.004 C 
HETATM   16  C7          0      31.049 107.416  20.183  1.00  0.00     0.026 C 
HETATM   17  C8          0      29.942 108.027  20.762  1.00  0.00     0.112 C 
HETATM   18  C10         0      30.074 109.394  20.967  1.00  0.00     0.112 C 
HETATM   19  C12         0      31.351 109.915  21.136  1.00  0.00     0.028 C 
BRANCH  17  20
HETATM   20  O9          0      28.902 107.271  21.273  1.00  0.00    -0.357 OA
HETATM   21  H9          0      27.986 107.510  21.192  1.00  0.00     0.218 HD
ENDBRANCH  17  20
BRANCH  18  22
HETATM   22  O11         0      28.937 110.083  21.365  1.00  0.00    -0.357 OA
HETATM   23  H11         0      28.734 110.078  22.293  1.00  0.00     0.218 HD
ENDBRANCH  18  22
ENDBRANCH   4  14
BRANCH   8  24
HETATM   24  O17         0      39.169 109.275  20.260  1.00  0.00    -0.359 OA
HETATM   25  H17         0      38.855 108.928  19.433  1.00  0.00     0.218 HD
ENDBRANCH   8  24
TORSDOF 5
ENDMDL
MODEL 3
REMARK VINA RESULT:      -1.2      1.948      2.453
REMARK  5 active torsions:
REMARK  status: ('A' for Active; 'I' for Inactive)
REMARK    1  A    between atoms: C4_4  and  C5_5 
REMARK    2  A    between atoms: C8_8  and  O9_9 
REMARK    3  A    between atoms: C10_11  and  O11_12 
REMARK    4  A    between atoms: C16_18  and  O17_19 
REMARK    5  A    between atoms: C19_22  and  O20_23 
ROOT
HETATM    1  O1          0      32.855 105.180  23.371  1.00  0.00    -0.286 OA
HETATM    2  C2          0      33.107 105.710  22.255  1.00  0.00     0.201 C 
HETATM    3  C3          0      34.306 105.524  21.590  1.00  0.00     0.067 C 
HETATM    4  C4          0      34.599 106.202  20.411  1.00  0.00     0.103 C 
HETATM    5  O13         0      33.695 107.026  19.912  1.00  0.00    -0.307 OA
HETATM    6  C14         0      32.556 107.267  20.523  1.00  0.00     0.107 C 
HETATM    7  C15         0      31.798 108.394  20.238  1.00  0.00     0.049 C 
HETATM    8  C16         0      30.739 108.777  21.053  1.00  0.00     0.093 C 
HETATM    9  C18         0      30.167 107.749  21.794  1.00  0.00     0.048 C 
HETATM   10  C19         0      30.881 106.588  22.058  1.00  0.00     0.096 C 
HETATM   11  C21         0      32.152 106.447  21.571  1.00  0.00     0.084 C 
ENDROOT
BRANCH  10  12
HETATM   12  O20         0      30.498 105.782  23.125  1.00  0.00    -0.359 OA
HETATM   13  H20         0      29.623 105.895  23.477  1.00  0.00     0.218 HD
ENDBRANCH  10  12
BRANCH   4  14
HETATM   14  C5          0      36.012 106.437  20.107  1.00  0.00     0.025 C 
HETATM   15  C6          0      36.532 107.703  19.885  1.00  0.00     0.004 C 
HETATM   16  C7          0      37.801 107.975  20.386  1.00  0.00     0.026 C 
HETATM   17  C8          0      38.583 106.984  20.970  1.00  0.00     0.112 C 
HETATM   18  C10         0      38.263 105.690  20.582  1.00  0.00     0.112 C 
HETATM   19  C12         0      36.964 105.427  20.166  1.00  0.00     0.028 C 
BRANCH  17  20
HETATM   20  O9          0      39.449 107.284  22.006  1.00  0.00    -0.357 OA
HETATM   21  H9          0      39.418 108.093  22.503  1.00  0.00     0.218 HD
ENDBRANCH  17  20
BRANCH  18  22
HETATM   22  O11         0      39.127 104.682  20.985  1.00  0.00    -0.357 OA
HETATM   23  H11         0      38.768 103.804  21.042  1.00  0.00     0.218 HD
ENDBRANCH  18  22
ENDBRANCH   4  14
BRANCH   8  24
HETATM   24  O17         0      30.501 110.122  21.355  1.00  0.00    -0.359 OA
HETATM   25  H17         0      29.625 110.448  21.524  1.00  0.00     0.218 HD
ENDBRANCH   8  24
TORSDOF 5
ENDMDL
MODEL 4
REMARK VINA RESULT:      -1.1      1.632      6.829
REMARK  5 active torsions:
REMARK  status: ('A' for Active; 'I' for Inactive)
REMARK    1  A    between atoms: C4_4  and  C5_5 
REMARK    2  A    between atoms: C8_8  and  O9_9 
REMARK    3  A    between atoms: C10_11  and  O11_12 
REMARK    4  A    between atoms: C16_18  and  O17_19 
REMARK    5  A    between atoms: C19_22  and  O20_23 
ROOT
HETATM    1  O1          0      35.364 105.139  24.090  1.00  0.00    -0.286 OA
HETATM    2  C2          0      35.465 106.048  23.220  1.00  0.00     0.201 C 
HETATM    3  C3          0      34.386 106.808  22.802  1.00  0.00     0.067 C 
HETATM    4  C4          0      34.503 107.732  21.769  1.00  0.00     0.103 C 
HETATM    5  O13         0      35.681 107.895  21.194  1.00  0.00    -0.307 OA
HETATM    6  C14         0      36.728 107.172  21.527  1.00  0.00     0.107 C 
HETATM    7  C15         0      37.826 107.046  20.689  1.00  0.00     0.049 C 
HETATM    8  C16         0      38.808 106.091  20.924  1.00  0.00     0.093 C 
HETATM    9  C18         0      38.917 105.674  22.245  1.00  0.00     0.048 C 
HETATM   10  C19         0      37.854 105.828  23.124  1.00  0.00     0.096 C 
HETATM   11  C21         0      36.694 106.410  22.690  1.00  0.00     0.084 C 
ENDROOT
BRANCH  10  12
HETATM   12  O20         0      37.801 105.044  24.272  1.00  0.00    -0.359 OA
HETATM   13  H20         0      37.742 104.102  24.165  1.00  0.00     0.218 HD
ENDBRANCH  10  12
BRANCH   4  14
HETATM   14  C5          0      33.295 108.032  20.999  1.00  0.00     0.025 C 
HETATM   15  C6          0      32.740 107.140  20.093  1.00  0.00     0.004 C 
HETATM   16  C7          0      31.352 107.066  20.030  1.00  0.00     0.026 C 
HETATM   17  C8          0      30.541 107.942  20.743  1.00  0.00     0.112 C 
HETATM   18  C10         0      31.147 109.143  21.087  1.00  0.00     0.112 C 
HETATM   19  C12         0      32.530 109.168  21.227  1.00  0.00     0.028 C 
BRANCH  17  20
HETATM   20  O9          0      29.315 107.531  21.235  1.00  0.00    -0.357 OA
HETATM   21  H9          0      28.523 107.491  20.712  1.00  0.00     0.218 HD
ENDBRANCH  17  20
BRANCH  18  22
HETATM   22  O11         0      30.332 110.125  21.631  1.00  0.00    -0.357 OA
HETATM   23  H11         0      30.732 110.969  21.804  1.00  0.00     0.218 HD
ENDBRANCH  18  22
ENDBRANCH   4  14
BRANCH   8  24
HETATM   24  O17         0      39.391 105.371  19.875  1.00  0.00    -0.359 OA
HETATM   25  H17         0      39.697 105.800  19.085  1.00  0.00     0.218 HD
ENDBRANCH   8  24
TORSDOF 5
ENDMDL
MODEL 5
REMARK VINA RESULT:      -1.0      3.177      5.176
REMARK  5 active torsions:
REMARK  status: ('A' for Active; 'I' for Inactive)
REMARK    1  A    between atoms: C4_4  and  C5_5 
REMARK    2  A    between atoms: C8_8  and  O9_9 
REMARK    3  A    between atoms: C10_11  and  O11_12 
REMARK    4  A    between atoms: C16_18  and  O17_19 
REMARK    5  A    between atoms: C19_22  and  O20_23 
ROOT
HETATM    1  O1          0      31.772 107.970  22.574  1.00  0.00    -0.286 OA
HETATM    2  C2          0      32.569 107.475  21.731  1.00  0.00     0.201 C 
HETATM    3  C3          0      32.353 106.250  21.123  1.00  0.00     0.067 C 
HETATM    4  C4          0      33.296 105.681  20.275  1.00  0.00     0.103 C 
HETATM    5  O13         0      34.414 106.343  20.035  1.00  0.00    -0.307 OA
HETATM    6  C14         0      34.686 107.491  20.615  1.00  0.00     0.107 C 
HETATM    7  C15         0      35.980 107.984  20.690  1.00  0.00     0.049 C 
HETATM    8  C16         0      36.298 109.056  21.516  1.00  0.00     0.093 C 
HETATM    9  C18         0      35.236 109.902  21.814  1.00  0.00     0.048 C 
HETATM   10  C19         0      33.926 109.455  21.705  1.00  0.00     0.096 C 
HETATM   11  C21         0      33.678 108.177  21.284  1.00  0.00     0.084 C 
ENDROOT
BRANCH  10  12
HETATM   12  O20         0      32.920 110.121  22.398  1.00  0.00    -0.359 OA
HETATM   13  H20         0      32.503 109.668  23.121  1.00  0.00     0.218 HD
ENDBRANCH  10  12
BRANCH   4  14
HETATM   14  C5          0      33.303 104.221  20.165  1.00  0.00     0.025 C 
HETATM   15  C6          0      34.410 103.449  20.484  1.00  0.00     0.004 C 
HETATM   16  C7          0      34.185 102.232  21.121  1.00  0.00     0.026 C 
HETATM   17  C8          0      32.900 101.737  21.314  1.00  0.00     0.112 C 
HETATM   18  C10         0      31.949 102.235  20.434  1.00  0.00     0.112 C 
HETATM   19  C12         0      32.157 103.491  19.877  1.00  0.00     0.028 C 
BRANCH  17  20
HETATM   20  O9          0      32.593 100.980  22.431  1.00  0.00    -0.357 OA
HETATM   21  H9          0      31.726 100.940  22.819  1.00  0.00     0.218 HD
ENDBRANCH  17  20
BRANCH  18  22
HETATM   22  O11         0      30.697 101.637  20.458  1.00  0.00    -0.357 OA
HETATM   23  H11         0      30.012 102.092  20.934  1.00  0.00     0.218 HD
ENDBRANCH  18  22
ENDBRANCH   4  14
BRANCH   8  24
HETATM   24  O17         0      37.489 109.084  22.249  1.00  0.00    -0.359 OA
HETATM   25  H17         0      37.528 109.453  23.124  1.00  0.00     0.218 HD
ENDBRANCH   8  24
TORSDOF 5
ENDMDL
MODEL 6
REMARK VINA RESULT:      -1.0      3.260      4.496
REMARK  5 active torsions:
REMARK  status: ('A' for Active; 'I' for Inactive)
REMARK    1  A    between atoms: C4_4  and  C5_5 
REMARK    2  A    between atoms: C8_8  and  O9_9 
REMARK    3  A    between atoms: C10_11  and  O11_12 
REMARK    4  A    between atoms: C16_18  and  O17_19 
REMARK    5  A    between atoms: C19_22  and  O20_23 
ROOT
HETATM    1  O1          0      34.749 105.618  22.116  1.00  0.00    -0.286 OA
HETATM    2  C2          0      34.728 106.866  22.299  1.00  0.00     0.201 C 
HETATM    3  C3          0      35.482 107.494  23.276  1.00  0.00     0.067 C 
HETATM    4  C4          0      35.364 108.856  23.525  1.00  0.00     0.103 C 
HETATM    5  O13         0      34.522 109.564  22.792  1.00  0.00    -0.307 OA
HETATM    6  C14         0      33.756 109.012  21.878  1.00  0.00     0.107 C 
HETATM    7  C15         0      32.617 109.644  21.399  1.00  0.00     0.049 C 
HETATM    8  C16         0      31.681 108.961  20.633  1.00  0.00     0.093 C 
HETATM    9  C18         0      32.174 107.854  19.952  1.00  0.00     0.048 C 
HETATM   10  C19         0      33.336 107.225  20.376  1.00  0.00     0.096 C 
HETATM   11  C21         0      34.012 107.709  21.464  1.00  0.00     0.084 C 
ENDROOT
BRANCH  10  12
HETATM   12  O20         0      33.579 105.911  19.989  1.00  0.00    -0.359 OA
HETATM   13  H20         0      33.017 105.232  20.342  1.00  0.00     0.218 HD
ENDBRANCH  10  12
BRANCH   4  14
HETATM   14  C5          0      35.685 109.321  24.876  1.00  0.00     0.025 C 
HETATM   15  C6          0      34.832 110.125  25.617  1.00  0.00     0.004 C 
HETATM   16  C7          0      34.743 109.881  26.984  1.00  0.00     0.026 C 
HETATM   17  C8          0      35.572 108.961  27.617  1.00  0.00     0.112 C 
HETATM   18  C10         0      36.762 108.699  26.951  1.00  0.00     0.112 C 
HETATM   19  C12         0      36.799 108.870  25.572  1.00  0.00     0.028 C 
BRANCH  17  20
HETATM   20  O9          0      35.121 108.229  28.701  1.00  0.00    -0.357 OA
HETATM   21  H9          0      35.679 107.671  29.230  1.00  0.00     0.218 HD
ENDBRANCH  17  20
BRANCH  18  22
HETATM   22  O11         0      37.705 107.938  27.626  1.00  0.00    -0.357 OA
HETATM   23  H11         0      37.556 107.791  28.553  1.00  0.00     0.218 HD
ENDBRANCH  18  22
ENDBRANCH   4  14
BRANCH   8  24
HETATM   24  O17         0      30.307 109.167  20.806  1.00  0.00    -0.359 OA
HETATM   25  H17         0      29.771 108.561  21.303  1.00  0.00     0.218 HD
ENDBRANCH   8  24
TORSDOF 5
ENDMDL
MODEL 7
REMARK VINA RESULT:      -1.0      4.295      5.861
REMARK  5 active torsions:
REMARK  status: ('A' for Active; 'I' for Inactive)
REMARK    1  A    between atoms: C4_4  and  C5_5 
REMARK    2  A    between atoms: C8_8  and  O9_9 
REMARK    3  A    between atoms: C10_11  and  O11_12 
REMARK    4  A    between atoms: C16_18  and  O17_19 
REMARK    5  A    between atoms: C19_22  and  O20_23 
ROOT
HETATM    1  O1          0      27.761 107.013  20.670  1.00  0.00    -0.286 OA
HETATM    2  C2          0      28.931 106.653  20.365  1.00  0.00     0.201 C 
HETATM    3  C3          0      29.306 105.324  20.270  1.00  0.00     0.067 C 
HETATM    4  C4          0      30.625 104.954  20.032  1.00  0.00     0.103 C 
HETATM    5  O13         0      31.532 105.902  19.875  1.00  0.00    -0.307 OA
HETATM    6  C14         0      31.236 107.178  19.993  1.00  0.00     0.107 C 
HETATM    7  C15         0      32.212 108.136  20.227  1.00  0.00     0.049 C 
HETATM    8  C16         0      31.877 109.431  20.602  1.00  0.00     0.093 C 
HETATM    9  C18         0      30.607 109.844  20.216  1.00  0.00     0.048 C 
HETATM   10  C19         0      29.620 108.911  19.929  1.00  0.00     0.096 C 
HETATM   11  C21         0      29.904 107.575  20.009  1.00  0.00     0.084 C 
ENDROOT
BRANCH  10  12
HETATM   12  O20         0      28.284 109.298  19.975  1.00  0.00    -0.359 OA
HETATM   13  H20         0      27.622 108.617  19.965  1.00  0.00     0.218 HD
ENDBRANCH  10  12
BRANCH   4  14
HETATM   14  C5          0      31.053 103.645  20.529  1.00  0.00     0.025 C 
HETATM   15  C6          0      32.378 103.232  20.515  1.00  0.00     0.004 C 
HETATM   16  C7          0      32.833 102.491  21.600  1.00  0.00     0.026 C 
HETATM   17  C8          0      31.971 102.060  22.603  1.00  0.00     0.112 C 
HETATM   18  C10         0      30.640 101.966  22.221  1.00  0.00     0.112 C 
HETATM   19  C12         0      30.190 102.780  21.188  1.00  0.00     0.028 C 
BRANCH  17  20
HETATM   20  O9          0      32.405 101.950  23.912  1.00  0.00    -0.357 OA
HETATM   21  H9          0      33.194 102.362  24.243  1.00  0.00     0.218 HD
ENDBRANCH  17  20
BRANCH  18  22
HETATM   22  O11         0      29.769 101.364  23.119  1.00  0.00    -0.357 OA
HETATM   23  H11         0      28.844 101.554  23.014  1.00  0.00     0.218 HD
ENDBRANCH  18  22
ENDBRANCH   4  14
BRANCH   8  24
HETATM   24  O17         0      32.614 110.125  21.568  1.00  0.00    -0.359 OA
HETATM   25  H17         0      33.473 110.484  21.378  1.00  0.00     0.218 HD
ENDBRANCH   8  24
TORSDOF 5
ENDMDL
MODEL 8
REMARK VINA RESULT:      -0.9      3.791      6.062
REMARK  5 active torsions:
REMARK  status: ('A' for Active; 'I' for Inactive)
REMARK    1  A    between atoms: C4_4  and  C5_5 
REMARK    2  A    between atoms: C8_8  and  O9_9 
REMARK    3  A    between atoms: C10_11  and  O11_12 
REMARK    4  A    between atoms: C16_18  and  O17_19 
REMARK    5  A    between atoms: C19_22  and  O20_23 
ROOT
HETATM    1  O1          0      32.829 102.816  22.557  1.00  0.00    -0.286 OA
HETATM    2  C2          0      32.320 103.557  21.672  1.00  0.00     0.201 C 
HETATM    3  C3          0      32.955 104.686  21.181  1.00  0.00     0.067 C 
HETATM    4  C4          0      32.329 105.541  20.282  1.00  0.00     0.103 C 
HETATM    5  O13         0      31.105 105.250  19.876  1.00  0.00    -0.307 OA
HETATM    6  C14         0      30.443 104.212  20.339  1.00  0.00     0.107 C 
HETATM    7  C15         0      29.063 104.122  20.238  1.00  0.00     0.049 C 
HETATM    8  C16         0      28.349 103.161  20.945  1.00  0.00     0.093 C 
HETATM    9  C18         0      29.075 102.028  21.292  1.00  0.00     0.048 C 
HETATM   10  C19         0      30.461 102.071  21.356  1.00  0.00     0.096 C 
HETATM   11  C21         0      31.119 103.233  21.059  1.00  0.00     0.084 C 
ENDROOT
BRANCH  10  12
HETATM   12  O20         0      31.137 101.111  22.102  1.00  0.00    -0.359 OA
HETATM   13  H20         0      32.070 101.009  21.956  1.00  0.00     0.218 HD
ENDBRANCH  10  12
BRANCH   4  14
HETATM   14  C5          0      32.758 106.941  20.279  1.00  0.00     0.025 C 
HETATM   15  C6          0      31.909 107.987  19.951  1.00  0.00     0.004 C 
HETATM   16  C7          0      32.032 109.168  20.676  1.00  0.00     0.026 C 
HETATM   17  C8          0      33.052 109.353  21.603  1.00  0.00     0.112 C 
HETATM   18  C10         0      34.169 108.554  21.402  1.00  0.00     0.112 C 
HETATM   19  C12         0      34.003 107.338  20.749  1.00  0.00     0.028 C 
BRANCH  17  20
HETATM   20  O9          0      32.848 110.117  22.738  1.00  0.00    -0.357 OA
HETATM   21  H9          0      32.079 110.656  22.880  1.00  0.00     0.218 HD
ENDBRANCH  17  20
BRANCH  18  22
HETATM   22  O11         0      35.286 108.828  22.179  1.00  0.00    -0.357 OA
HETATM   23  H11         0      36.067 109.120  21.722  1.00  0.00     0.218 HD
ENDBRANCH  18  22
ENDBRANCH   4  14
BRANCH   8  24
HETATM   24  O17         0      27.120 103.459  21.543  1.00  0.00    -0.359 OA
HETATM   25  H17         0      26.462 102.791  21.692  1.00  0.00     0.218 HD
ENDBRANCH   8  24
TORSDOF 5
ENDMDL
MODEL 9
REMARK VINA RESULT:      -0.8      2.533      3.512
REMARK  5 active torsions:
REMARK  status: ('A' for Active; 'I' for Inactive)
REMARK    1  A    between atoms: C4_4  and  C5_5 
REMARK    2  A    between atoms: C8_8  and  O9_9 
REMARK    3  A    between atoms: C10_11  and  O11_12 
REMARK    4  A    between atoms: C16_18  and  O17_19 
REMARK    5  A    between atoms: C19_22  and  O20_23 
ROOT
HETATM    1  O1          0      33.372 104.059  23.409  1.00  0.00    -0.286 OA
HETATM    2  C2          0      34.039 104.662  22.523  1.00  0.00     0.201 C 
HETATM    3  C3          0      35.421 104.731  22.543  1.00  0.00     0.067 C 
HETATM    4  C4          0      36.126 105.488  21.613  1.00  0.00     0.103 C 
HETATM    5  O13         0      35.451 106.136  20.681  1.00  0.00    -0.307 OA
HETATM    6  C14         0      34.137 106.134  20.640  1.00  0.00     0.107 C 
HETATM    7  C15         0      33.426 107.101  19.944  1.00  0.00     0.049 C 
HETATM    8  C16         0      32.054 107.247  20.110  1.00  0.00     0.093 C 
HETATM    9  C18         0      31.391 106.107  20.546  1.00  0.00     0.048 C 
HETATM   10  C19         0      32.081 105.098  21.205  1.00  0.00     0.096 C 
HETATM   11  C21         0      33.428 105.220  21.411  1.00  0.00     0.084 C 
ENDROOT
BRANCH  10  12
HETATM   12  O20         0      31.377 104.201  22.003  1.00  0.00    -0.359 OA
HETATM   13  H20         0      30.658 103.723  21.608  1.00  0.00     0.218 HD
ENDBRANCH  10  12
BRANCH   4  14
HETATM   14  C5          0      37.435 106.001  22.021  1.00  0.00     0.025 C 
HETATM   15  C6          0      38.594 105.766  21.296  1.00  0.00     0.004 C 
HETATM   16  C7          0      39.518 106.801  21.204  1.00  0.00     0.026 C 
HETATM   17  C8          0      39.362 107.984  21.919  1.00  0.00     0.112 C 
HETATM   18  C10         0      38.565 107.877  23.050  1.00  0.00     0.112 C 
HETATM   19  C12         0      37.591 106.885  23.081  1.00  0.00     0.028 C 
BRANCH  17  20
HETATM   20  O9          0      39.800 109.189  21.399  1.00  0.00    -0.357 OA
HETATM   21  H9          0      40.634 109.302  20.959  1.00  0.00     0.218 HD
ENDBRANCH  17  20
BRANCH  18  22
HETATM   22  O11         0      38.528 108.973  23.900  1.00  0.00    -0.357 OA
HETATM   23  H11         0      39.145 109.674  23.724  1.00  0.00     0.218 HD
ENDBRANCH  18  22
ENDBRANCH   4  14
BRANCH   8  24
HETATM   24  O17         0      31.456 108.511  20.162  1.00  0.00    -0.359 OA
HETATM   25  H17         0      30.512 108.617  20.175  1.00  0.00     0.218 HD
ENDBRANCH   8  24
TORSDOF 5
ENDMDL
