MODEL 1
REMARK VINA RESULT:      -0.5      0.000      0.000
REMARK  5 active torsions:
REMARK  status: ('A' for Active; 'I' for Inactive)
REMARK    1  A    between atoms: C4_4  and  C5_5 
REMARK    2  A    between atoms: C8_8  and  O9_9 
REMARK    3  A    between atoms: C10_11  and  O11_12 
REMARK    4  A    between atoms: C16_18  and  O17_19 
REMARK    5  A    between atoms: C19_22  and  O20_23 
ROOT
HETATM    1  O1          0      38.829   6.021 -11.527  1.00  0.00    -0.286 OA
HETATM    2  C2          0      39.276   5.680 -10.397  1.00  0.00     0.201 C 
HETATM    3  C3          0      39.270   4.369  -9.952  1.00  0.00     0.067 C 
HETATM    4  C4          0      39.673   4.035  -8.665  1.00  0.00     0.103 C 
HETATM    5  O13         0      40.089   4.997  -7.860  1.00  0.00    -0.307 OA
HETATM    6  C14         0      40.080   6.261  -8.220  1.00  0.00     0.107 C 
HETATM    7  C15         0      40.125   7.287  -7.286  1.00  0.00     0.049 C 
HETATM    8  C16         0      39.860   8.603  -7.646  1.00  0.00     0.093 C 
HETATM    9  C18         0      40.079   8.900  -8.985  1.00  0.00     0.048 C 
HETATM   10  C19         0      40.087   7.893  -9.940  1.00  0.00     0.096 C 
HETATM   11  C21         0      39.894   6.593  -9.557  1.00  0.00     0.084 C 
ENDROOT
BRANCH  10  12
HETATM   12  O20         0      39.870   8.219 -11.275  1.00  0.00    -0.359 OA
HETATM   13  H20         0      40.628   8.389 -11.821  1.00  0.00     0.218 HD
ENDBRANCH  10  12
BRANCH   4  14
HETATM   14  C5          0      39.099   2.823  -8.076  1.00  0.00     0.025 C 
HETATM   15  C6          0      38.668   2.758  -6.759  1.00  0.00     0.004 C 
HETATM   16  C7          0      37.514   2.027  -6.494  1.00  0.00     0.026 C 
HETATM   17  C8          0      36.884   1.275  -7.479  1.00  0.00     0.112 C 
HETATM   18  C10         0      37.704   0.900  -8.535  1.00  0.00     0.112 C 
HETATM   19  C12         0      38.804   1.696  -8.833  1.00  0.00     0.028 C 
BRANCH  17  20
HETATM   20  O9          0      35.510   1.117  -7.481  1.00  0.00    -0.357 OA
HETATM   21  H9          0      35.062   0.388  -7.068  1.00  0.00     0.218 HD
ENDBRANCH  17  20
BRANCH  18  22
HETATM   22  O11         0      37.180  -0.005  -9.447  1.00  0.00    -0.357 OA
HETATM   23  H11         0      36.261   0.090  -9.668  1.00  0.00     0.218 HD
ENDBRANCH  18  22
ENDBRANCH   4  14
BRANCH   8  24
HETATM   24  O17         0      39.118   9.450  -6.816  1.00  0.00    -0.359 OA
HETATM   25  H17         0      38.320   9.159  -6.389  1.00  0.00     0.218 HD
ENDBRANCH   8  24
TORSDOF 5
ENDMDL
MODEL 2
REMARK VINA RESULT:      -0.4      2.998      5.769
REMARK  5 active torsions:
REMARK  status: ('A' for Active; 'I' for Inactive)
REMARK    1  A    between atoms: C4_4  and  C5_5 
REMARK    2  A    between atoms: C8_8  and  O9_9 
REMARK    3  A    between atoms: C10_11  and  O11_12 
REMARK    4  A    between atoms: C16_18  and  O17_19 
REMARK    5  A    between atoms: C19_22  and  O20_23 
ROOT
HETATM    1  O1          0      39.869   3.648  -9.636  1.00  0.00    -0.286 OA
HETATM    2  C2          0      39.777   4.889  -9.845  1.00  0.00     0.201 C 
HETATM    3  C3          0      40.073   5.836  -8.879  1.00  0.00     0.067 C 
HETATM    4  C4          0      39.865   7.193  -9.101  1.00  0.00     0.103 C 
HETATM    5  O13         0      39.393   7.579 -10.274  1.00  0.00    -0.307 OA
HETATM    6  C14         0      39.062   6.719 -11.211  1.00  0.00     0.107 C 
HETATM    7  C15         0      38.215   7.065 -12.255  1.00  0.00     0.049 C 
HETATM    8  C16         0      37.668   6.099 -13.091  1.00  0.00     0.093 C 
HETATM    9  C18         0      38.393   4.917 -13.175  1.00  0.00     0.048 C 
HETATM   10  C19         0      39.283   4.562 -12.171  1.00  0.00     0.096 C 
HETATM   11  C21         0      39.462   5.392 -11.098  1.00  0.00     0.084 C 
ENDROOT
BRANCH  10  12
HETATM   12  O20         0      39.660   3.230 -12.036  1.00  0.00    -0.359 OA
HETATM   13  H20         0      39.065   2.642 -11.587  1.00  0.00     0.218 HD
ENDBRANCH  10  12
BRANCH   4  14
HETATM   14  C5          0      39.614   8.033  -7.929  1.00  0.00     0.025 C 
HETATM   15  C6          0      38.768   9.132  -7.959  1.00  0.00     0.004 C 
HETATM   16  C7          0      37.971   9.363  -6.843  1.00  0.00     0.026 C 
HETATM   17  C8          0      38.105   8.609  -5.682  1.00  0.00     0.112 C 
HETATM   18  C10         0      39.344   8.003  -5.525  1.00  0.00     0.112 C 
HETATM   19  C12         0      40.083   7.705  -6.664  1.00  0.00     0.028 C 
BRANCH  17  20
HETATM   20  O9          0      37.008   8.334  -4.885  1.00  0.00    -0.357 OA
HETATM   21  H9          0      36.108   8.435  -5.172  1.00  0.00     0.218 HD
ENDBRANCH  17  20
BRANCH  18  22
HETATM   22  O11         0      39.597   7.397  -4.302  1.00  0.00    -0.357 OA
HETATM   23  H11         0      40.031   6.552  -4.322  1.00  0.00     0.218 HD
ENDBRANCH  18  22
ENDBRANCH   4  14
BRANCH   8  24
HETATM   24  O17         0      36.342   6.183 -13.531  1.00  0.00    -0.359 OA
HETATM   25  H17         0      35.806   5.408 -13.651  1.00  0.00     0.218 HD
ENDBRANCH   8  24
TORSDOF 5
ENDMDL
MODEL 3
REMARK VINA RESULT:      -0.4      1.437      6.797
REMARK  5 active torsions:
REMARK  status: ('A' for Active; 'I' for Inactive)
REMARK    1  A    between atoms: C4_4  and  C5_5 
REMARK    2  A    between atoms: C8_8  and  O9_9 
REMARK    3  A    between atoms: C10_11  and  O11_12 
REMARK    4  A    between atoms: C16_18  and  O17_19 
REMARK    5  A    between atoms: C19_22  and  O20_23 
ROOT
HETATM    1  O1          0      35.935   4.100  -7.566  1.00  0.00    -0.286 OA
HETATM    2  C2          0      37.168   4.084  -7.834  1.00  0.00     0.201 C 
HETATM    3  C3          0      37.930   5.235  -7.926  1.00  0.00     0.067 C 
HETATM    4  C4          0      39.262   5.197  -8.324  1.00  0.00     0.103 C 
HETATM    5  O13         0      39.809   4.026  -8.598  1.00  0.00    -0.307 OA
HETATM    6  C14         0      39.120   2.907  -8.563  1.00  0.00     0.107 C 
HETATM    7  C15         0      39.551   1.762  -9.217  1.00  0.00     0.049 C 
HETATM    8  C16         0      38.709   0.670  -9.392  1.00  0.00     0.093 C 
HETATM    9  C18         0      37.680   0.569  -8.464  1.00  0.00     0.048 C 
HETATM   10  C19         0      37.255   1.686  -7.757  1.00  0.00     0.096 C 
HETATM   11  C21         0      37.866   2.893  -7.963  1.00  0.00     0.084 C 
ENDROOT
BRANCH  10  12
HETATM   12  O20         0      35.987   1.686  -7.182  1.00  0.00    -0.359 OA
HETATM   13  H20         0      35.927   1.754  -6.237  1.00  0.00     0.218 HD
ENDBRANCH  10  12
BRANCH   4  14
HETATM   14  C5          0      39.804   6.397  -8.965  1.00  0.00     0.025 C 
HETATM   15  C6          0      39.899   6.535 -10.343  1.00  0.00     0.004 C 
HETATM   16  C7          0      39.629   7.787 -10.885  1.00  0.00     0.026 C 
HETATM   17  C8          0      39.404   8.898 -10.079  1.00  0.00     0.112 C 
HETATM   18  C10         0      39.943   8.807  -8.803  1.00  0.00     0.112 C 
HETATM   19  C12         0      40.123   7.544  -8.251  1.00  0.00     0.028 C 
BRANCH  17  20
HETATM   20  O9          0      38.533   9.896 -10.476  1.00  0.00    -0.357 OA
HETATM   21  H9          0      38.084  10.476  -9.871  1.00  0.00     0.218 HD
ENDBRANCH  17  20
BRANCH  18  22
HETATM   22  O11         0      39.913   9.955  -8.024  1.00  0.00    -0.357 OA
HETATM   23  H11         0      39.084  10.175  -7.614  1.00  0.00     0.218 HD
ENDBRANCH  18  22
ENDBRANCH   4  14
BRANCH   8  24
HETATM   24  O17         0      38.697  -0.058 -10.586  1.00  0.00    -0.359 OA
HETATM   25  H17         0      38.235  -0.884 -10.663  1.00  0.00     0.218 HD
ENDBRANCH   8  24
TORSDOF 5
ENDMDL
MODEL 4
REMARK VINA RESULT:      -0.4      4.443      7.009
REMARK  5 active torsions:
REMARK  status: ('A' for Active; 'I' for Inactive)
REMARK    1  A    between atoms: C4_4  and  C5_5 
REMARK    2  A    between atoms: C8_8  and  O9_9 
REMARK    3  A    between atoms: C10_11  and  O11_12 
REMARK    4  A    between atoms: C16_18  and  O17_19 
REMARK    5  A    between atoms: C19_22  and  O20_23 
ROOT
HETATM    1  O1          0      35.246   9.886  -5.843  1.00  0.00    -0.286 OA
HETATM    2  C2          0      36.479   9.626  -5.901  1.00  0.00     0.201 C 
HETATM    3  C3          0      37.266   9.956  -6.991  1.00  0.00     0.067 C 
HETATM    4  C4          0      38.598   9.567  -7.072  1.00  0.00     0.103 C 
HETATM    5  O13         0      39.122   8.883  -6.070  1.00  0.00    -0.307 OA
HETATM    6  C14         0      38.410   8.512  -5.029  1.00  0.00     0.107 C 
HETATM    7  C15         0      38.820   7.485  -4.191  1.00  0.00     0.049 C 
HETATM    8  C16         0      37.956   6.929  -3.255  1.00  0.00     0.093 C 
HETATM    9  C18         0      36.921   7.761  -2.845  1.00  0.00     0.048 C 
HETATM   10  C19         0      36.517   8.827  -3.637  1.00  0.00     0.096 C 
HETATM   11  C21         0      37.153   9.071  -4.823  1.00  0.00     0.084 C 
ENDROOT
BRANCH  10  12
HETATM   12  O20         0      35.247   9.367  -3.455  1.00  0.00    -0.359 OA
HETATM   13  H20         0      34.811   9.743  -4.210  1.00  0.00     0.218 HD
ENDBRANCH  10  12
BRANCH   4  14
HETATM   14  C5          0      39.168   9.402  -8.411  1.00  0.00     0.025 C 
HETATM   15  C6          0      40.112   8.432  -8.713  1.00  0.00     0.004 C 
HETATM   16  C7          0      40.016   7.801  -9.949  1.00  0.00     0.026 C 
HETATM   17  C8          0      39.096   8.211 -10.908  1.00  0.00     0.112 C 
HETATM   18  C10         0      38.668   9.526 -10.775  1.00  0.00     0.112 C 
HETATM   19  C12         0      38.695  10.105  -9.512  1.00  0.00     0.028 C 
BRANCH  17  20
HETATM   20  O9          0      38.518   7.299 -11.773  1.00  0.00    -0.357 OA
HETATM   21  H9          0      37.794   6.732 -11.535  1.00  0.00     0.218 HD
ENDBRANCH  17  20
BRANCH  18  22
HETATM   22  O11         0      37.900  10.044 -11.809  1.00  0.00    -0.357 OA
HETATM   23  H11         0      37.645   9.442 -12.498  1.00  0.00     0.218 HD
ENDBRANCH  18  22
ENDBRANCH   4  14
BRANCH   8  24
HETATM   24  O17         0      37.934   5.552  -3.011  1.00  0.00    -0.359 OA
HETATM   25  H17         0      37.980   4.919  -3.718  1.00  0.00     0.218 HD
ENDBRANCH   8  24
TORSDOF 5
ENDMDL
MODEL 5
REMARK VINA RESULT:      -0.3      2.152      6.518
REMARK  5 active torsions:
REMARK  status: ('A' for Active; 'I' for Inactive)
REMARK    1  A    between atoms: C4_4  and  C5_5 
REMARK    2  A    between atoms: C8_8  and  O9_9 
REMARK    3  A    between atoms: C10_11  and  O11_12 
REMARK    4  A    between atoms: C16_18  and  O17_19 
REMARK    5  A    between atoms: C19_22  and  O20_23 
ROOT
HETATM    1  O1          0      35.824   4.573  -6.943  1.00  0.00    -0.286 OA
HETATM    2  C2          0      37.069   4.767  -6.987  1.00  0.00     0.201 C 
HETATM    3  C3          0      37.636   5.863  -7.615  1.00  0.00     0.067 C 
HETATM    4  C4          0      39.014   5.999  -7.739  1.00  0.00     0.103 C 
HETATM    5  O13         0      39.794   5.065  -7.224  1.00  0.00    -0.307 OA
HETATM    6  C14         0      39.307   3.987  -6.650  1.00  0.00     0.107 C 
HETATM    7  C15         0      40.073   2.844  -6.473  1.00  0.00     0.049 C 
HETATM    8  C16         0      39.493   1.635  -6.106  1.00  0.00     0.093 C 
HETATM    9  C18         0      38.282   1.746  -5.432  1.00  0.00     0.048 C 
HETATM   10  C19         0      37.512   2.896  -5.550  1.00  0.00     0.096 C 
HETATM   11  C21         0      37.956   3.934  -6.322  1.00  0.00     0.084 C 
ENDROOT
BRANCH  10  12
HETATM   12  O20         0      36.154   2.838  -5.252  1.00  0.00    -0.359 OA
HETATM   13  H20         0      35.616   2.231  -5.745  1.00  0.00     0.218 HD
ENDBRANCH  10  12
BRANCH   4  14
HETATM   14  C5          0      39.510   6.786  -8.870  1.00  0.00     0.025 C 
HETATM   15  C6          0      40.125   6.212  -9.973  1.00  0.00     0.004 C 
HETATM   16  C7          0      39.847   6.758 -11.222  1.00  0.00     0.026 C 
HETATM   17  C8          0      39.091   7.917 -11.360  1.00  0.00     0.112 C 
HETATM   18  C10         0      39.072   8.734 -10.237  1.00  0.00     0.112 C 
HETATM   19  C12         0      39.268   8.148  -8.992  1.00  0.00     0.028 C 
BRANCH  17  20
HETATM   20  O9          0      38.270   8.102 -12.458  1.00  0.00    -0.357 OA
HETATM   21  H9          0      38.472   8.692 -13.175  1.00  0.00     0.218 HD
ENDBRANCH  17  20
BRANCH  18  22
HETATM   22  O11         0      38.493   9.986 -10.381  1.00  0.00    -0.357 OA
HETATM   23  H11         0      39.027  10.737 -10.147  1.00  0.00     0.218 HD
ENDBRANCH  18  22
ENDBRANCH   4  14
BRANCH   8  24
HETATM   24  O17         0      39.916   0.424  -6.664  1.00  0.00    -0.359 OA
HETATM   25  H17         0      40.621   0.386  -7.299  1.00  0.00     0.218 HD
ENDBRANCH   8  24
TORSDOF 5
ENDMDL
MODEL 6
REMARK VINA RESULT:      -0.3      1.804      6.797
REMARK  5 active torsions:
REMARK  status: ('A' for Active; 'I' for Inactive)
REMARK    1  A    between atoms: C4_4  and  C5_5 
REMARK    2  A    between atoms: C8_8  and  O9_9 
REMARK    3  A    between atoms: C10_11  and  O11_12 
REMARK    4  A    between atoms: C16_18  and  O17_19 
REMARK    5  A    between atoms: C19_22  and  O20_23 
ROOT
HETATM    1  O1          0      37.668   0.526 -10.643  1.00  0.00    -0.286 OA
HETATM    2  C2          0      37.995   1.340  -9.736  1.00  0.00     0.201 C 
HETATM    3  C3          0      38.314   2.663  -9.994  1.00  0.00     0.067 C 
HETATM    4  C4          0      38.770   3.511  -8.991  1.00  0.00     0.103 C 
HETATM    5  O13         0      38.880   3.039  -7.762  1.00  0.00    -0.307 OA
HETATM    6  C14         0      38.627   1.781  -7.470  1.00  0.00     0.107 C 
HETATM    7  C15         0      39.109   1.188  -6.313  1.00  0.00     0.049 C 
HETATM    8  C16         0      39.059  -0.189  -6.133  1.00  0.00     0.093 C 
HETATM    9  C18         0      38.073  -0.841  -6.864  1.00  0.00     0.048 C 
HETATM   10  C19         0      37.535  -0.255  -8.002  1.00  0.00     0.096 C 
HETATM   11  C21         0      37.966   0.982  -8.397  1.00  0.00     0.084 C 
ENDROOT
BRANCH  10  12
HETATM   12  O20         0      36.901  -1.057  -8.946  1.00  0.00    -0.359 OA
HETATM   13  H20         0      37.229  -1.940  -9.071  1.00  0.00     0.218 HD
ENDBRANCH  10  12
BRANCH   4  14
HETATM   14  C5          0      39.626   4.627  -9.396  1.00  0.00     0.025 C 
HETATM   15  C6          0      40.053   4.812 -10.703  1.00  0.00     0.004 C 
HETATM   16  C7          0      40.114   6.116 -11.183  1.00  0.00     0.026 C 
HETATM   17  C8          0      39.890   7.210 -10.353  1.00  0.00     0.112 C 
HETATM   18  C10         0      40.103   6.966  -9.003  1.00  0.00     0.112 C 
HETATM   19  C12         0      39.951   5.667  -8.534  1.00  0.00     0.028 C 
BRANCH  17  20
HETATM   20  O9          0      39.300   8.362 -10.843  1.00  0.00    -0.357 OA
HETATM   21  H9          0      38.405   8.403 -11.161  1.00  0.00     0.218 HD
ENDBRANCH  17  20
BRANCH  18  22
HETATM   22  O11         0      40.078   8.064  -8.155  1.00  0.00    -0.357 OA
HETATM   23  H11         0      40.865   8.596  -8.116  1.00  0.00     0.218 HD
ENDBRANCH  18  22
ENDBRANCH   4  14
BRANCH   8  24
HETATM   24  O17         0      40.117  -0.886  -5.540  1.00  0.00    -0.359 OA
HETATM   25  H17         0      40.945  -1.012  -5.988  1.00  0.00     0.218 HD
ENDBRANCH   8  24
TORSDOF 5
ENDMDL
MODEL 7
REMARK VINA RESULT:      -0.3      3.371      6.954
REMARK  5 active torsions:
REMARK  status: ('A' for Active; 'I' for Inactive)
REMARK    1  A    between atoms: C4_4  and  C5_5 
REMARK    2  A    between atoms: C8_8  and  O9_9 
REMARK    3  A    between atoms: C10_11  and  O11_12 
REMARK    4  A    between atoms: C16_18  and  O17_19 
REMARK    5  A    between atoms: C19_22  and  O20_23 
ROOT
HETATM    1  O1          0      35.003   3.113 -10.436  1.00  0.00    -0.286 OA
HETATM    2  C2          0      36.214   2.937 -10.743  1.00  0.00     0.201 C 
HETATM    3  C3          0      37.258   3.531 -10.055  1.00  0.00     0.067 C 
HETATM    4  C4          0      38.576   3.402 -10.477  1.00  0.00     0.103 C 
HETATM    5  O13         0      38.831   2.676 -11.551  1.00  0.00    -0.307 OA
HETATM    6  C14         0      37.874   2.122 -12.263  1.00  0.00     0.107 C 
HETATM    7  C15         0      38.080   1.714 -13.573  1.00  0.00     0.049 C 
HETATM    8  C16         0      37.016   1.369 -14.398  1.00  0.00     0.093 C 
HETATM    9  C18         0      35.871   0.947 -13.733  1.00  0.00     0.048 C 
HETATM   10  C19         0      35.655   1.298 -12.407  1.00  0.00     0.096 C 
HETATM   11  C21         0      36.586   2.052 -11.744  1.00  0.00     0.084 C 
ENDROOT
BRANCH  10  12
HETATM   12  O20         0      34.362   1.259 -11.894  1.00  0.00    -0.359 OA
HETATM   13  H20         0      33.706   0.771 -12.378  1.00  0.00     0.218 HD
ENDBRANCH  10  12
BRANCH   4  14
HETATM   14  C5          0      39.503   4.477 -10.117  1.00  0.00     0.025 C 
HETATM   15  C6          0      39.970   5.406 -11.035  1.00  0.00     0.004 C 
HETATM   16  C7          0      40.116   6.721 -10.604  1.00  0.00     0.026 C 
HETATM   17  C8          0      39.933   7.077  -9.272  1.00  0.00     0.112 C 
HETATM   18  C10         0      40.100   6.037  -8.367  1.00  0.00     0.112 C 
HETATM   19  C12         0      39.865   4.738  -8.802  1.00  0.00     0.028 C 
BRANCH  17  20
HETATM   20  O9          0      39.421   8.316  -8.933  1.00  0.00    -0.357 OA
HETATM   21  H9          0      38.507   8.470  -8.723  1.00  0.00     0.218 HD
ENDBRANCH  17  20
BRANCH  18  22
HETATM   22  O11         0      40.116   6.373  -7.020  1.00  0.00    -0.357 OA
HETATM   23  H11         0      39.295   6.660  -6.639  1.00  0.00     0.218 HD
ENDBRANCH  18  22
ENDBRANCH   4  14
BRANCH   8  24
HETATM   24  O17         0      36.989   1.740 -15.747  1.00  0.00    -0.359 OA
HETATM   25  H17         0      36.303   2.295 -16.098  1.00  0.00     0.218 HD
ENDBRANCH   8  24
TORSDOF 5
ENDMDL
MODEL 8
REMARK VINA RESULT:      -0.3      3.454      5.126
REMARK  5 active torsions:
REMARK  status: ('A' for Active; 'I' for Inactive)
REMARK    1  A    between atoms: C4_4  and  C5_5 
REMARK    2  A    between atoms: C8_8  and  O9_9 
REMARK    3  A    between atoms: C10_11  and  O11_12 
REMARK    4  A    between atoms: C16_18  and  O17_19 
REMARK    5  A    between atoms: C19_22  and  O20_23 
ROOT
HETATM    1  O1          0      39.663   5.542  -9.658  1.00  0.00    -0.286 OA
HETATM    2  C2          0      38.978   5.621 -10.714  1.00  0.00     0.201 C 
HETATM    3  C3          0      38.440   4.511 -11.344  1.00  0.00     0.067 C 
HETATM    4  C4          0      37.776   4.615 -12.561  1.00  0.00     0.103 C 
HETATM    5  O13         0      37.645   5.808 -13.113  1.00  0.00    -0.307 OA
HETATM    6  C14         0      38.169   6.888 -12.576  1.00  0.00     0.107 C 
HETATM    7  C15         0      38.386   8.041 -13.317  1.00  0.00     0.049 C 
HETATM    8  C16         0      39.165   9.081 -12.823  1.00  0.00     0.093 C 
HETATM    9  C18         0      39.249   9.144 -11.438  1.00  0.00     0.048 C 
HETATM   10  C19         0      38.992   8.021 -10.663  1.00  0.00     0.096 C 
HETATM   11  C21         0      38.638   6.846 -11.268  1.00  0.00     0.084 C 
ENDROOT
BRANCH  10  12
HETATM   12  O20         0      39.488   7.963  -9.364  1.00  0.00    -0.359 OA
HETATM   13  H20         0      40.276   8.454  -9.166  1.00  0.00     0.218 HD
ENDBRANCH  10  12
BRANCH   4  14
HETATM   14  C5          0      37.778   3.434 -13.427  1.00  0.00     0.025 C 
HETATM   15  C6          0      38.477   3.381 -14.624  1.00  0.00     0.004 C 
HETATM   16  C7          0      39.098   2.181 -14.955  1.00  0.00     0.026 C 
HETATM   17  C8          0      38.921   1.033 -14.190  1.00  0.00     0.112 C 
HETATM   18  C10         0      37.758   1.015 -13.432  1.00  0.00     0.112 C 
HETATM   19  C12         0      37.204   2.229 -13.043  1.00  0.00     0.028 C 
BRANCH  17  20
HETATM   20  O9          0      39.940   0.106 -14.056  1.00  0.00    -0.357 OA
HETATM   21  H9          0      39.866  -0.802 -14.326  1.00  0.00     0.218 HD
ENDBRANCH  17  20
BRANCH  18  22
HETATM   22  O11         0      37.437  -0.178 -12.800  1.00  0.00    -0.357 OA
HETATM   23  H11         0      36.514  -0.364 -12.674  1.00  0.00     0.218 HD
ENDBRANCH  18  22
ENDBRANCH   4  14
BRANCH   8  24
HETATM   24  O17         0      40.053   9.781 -13.647  1.00  0.00    -0.359 OA
HETATM   25  H17         0      40.225   9.509 -14.541  1.00  0.00     0.218 HD
ENDBRANCH   8  24
TORSDOF 5
ENDMDL
MODEL 9
REMARK VINA RESULT:      -0.3      2.887      7.158
REMARK  5 active torsions:
REMARK  status: ('A' for Active; 'I' for Inactive)
REMARK    1  A    between atoms: C4_4  and  C5_5 
REMARK    2  A    between atoms: C8_8  and  O9_9 
REMARK    3  A    between atoms: C10_11  and  O11_12 
REMARK    4  A    between atoms: C16_18  and  O17_19 
REMARK    5  A    between atoms: C19_22  and  O20_23 
ROOT
HETATM    1  O1          0      34.784   4.800  -9.067  1.00  0.00    -0.286 OA
HETATM    2  C2          0      35.927   4.598  -9.560  1.00  0.00     0.201 C 
HETATM    3  C3          0      37.010   5.423  -9.306  1.00  0.00     0.067 C 
HETATM    4  C4          0      38.232   5.238  -9.942  1.00  0.00     0.103 C 
HETATM    5  O13         0      38.359   4.235 -10.793  1.00  0.00    -0.307 OA
HETATM    6  C14         0      37.353   3.445 -11.098  1.00  0.00     0.107 C 
HETATM    7  C15         0      37.354   2.671 -12.250  1.00  0.00     0.049 C 
HETATM    8  C16         0      36.199   2.042 -12.697  1.00  0.00     0.093 C 
HETATM    9  C18         0      35.252   1.785 -11.713  1.00  0.00     0.048 C 
HETATM   10  C19         0      35.251   2.509 -10.529  1.00  0.00     0.096 C 
HETATM   11  C21         0      36.200   3.472 -10.321  1.00  0.00     0.084 C 
ENDROOT
BRANCH  10  12
HETATM   12  O20         0      34.088   2.563  -9.766  1.00  0.00    -0.359 OA
HETATM   13  H20         0      34.160   2.399  -8.833  1.00  0.00     0.218 HD
ENDBRANCH  10  12
BRANCH   4  14
HETATM   14  C5          0      39.086   6.416 -10.108  1.00  0.00     0.025 C 
HETATM   15  C6          0      39.873   6.621 -11.232  1.00  0.00     0.004 C 
HETATM   16  C7          0      39.981   7.922 -11.714  1.00  0.00     0.026 C 
HETATM   17  C8          0      39.437   9.002 -11.028  1.00  0.00     0.112 C 
HETATM   18  C10         0      39.248   8.789  -9.669  1.00  0.00     0.112 C 
HETATM   19  C12         0      39.057   7.486  -9.224  1.00  0.00     0.028 C 
BRANCH  17  20
HETATM   20  O9          0      38.940  10.098 -11.711  1.00  0.00    -0.357 OA
HETATM   21  H9          0      39.050  10.995 -11.420  1.00  0.00     0.218 HD
ENDBRANCH  17  20
BRANCH  18  22
HETATM   22  O11         0      38.887   9.890  -8.905  1.00  0.00    -0.357 OA
HETATM   23  H11         0      39.556  10.548  -8.755  1.00  0.00     0.218 HD
ENDBRANCH  18  22
ENDBRANCH   4  14
BRANCH   8  24
HETATM   24  O17         0      35.880   1.985 -14.058  1.00  0.00    -0.359 OA
HETATM   25  H17         0      35.298   1.320 -14.408  1.00  0.00     0.218 HD
ENDBRANCH   8  24
TORSDOF 5
ENDMDL
