MODEL 1
REMARK VINA RESULT:      -6.6      0.000      0.000
REMARK  5 active torsions:
REMARK  status: ('A' for Active; 'I' for Inactive)
REMARK    1  A    between atoms: C4_4  and  C5_5 
REMARK    2  A    between atoms: C8_8  and  O9_9 
REMARK    3  A    between atoms: C10_11  and  O11_12 
REMARK    4  A    between atoms: C16_18  and  O17_19 
REMARK    5  A    between atoms: C19_22  and  O20_23 
ROOT
HETATM    1  O1          0      44.624  66.284  14.666  1.00  0.00    -0.286 OA
HETATM    2  C2          0      44.481  66.285  13.412  1.00  0.00     0.201 C 
HETATM    3  C3          0      44.277  65.127  12.680  1.00  0.00     0.067 C 
HETATM    4  C4          0      44.226  65.144  11.291  1.00  0.00     0.103 C 
HETATM    5  O13         0      44.356  66.300  10.664  1.00  0.00    -0.307 OA
HETATM    6  C14         0      44.589  67.422  11.309  1.00  0.00     0.107 C 
HETATM    7  C15         0      45.115  68.536  10.672  1.00  0.00     0.049 C 
HETATM    8  C16         0      45.594  69.623  11.394  1.00  0.00     0.093 C 
HETATM    9  C18         0      45.052  69.767  12.665  1.00  0.00     0.048 C 
HETATM   10  C19         0      44.475  68.683  13.314  1.00  0.00     0.096 C 
HETATM   11  C21         0      44.425  67.467  12.690  1.00  0.00     0.084 C 
ENDROOT
BRANCH  10  12
HETATM   12  O20         0      44.340  68.712  14.698  1.00  0.00    -0.359 OA
HETATM   13  H20         0      45.126  68.625  15.224  1.00  0.00     0.218 HD
ENDBRANCH  10  12
BRANCH   4  14
HETATM   14  C5          0      44.611  63.917  10.592  1.00  0.00     0.025 C 
HETATM   15  C6          0      45.864  63.735  10.026  1.00  0.00     0.004 C 
HETATM   16  C7          0      46.439  62.472  10.124  1.00  0.00     0.026 C 
HETATM   17  C8          0      45.737  61.390  10.645  1.00  0.00     0.112 C 
HETATM   18  C10         0      44.355  61.511  10.583  1.00  0.00     0.112 C 
HETATM   19  C12         0      43.804  62.786  10.573  1.00  0.00     0.028 C 
BRANCH  17  20
HETATM   20  O9          0      46.391  60.395  11.351  1.00  0.00    -0.357 OA
HETATM   21  H9          0      46.694  60.495  12.246  1.00  0.00     0.218 HD
ENDBRANCH  17  20
BRANCH  18  22
HETATM   22  O11         0      43.611  60.387  10.914  1.00  0.00    -0.357 OA
HETATM   23  H11         0      44.079  59.561  10.966  1.00  0.00     0.218 HD
ENDBRANCH  18  22
ENDBRANCH   4  14
BRANCH   8  24
HETATM   24  O17         0      46.757  70.298  11.009  1.00  0.00    -0.359 OA
HETATM   25  H17         0      46.816  70.757  10.179  1.00  0.00     0.218 HD
ENDBRANCH   8  24
TORSDOF 5
ENDMDL
MODEL 2
REMARK VINA RESULT:      -6.5      1.436      6.893
REMARK  5 active torsions:
REMARK  status: ('A' for Active; 'I' for Inactive)
REMARK    1  A    between atoms: C4_4  and  C5_5 
REMARK    2  A    between atoms: C8_8  and  O9_9 
REMARK    3  A    between atoms: C10_11  and  O11_12 
REMARK    4  A    between atoms: C16_18  and  O17_19 
REMARK    5  A    between atoms: C19_22  and  O20_23 
ROOT
HETATM    1  O1          0      48.371  63.765  11.196  1.00  0.00    -0.286 OA
HETATM    2  C2          0      47.212  64.063  10.797  1.00  0.00     0.201 C 
HETATM    3  C3          0      46.736  65.363  10.779  1.00  0.00     0.067 C 
HETATM    4  C4          0      45.421  65.653  10.433  1.00  0.00     0.103 C 
HETATM    5  O13         0      44.620  64.658  10.094  1.00  0.00    -0.307 OA
HETATM    6  C14         0      45.010  63.403  10.131  1.00  0.00     0.107 C 
HETATM    7  C15         0      44.101  62.356  10.172  1.00  0.00     0.049 C 
HETATM    8  C16         0      44.507  61.059  10.465  1.00  0.00     0.093 C 
HETATM    9  C18         0      45.840  60.784  10.186  1.00  0.00     0.048 C 
HETATM   10  C19         0      46.768  61.812  10.091  1.00  0.00     0.096 C 
HETATM   11  C21         0      46.364  63.109  10.257  1.00  0.00     0.084 C 
ENDROOT
BRANCH  10  12
HETATM   12  O20         0      48.120  61.525  10.249  1.00  0.00    -0.359 OA
HETATM   13  H20         0      48.416  61.233  11.103  1.00  0.00     0.218 HD
ENDBRANCH  10  12
BRANCH   4  14
HETATM   14  C5          0      44.834  66.871  10.993  1.00  0.00     0.025 C 
HETATM   15  C6          0      44.062  66.873  12.146  1.00  0.00     0.004 C 
HETATM   16  C7          0      44.216  67.942  13.022  1.00  0.00     0.026 C 
HETATM   17  C8          0      45.008  69.040  12.703  1.00  0.00     0.112 C 
HETATM   18  C10         0      45.204  69.237  11.342  1.00  0.00     0.112 C 
HETATM   19  C12         0      45.129  68.135  10.498  1.00  0.00     0.028 C 
BRANCH  17  20
HETATM   20  O9          0      45.700  69.725  13.686  1.00  0.00    -0.357 OA
HETATM   21  H9          0      45.346  70.469  14.159  1.00  0.00     0.218 HD
ENDBRANCH  17  20
BRANCH  18  22
HETATM   22  O11         0      45.825  70.418  10.961  1.00  0.00    -0.357 OA
HETATM   23  H11         0      46.573  70.696  11.478  1.00  0.00     0.218 HD
ENDBRANCH  18  22
ENDBRANCH   4  14
BRANCH   8  24
HETATM   24  O17         0      43.737  60.221  11.280  1.00  0.00    -0.359 OA
HETATM   25  H17         0      42.845  60.441  11.520  1.00  0.00     0.218 HD
ENDBRANCH   8  24
TORSDOF 5
ENDMDL
MODEL 3
REMARK VINA RESULT:      -6.3      3.822      5.112
REMARK  5 active torsions:
REMARK  status: ('A' for Active; 'I' for Inactive)
REMARK    1  A    between atoms: C4_4  and  C5_5 
REMARK    2  A    between atoms: C8_8  and  O9_9 
REMARK    3  A    between atoms: C10_11  and  O11_12 
REMARK    4  A    between atoms: C16_18  and  O17_19 
REMARK    5  A    between atoms: C19_22  and  O20_23 
ROOT
HETATM    1  O1          0      48.053  65.675  13.405  1.00  0.00    -0.286 OA
HETATM    2  C2          0      48.231  65.119  12.286  1.00  0.00     0.201 C 
HETATM    3  C3          0      47.201  64.540  11.564  1.00  0.00     0.067 C 
HETATM    4  C4          0      47.440  63.845  10.384  1.00  0.00     0.103 C 
HETATM    5  O13         0      48.681  63.757   9.939  1.00  0.00    -0.307 OA
HETATM    6  C14         0      49.700  64.256  10.605  1.00  0.00     0.107 C 
HETATM    7  C15         0      51.001  63.836  10.372  1.00  0.00     0.049 C 
HETATM    8  C16         0      52.034  64.170  11.241  1.00  0.00     0.093 C 
HETATM    9  C18         0      51.820  65.321  11.991  1.00  0.00     0.048 C 
HETATM   10  C19         0      50.533  65.795  12.204  1.00  0.00     0.096 C 
HETATM   11  C21         0      49.467  65.134  11.658  1.00  0.00     0.084 C 
ENDROOT
BRANCH  10  12
HETATM   12  O20         0      50.292  66.649  13.276  1.00  0.00    -0.359 OA
HETATM   13  H20         0      49.394  66.905  13.447  1.00  0.00     0.218 HD
ENDBRANCH  10  12
BRANCH   4  14
HETATM   14  C5          0      46.485  62.798  10.018  1.00  0.00     0.025 C 
HETATM   15  C6          0      46.847  61.466   9.875  1.00  0.00     0.004 C 
HETATM   16  C7          0      45.949  60.502  10.323  1.00  0.00     0.026 C 
HETATM   17  C8          0      44.679  60.842  10.774  1.00  0.00     0.112 C 
HETATM   18  C10         0      44.199  62.055  10.296  1.00  0.00     0.112 C 
HETATM   19  C12         0      45.118  63.032   9.935  1.00  0.00     0.028 C 
BRANCH  17  20
HETATM   20  O9          0      44.065  60.116  11.779  1.00  0.00    -0.357 OA
HETATM   21  H9          0      43.513  60.504  12.449  1.00  0.00     0.218 HD
ENDBRANCH  17  20
BRANCH  18  22
HETATM   22  O11         0      42.870  62.353  10.560  1.00  0.00    -0.357 OA
HETATM   23  H11         0      42.524  62.069  11.399  1.00  0.00     0.218 HD
ENDBRANCH  18  22
ENDBRANCH   4  14
BRANCH   8  24
HETATM   24  O17         0      53.034  63.250  11.573  1.00  0.00    -0.359 OA
HETATM   25  H17         0      53.955  63.447  11.449  1.00  0.00     0.218 HD
ENDBRANCH   8  24
TORSDOF 5
ENDMDL
MODEL 4
REMARK VINA RESULT:      -6.2      3.993      6.017
REMARK  5 active torsions:
REMARK  status: ('A' for Active; 'I' for Inactive)
REMARK    1  A    between atoms: C4_4  and  C5_5 
REMARK    2  A    between atoms: C8_8  and  O9_9 
REMARK    3  A    between atoms: C10_11  and  O11_12 
REMARK    4  A    between atoms: C16_18  and  O17_19 
REMARK    5  A    between atoms: C19_22  and  O20_23 
ROOT
HETATM    1  O1          0      46.568  61.525  11.805  1.00  0.00    -0.286 OA
HETATM    2  C2          0      46.921  62.574  11.200  1.00  0.00     0.201 C 
HETATM    3  C3          0      48.244  62.868  10.917  1.00  0.00     0.067 C 
HETATM    4  C4          0      48.614  64.078  10.341  1.00  0.00     0.103 C 
HETATM    5  O13         0      47.671  64.954  10.042  1.00  0.00    -0.307 OA
HETATM    6  C14         0      46.404  64.740  10.324  1.00  0.00     0.107 C 
HETATM    7  C15         0      45.485  65.778  10.389  1.00  0.00     0.049 C 
HETATM    8  C16         0      44.220  65.588  10.931  1.00  0.00     0.093 C 
HETATM    9  C18         0      43.757  64.278  10.895  1.00  0.00     0.048 C 
HETATM   10  C19         0      44.646  63.218  10.784  1.00  0.00     0.096 C 
HETATM   11  C21         0      45.989  63.465  10.692  1.00  0.00     0.084 C 
ENDROOT
BRANCH  10  12
HETATM   12  O20         0      44.243  61.947  11.181  1.00  0.00    -0.359 OA
HETATM   13  H20         0      44.587  61.201  10.703  1.00  0.00     0.218 HD
ENDBRANCH  10  12
BRANCH   4  14
HETATM   14  C5          0      49.967  64.566  10.618  1.00  0.00     0.025 C 
HETATM   15  C6          0      50.214  65.740  11.315  1.00  0.00     0.004 C 
HETATM   16  C7          0      51.289  65.751  12.198  1.00  0.00     0.026 C 
HETATM   17  C8          0      52.170  64.678  12.288  1.00  0.00     0.112 C 
HETATM   18  C10         0      52.221  63.873  11.158  1.00  0.00     0.112 C 
HETATM   19  C12         0      51.101  63.815  10.338  1.00  0.00     0.028 C 
BRANCH  17  20
HETATM   20  O9          0      52.766  64.349  13.493  1.00  0.00    -0.357 OA
HETATM   21  H9          0      53.689  64.143  13.587  1.00  0.00     0.218 HD
ENDBRANCH  17  20
BRANCH  18  22
HETATM   22  O11         0      53.215  62.905  11.120  1.00  0.00    -0.357 OA
HETATM   23  H11         0      53.122  62.219  10.470  1.00  0.00     0.218 HD
ENDBRANCH  18  22
ENDBRANCH   4  14
BRANCH   8  24
HETATM   24  O17         0      43.620  66.558  11.741  1.00  0.00    -0.359 OA
HETATM   25  H17         0      42.849  67.036  11.459  1.00  0.00     0.218 HD
ENDBRANCH   8  24
TORSDOF 5
ENDMDL
MODEL 5
REMARK VINA RESULT:      -6.1      3.288      6.538
REMARK  5 active torsions:
REMARK  status: ('A' for Active; 'I' for Inactive)
REMARK    1  A    between atoms: C4_4  and  C5_5 
REMARK    2  A    between atoms: C8_8  and  O9_9 
REMARK    3  A    between atoms: C10_11  and  O11_12 
REMARK    4  A    between atoms: C16_18  and  O17_19 
REMARK    5  A    between atoms: C19_22  and  O20_23 
ROOT
HETATM    1  O1          0      45.182  66.814  11.827  1.00  0.00    -0.286 OA
HETATM    2  C2          0      45.211  65.800  12.577  1.00  0.00     0.201 C 
HETATM    3  C3          0      45.088  65.882  13.954  1.00  0.00     0.067 C 
HETATM    4  C4          0      45.226  64.762  14.766  1.00  0.00     0.103 C 
HETATM    5  O13         0      45.460  63.592  14.198  1.00  0.00    -0.307 OA
HETATM    6  C14         0      45.622  63.465  12.899  1.00  0.00     0.107 C 
HETATM    7  C15         0      46.249  62.358  12.346  1.00  0.00     0.049 C 
HETATM    8  C16         0      46.645  62.343  11.014  1.00  0.00     0.093 C 
HETATM    9  C18         0      45.937  63.203  10.182  1.00  0.00     0.048 C 
HETATM   10  C19         0      45.260  64.294  10.708  1.00  0.00     0.096 C 
HETATM   11  C21         0      45.274  64.516  12.058  1.00  0.00     0.084 C 
ENDROOT
BRANCH  10  12
HETATM   12  O20         0      44.939  65.362   9.875  1.00  0.00    -0.359 OA
HETATM   13  H20         0      44.356  66.031  10.213  1.00  0.00     0.218 HD
ENDBRANCH  10  12
BRANCH   4  14
HETATM   14  C5          0      45.681  64.982  16.140  1.00  0.00     0.025 C 
HETATM   15  C6          0      45.645  66.226  16.753  1.00  0.00     0.004 C 
HETATM   16  C7          0      45.300  66.270  18.101  1.00  0.00     0.026 C 
HETATM   17  C8          0      45.128  65.109  18.848  1.00  0.00     0.112 C 
HETATM   18  C10         0      45.785  63.994  18.346  1.00  0.00     0.112 C 
HETATM   19  C12         0      46.042  63.937  16.981  1.00  0.00     0.028 C 
BRANCH  17  20
HETATM   20  O9          0      44.203  65.058  19.875  1.00  0.00    -0.357 OA
HETATM   21  H9          0      43.952  64.257  20.320  1.00  0.00     0.218 HD
ENDBRANCH  17  20
BRANCH  18  22
HETATM   22  O11         0      45.804  62.862  19.148  1.00  0.00    -0.357 OA
HETATM   23  H11         0      46.026  62.987  20.063  1.00  0.00     0.218 HD
ENDBRANCH  18  22
ENDBRANCH   4  14
BRANCH   8  24
HETATM   24  O17         0      47.861  61.773  10.620  1.00  0.00    -0.359 OA
HETATM   25  H17         0      48.683  62.022  11.026  1.00  0.00     0.218 HD
ENDBRANCH   8  24
TORSDOF 5
ENDMDL
MODEL 6
REMARK VINA RESULT:      -5.7      3.927      9.073
REMARK  5 active torsions:
REMARK  status: ('A' for Active; 'I' for Inactive)
REMARK    1  A    between atoms: C4_4  and  C5_5 
REMARK    2  A    between atoms: C8_8  and  O9_9 
REMARK    3  A    between atoms: C10_11  and  O11_12 
REMARK    4  A    between atoms: C16_18  and  O17_19 
REMARK    5  A    between atoms: C19_22  and  O20_23 
ROOT
HETATM    1  O1          0      44.692  69.489  17.191  1.00  0.00    -0.286 OA
HETATM    2  C2          0      45.097  69.894  16.067  1.00  0.00     0.201 C 
HETATM    3  C3          0      45.355  71.228  15.798  1.00  0.00     0.067 C 
HETATM    4  C4          0      45.701  71.661  14.523  1.00  0.00     0.103 C 
HETATM    5  O13         0      45.804  70.767  13.556  1.00  0.00    -0.307 OA
HETATM    6  C14         0      45.535  69.494  13.748  1.00  0.00     0.107 C 
HETATM    7  C15         0      45.252  68.639  12.693  1.00  0.00     0.049 C 
HETATM    8  C16         0      44.722  67.373  12.911  1.00  0.00     0.093 C 
HETATM    9  C18         0      44.992  66.832  14.163  1.00  0.00     0.048 C 
HETATM   10  C19         0      45.325  67.656  15.230  1.00  0.00     0.096 C 
HETATM   11  C21         0      45.404  69.009  15.045  1.00  0.00     0.084 C 
ENDROOT
BRANCH  10  12
HETATM   12  O20         0      45.165  67.183  16.529  1.00  0.00    -0.359 OA
HETATM   13  H20         0      45.918  66.793  16.957  1.00  0.00     0.218 HD
ENDBRANCH  10  12
BRANCH   4  14
HETATM   14  C5          0      45.372  73.044  14.173  1.00  0.00     0.025 C 
HETATM   15  C6          0      44.492  73.372  13.151  1.00  0.00     0.004 C 
HETATM   16  C7          0      43.641  74.453  13.356  1.00  0.00     0.026 C 
HETATM   17  C8          0      43.750  75.265  14.480  1.00  0.00     0.112 C 
HETATM   18  C10         0      45.001  75.255  15.083  1.00  0.00     0.112 C 
HETATM   19  C12         0      45.798  74.126  14.933  1.00  0.00     0.028 C 
BRANCH  17  20
HETATM   20  O9          0      42.630  75.849  15.044  1.00  0.00    -0.357 OA
HETATM   21  H9          0      42.233  76.650  14.720  1.00  0.00     0.218 HD
ENDBRANCH  17  20
BRANCH  18  22
HETATM   22  O11         0      45.221  76.184  16.089  1.00  0.00    -0.357 OA
HETATM   23  H11         0      45.174  75.869  16.984  1.00  0.00     0.218 HD
ENDBRANCH  18  22
ENDBRANCH   4  14
BRANCH   8  24
HETATM   24  O17         0      43.728  66.844  12.080  1.00  0.00    -0.359 OA
HETATM   25  H17         0      42.809  66.887  12.313  1.00  0.00     0.218 HD
ENDBRANCH   8  24
TORSDOF 5
ENDMDL
MODEL 7
REMARK VINA RESULT:      -5.4      2.838      7.605
REMARK  5 active torsions:
REMARK  status: ('A' for Active; 'I' for Inactive)
REMARK    1  A    between atoms: C4_4  and  C5_5 
REMARK    2  A    between atoms: C8_8  and  O9_9 
REMARK    3  A    between atoms: C10_11  and  O11_12 
REMARK    4  A    between atoms: C16_18  and  O17_19 
REMARK    5  A    between atoms: C19_22  and  O20_23 
ROOT
HETATM    1  O1          0      45.434  66.156  16.418  1.00  0.00    -0.286 OA
HETATM    2  C2          0      45.347  66.832  15.357  1.00  0.00     0.201 C 
HETATM    3  C3          0      45.527  68.204  15.324  1.00  0.00     0.067 C 
HETATM    4  C4          0      45.326  68.938  14.161  1.00  0.00     0.103 C 
HETATM    5  O13         0      44.973  68.298  13.060  1.00  0.00    -0.307 OA
HETATM    6  C14         0      44.753  67.002  13.045  1.00  0.00     0.107 C 
HETATM    7  C15         0      44.015  66.398  12.037  1.00  0.00     0.049 C 
HETATM    8  C16         0      43.571  65.086  12.155  1.00  0.00     0.093 C 
HETATM    9  C18         0      44.317  64.289  13.015  1.00  0.00     0.048 C 
HETATM   10  C19         0      45.103  64.863  14.005  1.00  0.00     0.096 C 
HETATM   11  C21         0      45.157  66.225  14.125  1.00  0.00     0.084 C 
ENDROOT
BRANCH  10  12
HETATM   12  O20         0      45.482  64.096  15.102  1.00  0.00    -0.359 OA
HETATM   13  H20         0      45.723  63.190  14.951  1.00  0.00     0.218 HD
ENDBRANCH  10  12
BRANCH   4  14
HETATM   14  C5          0      44.942  70.343  14.313  1.00  0.00     0.025 C 
HETATM   15  C6          0      44.833  70.963  15.550  1.00  0.00     0.004 C 
HETATM   16  C7          0      45.262  72.282  15.649  1.00  0.00     0.026 C 
HETATM   17  C8          0      45.661  73.006  14.530  1.00  0.00     0.112 C 
HETATM   18  C10         0      45.146  72.542  13.327  1.00  0.00     0.112 C 
HETATM   19  C12         0      44.804  71.199  13.228  1.00  0.00     0.028 C 
BRANCH  17  20
HETATM   20  O9          0      46.654  73.965  14.623  1.00  0.00    -0.357 OA
HETATM   21  H9          0      46.625  74.698  15.226  1.00  0.00     0.218 HD
ENDBRANCH  17  20
BRANCH  18  22
HETATM   22  O11         0      45.356  73.334  12.207  1.00  0.00    -0.357 OA
HETATM   23  H11         0      45.164  74.261  12.293  1.00  0.00     0.218 HD
ENDBRANCH  18  22
ENDBRANCH   4  14
BRANCH   8  24
HETATM   24  O17         0      42.298  64.705  11.718  1.00  0.00    -0.359 OA
HETATM   25  H17         0      41.509  65.073  12.098  1.00  0.00     0.218 HD
ENDBRANCH   8  24
TORSDOF 5
ENDMDL
MODEL 8
REMARK VINA RESULT:      -5.4      3.818      6.293
REMARK  5 active torsions:
REMARK  status: ('A' for Active; 'I' for Inactive)
REMARK    1  A    between atoms: C4_4  and  C5_5 
REMARK    2  A    between atoms: C8_8  and  O9_9 
REMARK    3  A    between atoms: C10_11  and  O11_12 
REMARK    4  A    between atoms: C16_18  and  O17_19 
REMARK    5  A    between atoms: C19_22  and  O20_23 
ROOT
HETATM    1  O1          0      48.166  64.921  12.532  1.00  0.00    -0.286 OA
HETATM    2  C2          0      47.259  65.447  13.234  1.00  0.00     0.201 C 
HETATM    3  C3          0      47.419  65.731  14.579  1.00  0.00     0.067 C 
HETATM    4  C4          0      46.370  66.214  15.352  1.00  0.00     0.103 C 
HETATM    5  O13         0      45.200  66.424  14.775  1.00  0.00    -0.307 OA
HETATM    6  C14         0      44.984  66.137  13.510  1.00  0.00     0.107 C 
HETATM    7  C15         0      43.701  65.972  13.007  1.00  0.00     0.049 C 
HETATM    8  C16         0      43.484  65.424  11.749  1.00  0.00     0.093 C 
HETATM    9  C18         0      44.545  65.555  10.860  1.00  0.00     0.048 C 
HETATM   10  C19         0      45.834  65.768  11.328  1.00  0.00     0.096 C 
HETATM   11  C21         0      46.061  65.865  12.674  1.00  0.00     0.084 C 
ENDROOT
BRANCH  10  12
HETATM   12  O20         0      46.915  65.467  10.504  1.00  0.00    -0.359 OA
HETATM   13  H20         0      47.766  65.357  10.909  1.00  0.00     0.218 HD
ENDBRANCH  10  12
BRANCH   4  14
HETATM   14  C5          0      46.406  65.924  16.787  1.00  0.00     0.025 C 
HETATM   15  C6          0      45.280  65.986  17.595  1.00  0.00     0.004 C 
HETATM   16  C7          0      45.147  65.024  18.591  1.00  0.00     0.026 C 
HETATM   17  C8          0      46.161  64.113  18.864  1.00  0.00     0.112 C 
HETATM   18  C10         0      47.429  64.521  18.472  1.00  0.00     0.112 C 
HETATM   19  C12         0      47.536  65.419  17.416  1.00  0.00     0.028 C 
BRANCH  17  20
HETATM   20  O9          0      45.866  62.832  19.295  1.00  0.00    -0.357 OA
HETATM   21  H9          0      44.983  62.521  19.460  1.00  0.00     0.218 HD
ENDBRANCH  17  20
BRANCH  18  22
HETATM   22  O11         0      48.498  63.739  18.887  1.00  0.00    -0.357 OA
HETATM   23  H11         0      48.334  62.810  18.995  1.00  0.00     0.218 HD
ENDBRANCH  18  22
ENDBRANCH   4  14
BRANCH   8  24
HETATM   24  O17         0      42.435  64.528  11.515  1.00  0.00    -0.359 OA
HETATM   25  H17         0      41.707  64.444  12.119  1.00  0.00     0.218 HD
ENDBRANCH   8  24
TORSDOF 5
ENDMDL
MODEL 9
REMARK VINA RESULT:      -5.3      1.701      6.614
REMARK  5 active torsions:
REMARK  status: ('A' for Active; 'I' for Inactive)
REMARK    1  A    between atoms: C4_4  and  C5_5 
REMARK    2  A    between atoms: C8_8  and  O9_9 
REMARK    3  A    between atoms: C10_11  and  O11_12 
REMARK    4  A    between atoms: C16_18  and  O17_19 
REMARK    5  A    between atoms: C19_22  and  O20_23 
ROOT
HETATM    1  O1          0      43.226  63.564  10.754  1.00  0.00    -0.286 OA
HETATM    2  C2          0      44.130  64.289  11.254  1.00  0.00     0.201 C 
HETATM    3  C3          0      43.931  65.621  11.575  1.00  0.00     0.067 C 
HETATM    4  C4          0      44.972  66.424  12.029  1.00  0.00     0.103 C 
HETATM    5  O13         0      46.171  65.887  12.174  1.00  0.00    -0.307 OA
HETATM    6  C14         0      46.421  64.638  11.848  1.00  0.00     0.107 C 
HETATM    7  C15         0      47.713  64.189  11.616  1.00  0.00     0.049 C 
HETATM    8  C16         0      47.953  62.952  11.030  1.00  0.00     0.093 C 
HETATM    9  C18         0      46.933  62.020  11.188  1.00  0.00     0.048 C 
HETATM   10  C19         0      45.638  62.433  11.468  1.00  0.00     0.096 C 
HETATM   11  C21         0      45.365  63.767  11.606  1.00  0.00     0.084 C 
ENDROOT
BRANCH  10  12
HETATM   12  O20         0      44.577  61.575  11.197  1.00  0.00    -0.359 OA
HETATM   13  H20         0      43.700  61.867  11.417  1.00  0.00     0.218 HD
ENDBRANCH  10  12
BRANCH   4  14
HETATM   14  C5          0      44.869  67.862  11.773  1.00  0.00     0.025 C 
HETATM   15  C6          0      44.276  68.744  12.665  1.00  0.00     0.004 C 
HETATM   16  C7          0      44.861  69.997  12.816  1.00  0.00     0.026 C 
HETATM   17  C8          0      45.917  70.411  12.012  1.00  0.00     0.112 C 
HETATM   18  C10         0      46.006  69.757  10.791  1.00  0.00     0.112 C 
HETATM   19  C12         0      45.490  68.471  10.691  1.00  0.00     0.028 C 
BRANCH  17  20
HETATM   20  O9          0      46.898  71.251  12.508  1.00  0.00    -0.357 OA
HETATM   21  H9          0      46.788  71.795  13.279  1.00  0.00     0.218 HD
ENDBRANCH  17  20
BRANCH  18  22
HETATM   22  O11         0      46.921  70.259   9.875  1.00  0.00    -0.357 OA
HETATM   23  H11         0      47.262  69.650   9.230  1.00  0.00     0.218 HD
ENDBRANCH  18  22
ENDBRANCH   4  14
BRANCH   8  24
HETATM   24  O17         0      48.968  62.777  10.083  1.00  0.00    -0.359 OA
HETATM   25  H17         0      48.868  62.185   9.347  1.00  0.00     0.218 HD
ENDBRANCH   8  24
TORSDOF 5
ENDMDL
