MODEL 1
REMARK VINA RESULT:      -6.1      0.000      0.000
REMARK  5 active torsions:
REMARK  status: ('A' for Active; 'I' for Inactive)
REMARK    1  A    between atoms: C4_4  and  C5_5 
REMARK    2  A    between atoms: C8_8  and  O9_9 
REMARK    3  A    between atoms: C10_11  and  O11_12 
REMARK    4  A    between atoms: C16_18  and  O17_19 
REMARK    5  A    between atoms: C19_22  and  O20_23 
ROOT
HETATM    1  O1          0      30.908  94.445 -12.823  1.00  0.00    -0.286 OA
HETATM    2  C2          0      30.431  93.290 -12.653  1.00  0.00     0.201 C 
HETATM    3  C3          0      29.078  93.055 -12.474  1.00  0.00     0.067 C 
HETATM    4  C4          0      28.591  91.786 -12.186  1.00  0.00     0.103 C 
HETATM    5  O13         0      29.446  90.781 -12.104  1.00  0.00    -0.307 OA
HETATM    6  C14         0      30.743  90.955 -12.229  1.00  0.00     0.107 C 
HETATM    7  C15         0      31.654  90.021 -11.759  1.00  0.00     0.049 C 
HETATM    8  C16         0      33.008  90.319 -11.661  1.00  0.00     0.093 C 
HETATM    9  C18         0      33.451  91.323 -12.514  1.00  0.00     0.048 C 
HETATM   10  C19         0      32.558  92.247 -13.040  1.00  0.00     0.096 C 
HETATM   11  C21         0      31.229  92.158 -12.729  1.00  0.00     0.084 C 
ENDROOT
BRANCH  10  12
HETATM   12  O20         0      33.039  93.464 -13.512  1.00  0.00    -0.359 OA
HETATM   13  H20         0      33.884  93.762 -13.196  1.00  0.00     0.218 HD
ENDBRANCH  10  12
BRANCH   4  14
HETATM   14  C5          0      27.334  91.704 -11.441  1.00  0.00     0.025 C 
HETATM   15  C6          0      26.520  90.580 -11.460  1.00  0.00     0.004 C 
HETATM   16  C7          0      25.893  90.218 -10.272  1.00  0.00     0.026 C 
HETATM   17  C8          0      25.963  91.018  -9.137  1.00  0.00     0.112 C 
HETATM   18  C10         0      26.233  92.357  -9.387  1.00  0.00     0.112 C 
HETATM   19  C12         0      26.937  92.684 -10.541  1.00  0.00     0.028 C 
BRANCH  17  20
HETATM   20  O9          0      25.970  90.456  -7.873  1.00  0.00    -0.357 OA
HETATM   21  H9          0      25.182  90.254  -7.381  1.00  0.00     0.218 HD
ENDBRANCH  17  20
BRANCH  18  22
HETATM   22  O11         0      26.128  93.231  -8.314  1.00  0.00    -0.357 OA
HETATM   23  H11         0      25.814  94.108  -8.503  1.00  0.00     0.218 HD
ENDBRANCH  18  22
ENDBRANCH   4  14
BRANCH   8  24
HETATM   24  O17         0      33.773  89.889 -10.571  1.00  0.00    -0.359 OA
HETATM   25  H17         0      33.590  90.183  -9.686  1.00  0.00     0.218 HD
ENDBRANCH   8  24
TORSDOF 5
ENDMDL
MODEL 2
REMARK VINA RESULT:      -5.9      2.583      4.107
REMARK  5 active torsions:
REMARK  status: ('A' for Active; 'I' for Inactive)
REMARK    1  A    between atoms: C4_4  and  C5_5 
REMARK    2  A    between atoms: C8_8  and  O9_9 
REMARK    3  A    between atoms: C10_11  and  O11_12 
REMARK    4  A    between atoms: C16_18  and  O17_19 
REMARK    5  A    between atoms: C19_22  and  O20_23 
ROOT
HETATM    1  O1          0      33.992  92.098 -12.978  1.00  0.00    -0.286 OA
HETATM    2  C2          0      32.929  92.677 -13.334  1.00  0.00     0.201 C 
HETATM    3  C3          0      31.716  92.473 -12.700  1.00  0.00     0.067 C 
HETATM    4  C4          0      30.540  93.044 -13.175  1.00  0.00     0.103 C 
HETATM    5  O13         0      30.597  93.814 -14.247  1.00  0.00    -0.307 OA
HETATM    6  C14         0      31.717  94.011 -14.908  1.00  0.00     0.107 C 
HETATM    7  C15         0      31.721  94.467 -16.218  1.00  0.00     0.049 C 
HETATM    8  C16         0      32.876  94.431 -16.991  1.00  0.00     0.093 C 
HETATM    9  C18         0      34.064  94.436 -16.271  1.00  0.00     0.048 C 
HETATM   10  C19         0      34.087  94.030 -14.944  1.00  0.00     0.096 C 
HETATM   11  C21         0      32.927  93.637 -14.334  1.00  0.00     0.084 C 
ENDROOT
BRANCH  10  12
HETATM   12  O20         0      35.292  93.626 -14.377  1.00  0.00    -0.359 OA
HETATM   13  H20         0      36.095  93.847 -14.833  1.00  0.00     0.218 HD
ENDBRANCH  10  12
BRANCH   4  14
HETATM   14  C5          0      29.288  92.348 -12.873  1.00  0.00     0.025 C 
HETATM   15  C6          0      29.224  91.246 -12.032  1.00  0.00     0.004 C 
HETATM   16  C7          0      28.124  91.144 -11.186  1.00  0.00     0.026 C 
HETATM   17  C8          0      27.058  92.033 -11.265  1.00  0.00     0.112 C 
HETATM   18  C10         0      26.919  92.664 -12.495  1.00  0.00     0.112 C 
HETATM   19  C12         0      28.051  92.829 -13.284  1.00  0.00     0.028 C 
BRANCH  17  20
HETATM   20  O9          0      26.349  92.393 -10.133  1.00  0.00    -0.357 OA
HETATM   21  H9          0      25.471  92.084  -9.939  1.00  0.00     0.218 HD
ENDBRANCH  17  20
BRANCH  18  22
HETATM   22  O11         0      25.768  93.413 -12.690  1.00  0.00    -0.357 OA
HETATM   23  H11         0      24.995  92.946 -12.986  1.00  0.00     0.218 HD
ENDBRANCH  18  22
ENDBRANCH   4  14
BRANCH   8  24
HETATM   24  O17         0      32.836  94.076 -18.344  1.00  0.00    -0.359 OA
HETATM   25  H17         0      32.348  94.585 -18.980  1.00  0.00     0.218 HD
ENDBRANCH   8  24
TORSDOF 5
ENDMDL
MODEL 3
REMARK VINA RESULT:      -5.9      2.672      6.758
REMARK  5 active torsions:
REMARK  status: ('A' for Active; 'I' for Inactive)
REMARK    1  A    between atoms: C4_4  and  C5_5 
REMARK    2  A    between atoms: C8_8  and  O9_9 
REMARK    3  A    between atoms: C10_11  and  O11_12 
REMARK    4  A    between atoms: C16_18  and  O17_19 
REMARK    5  A    between atoms: C19_22  and  O20_23 
ROOT
HETATM    1  O1          0      31.166  91.126 -11.493  1.00  0.00    -0.286 OA
HETATM    2  C2          0      30.566  92.168 -11.875  1.00  0.00     0.201 C 
HETATM    3  C3          0      31.218  93.234 -12.473  1.00  0.00     0.067 C 
HETATM    4  C4          0      30.551  94.411 -12.791  1.00  0.00     0.103 C 
HETATM    5  O13         0      29.258  94.498 -12.531  1.00  0.00    -0.307 OA
HETATM    6  C14         0      28.599  93.531 -11.931  1.00  0.00     0.107 C 
HETATM    7  C15         0      27.381  93.755 -11.304  1.00  0.00     0.049 C 
HETATM    8  C16         0      26.817  92.805 -10.462  1.00  0.00     0.093 C 
HETATM    9  C18         0      27.223  91.497 -10.698  1.00  0.00     0.048 C 
HETATM   10  C19         0      28.413  91.237 -11.363  1.00  0.00     0.096 C 
HETATM   11  C21         0      29.185  92.276 -11.806  1.00  0.00     0.084 C 
ENDROOT
BRANCH  10  12
HETATM   12  O20         0      29.018  89.992 -11.214  1.00  0.00    -0.359 OA
HETATM   13  H20         0      29.264  89.719 -10.339  1.00  0.00     0.218 HD
ENDBRANCH  10  12
BRANCH   4  14
HETATM   14  C5          0      31.345  95.640 -12.835  1.00  0.00     0.025 C 
HETATM   15  C6          0      30.949  96.814 -12.211  1.00  0.00     0.004 C 
HETATM   16  C7          0      31.935  97.585 -11.603  1.00  0.00     0.026 C 
HETATM   17  C8          0      33.284  97.272 -11.725  1.00  0.00     0.112 C 
HETATM   18  C10         0      33.604  96.508 -12.840  1.00  0.00     0.112 C 
HETATM   19  C12         0      32.623  95.681 -13.376  1.00  0.00     0.028 C 
BRANCH  17  20
HETATM   20  O9          0      34.169  97.535 -10.695  1.00  0.00    -0.357 OA
HETATM   21  H9          0      34.698  96.869 -10.271  1.00  0.00     0.218 HD
ENDBRANCH  17  20
BRANCH  18  22
HETATM   22  O11         0      34.952  96.327 -13.112  1.00  0.00    -0.357 OA
HETATM   23  H11         0      35.298  96.765 -13.882  1.00  0.00     0.218 HD
ENDBRANCH  18  22
ENDBRANCH   4  14
BRANCH   8  24
HETATM   24  O17         0      26.172  93.173  -9.276  1.00  0.00    -0.359 OA
HETATM   25  H17         0      25.606  93.934  -9.231  1.00  0.00     0.218 HD
ENDBRANCH   8  24
TORSDOF 5
ENDMDL
MODEL 4
REMARK VINA RESULT:      -5.8      2.289      2.884
REMARK  5 active torsions:
REMARK  status: ('A' for Active; 'I' for Inactive)
REMARK    1  A    between atoms: C4_4  and  C5_5 
REMARK    2  A    between atoms: C8_8  and  O9_9 
REMARK    3  A    between atoms: C10_11  and  O11_12 
REMARK    4  A    between atoms: C16_18  and  O17_19 
REMARK    5  A    between atoms: C19_22  and  O20_23 
ROOT
HETATM    1  O1          0      32.007  94.594 -13.506  1.00  0.00    -0.286 OA
HETATM    2  C2          0      31.219  93.630 -13.302  1.00  0.00     0.201 C 
HETATM    3  C3          0      29.842  93.764 -13.349  1.00  0.00     0.067 C 
HETATM    4  C4          0      28.995  92.712 -13.019  1.00  0.00     0.103 C 
HETATM    5  O13         0      29.528  91.553 -12.672  1.00  0.00    -0.307 OA
HETATM    6  C14         0      30.829  91.384 -12.575  1.00  0.00     0.107 C 
HETATM    7  C15         0      31.377  90.338 -11.846  1.00  0.00     0.049 C 
HETATM    8  C16         0      32.731  90.307 -11.534  1.00  0.00     0.093 C 
HETATM    9  C18         0      33.548  91.029 -12.396  1.00  0.00     0.048 C 
HETATM   10  C19         0      33.023  92.051 -13.174  1.00  0.00     0.096 C 
HETATM   11  C21         0      31.687  92.340 -13.106  1.00  0.00     0.084 C 
ENDROOT
BRANCH  10  12
HETATM   12  O20         0      33.876  93.027 -13.681  1.00  0.00    -0.359 OA
HETATM   13  H20         0      33.800  93.252 -14.600  1.00  0.00     0.218 HD
ENDBRANCH  10  12
BRANCH   4  14
HETATM   14  C5          0      27.665  93.055 -12.513  1.00  0.00     0.025 C 
HETATM   15  C6          0      27.420  93.341 -11.177  1.00  0.00     0.004 C 
HETATM   16  C7          0      26.509  94.354 -10.892  1.00  0.00     0.026 C 
HETATM   17  C8          0      25.766  94.970 -11.893  1.00  0.00     0.112 C 
HETATM   18  C10         0      25.610  94.215 -13.048  1.00  0.00     0.112 C 
HETATM   19  C12         0      26.581  93.268 -13.354  1.00  0.00     0.028 C 
BRANCH  17  20
HETATM   20  O9          0      25.412  96.304 -11.794  1.00  0.00    -0.357 OA
HETATM   21  H9          0      24.671  96.617 -11.289  1.00  0.00     0.218 HD
ENDBRANCH  17  20
BRANCH  18  22
HETATM   22  O11         0      24.725  94.699 -14.001  1.00  0.00    -0.357 OA
HETATM   23  H11         0      25.063  95.340 -14.615  1.00  0.00     0.218 HD
ENDBRANCH  18  22
ENDBRANCH   4  14
BRANCH   8  24
HETATM   24  O17         0      33.181  89.875 -10.282  1.00  0.00    -0.359 OA
HETATM   25  H17         0      33.349  90.487  -9.574  1.00  0.00     0.218 HD
ENDBRANCH   8  24
TORSDOF 5
ENDMDL
MODEL 5
REMARK VINA RESULT:      -5.6      4.306      5.832
REMARK  5 active torsions:
REMARK  status: ('A' for Active; 'I' for Inactive)
REMARK    1  A    between atoms: C4_4  and  C5_5 
REMARK    2  A    between atoms: C8_8  and  O9_9 
REMARK    3  A    between atoms: C10_11  and  O11_12 
REMARK    4  A    between atoms: C16_18  and  O17_19 
REMARK    5  A    between atoms: C19_22  and  O20_23 
ROOT
HETATM    1  O1          0      30.825  92.873 -17.118  1.00  0.00    -0.286 OA
HETATM    2  C2          0      29.766  93.218 -16.527  1.00  0.00     0.201 C 
HETATM    3  C3          0      29.719  93.492 -15.170  1.00  0.00     0.067 C 
HETATM    4  C4          0      28.519  93.769 -14.524  1.00  0.00     0.103 C 
HETATM    5  O13         0      27.405  93.789 -15.235  1.00  0.00    -0.307 OA
HETATM    6  C14         0      27.389  93.500 -16.517  1.00  0.00     0.107 C 
HETATM    7  C15         0      26.221  93.130 -17.168  1.00  0.00     0.049 C 
HETATM    8  C16         0      26.249  92.583 -18.446  1.00  0.00     0.093 C 
HETATM    9  C18         0      27.366  92.916 -19.202  1.00  0.00     0.048 C 
HETATM   10  C19         0      28.536  93.336 -18.585  1.00  0.00     0.096 C 
HETATM   11  C21         0      28.586  93.438 -17.222  1.00  0.00     0.084 C 
ENDROOT
BRANCH  10  12
HETATM   12  O20         0      29.740  93.245 -19.277  1.00  0.00    -0.359 OA
HETATM   13  H20         0      29.732  93.422 -20.210  1.00  0.00     0.218 HD
ENDBRANCH  10  12
BRANCH   4  14
HETATM   14  C5          0      28.439  93.455 -13.097  1.00  0.00     0.025 C 
HETATM   15  C6          0      27.730  94.233 -12.194  1.00  0.00     0.004 C 
HETATM   16  C7          0      27.033  93.576 -11.184  1.00  0.00     0.026 C 
HETATM   17  C8          0      27.145  92.203 -10.995  1.00  0.00     0.112 C 
HETATM   18  C10         0      28.311  91.642 -11.500  1.00  0.00     0.112 C 
HETATM   19  C12         0      28.941  92.273 -12.565  1.00  0.00     0.028 C 
BRANCH  17  20
HETATM   20  O9          0      26.073  91.461 -10.533  1.00  0.00    -0.357 OA
HETATM   21  H9          0      26.157  90.601 -10.138  1.00  0.00     0.218 HD
ENDBRANCH  17  20
BRANCH  18  22
HETATM   22  O11         0      28.562  90.316 -11.175  1.00  0.00    -0.357 OA
HETATM   23  H11         0      27.806  89.758 -11.031  1.00  0.00     0.218 HD
ENDBRANCH  18  22
ENDBRANCH   4  14
BRANCH   8  24
HETATM   24  O17         0      25.405  91.526 -18.805  1.00  0.00    -0.359 OA
HETATM   25  H17         0      25.748  90.671 -19.038  1.00  0.00     0.218 HD
ENDBRANCH   8  24
TORSDOF 5
ENDMDL
MODEL 6
REMARK VINA RESULT:      -5.6      3.236      7.658
REMARK  5 active torsions:
REMARK  status: ('A' for Active; 'I' for Inactive)
REMARK    1  A    between atoms: C4_4  and  C5_5 
REMARK    2  A    between atoms: C8_8  and  O9_9 
REMARK    3  A    between atoms: C10_11  and  O11_12 
REMARK    4  A    between atoms: C16_18  and  O17_19 
REMARK    5  A    between atoms: C19_22  and  O20_23 
ROOT
HETATM    1  O1          0      29.049  93.114 -15.787  1.00  0.00    -0.286 OA
HETATM    2  C2          0      30.054  93.291 -15.045  1.00  0.00     0.201 C 
HETATM    3  C3          0      31.217  93.898 -15.489  1.00  0.00     0.067 C 
HETATM    4  C4          0      32.345  93.988 -14.682  1.00  0.00     0.103 C 
HETATM    5  O13         0      32.290  93.496 -13.456  1.00  0.00    -0.307 OA
HETATM    6  C14         0      31.224  92.876 -12.999  1.00  0.00     0.107 C 
HETATM    7  C15         0      31.286  92.027 -11.904  1.00  0.00     0.049 C 
HETATM    8  C16         0      30.228  91.185 -11.583  1.00  0.00     0.093 C 
HETATM    9  C18         0      28.985  91.603 -12.042  1.00  0.00     0.048 C 
HETATM   10  C19         0      28.888  92.489 -13.106  1.00  0.00     0.096 C 
HETATM   11  C21         0      30.025  92.968 -13.697  1.00  0.00     0.084 C 
ENDROOT
BRANCH  10  12
HETATM   12  O20         0      27.699  92.560 -13.826  1.00  0.00    -0.359 OA
HETATM   13  H20         0      26.937  92.118 -13.472  1.00  0.00     0.218 HD
ENDBRANCH  10  12
BRANCH   4  14
HETATM   14  C5          0      33.644  94.064 -15.353  1.00  0.00     0.025 C 
HETATM   15  C6          0      33.796  94.550 -16.643  1.00  0.00     0.004 C 
HETATM   16  C7          0      34.924  95.319 -16.913  1.00  0.00     0.026 C 
HETATM   17  C8          0      35.933  95.489 -15.972  1.00  0.00     0.112 C 
HETATM   18  C10         0      36.000  94.493 -15.007  1.00  0.00     0.112 C 
HETATM   19  C12         0      34.838  93.797 -14.696  1.00  0.00     0.028 C 
BRANCH  17  20
HETATM   20  O9          0      36.651  96.670 -15.908  1.00  0.00    -0.357 OA
HETATM   21  H9          0      37.278  96.871 -15.222  1.00  0.00     0.218 HD
ENDBRANCH  17  20
BRANCH  18  22
HETATM   22  O11         0      37.099  94.511 -14.160  1.00  0.00    -0.357 OA
HETATM   23  H11         0      37.797  93.893 -14.348  1.00  0.00     0.218 HD
ENDBRANCH  18  22
ENDBRANCH   4  14
BRANCH   8  24
HETATM   24  O17         0      30.447  89.876 -11.140  1.00  0.00    -0.359 OA
HETATM   25  H17         0      30.238  89.607 -10.253  1.00  0.00     0.218 HD
ENDBRANCH   8  24
TORSDOF 5
ENDMDL
MODEL 7
REMARK VINA RESULT:      -5.5      2.875      7.462
REMARK  5 active torsions:
REMARK  status: ('A' for Active; 'I' for Inactive)
REMARK    1  A    between atoms: C4_4  and  C5_5 
REMARK    2  A    between atoms: C8_8  and  O9_9 
REMARK    3  A    between atoms: C10_11  and  O11_12 
REMARK    4  A    between atoms: C16_18  and  O17_19 
REMARK    5  A    between atoms: C19_22  and  O20_23 
ROOT
HETATM    1  O1          0      33.177  91.052 -11.141  1.00  0.00    -0.286 OA
HETATM    2  C2          0      32.691  91.633 -12.149  1.00  0.00     0.201 C 
HETATM    3  C3          0      33.467  92.327 -13.062  1.00  0.00     0.067 C 
HETATM    4  C4          0      32.896  93.044 -14.108  1.00  0.00     0.103 C 
HETATM    5  O13         0      31.581  93.040 -14.236  1.00  0.00    -0.307 OA
HETATM    6  C14         0      30.796  92.429 -13.376  1.00  0.00     0.107 C 
HETATM    7  C15         0      29.449  92.742 -13.265  1.00  0.00     0.049 C 
HETATM    8  C16         0      28.688  92.285 -12.196  1.00  0.00     0.093 C 
HETATM    9  C18         0      29.163  91.130 -11.588  1.00  0.00     0.048 C 
HETATM   10  C19         0      30.496  90.762 -11.717  1.00  0.00     0.096 C 
HETATM   11  C21         0      31.344  91.534 -12.463  1.00  0.00     0.084 C 
ENDROOT
BRANCH  10  12
HETATM   12  O20         0      31.055  89.892 -10.787  1.00  0.00    -0.359 OA
HETATM   13  H20         0      30.833  90.016  -9.872  1.00  0.00     0.218 HD
ENDBRANCH  10  12
BRANCH   4  14
HETATM   14  C5          0      33.652  94.184 -14.629  1.00  0.00     0.025 C 
HETATM   15  C6          0      33.076  95.425 -14.863  1.00  0.00     0.004 C 
HETATM   16  C7          0      33.833  96.553 -14.565  1.00  0.00     0.026 C 
HETATM   17  C8          0      35.164  96.457 -14.175  1.00  0.00     0.112 C 
HETATM   18  C10         0      35.803  95.291 -14.577  1.00  0.00     0.112 C 
HETATM   19  C12         0      35.032  94.154 -14.786  1.00  0.00     0.028 C 
BRANCH  17  20
HETATM   20  O9          0      35.709  97.363 -13.282  1.00  0.00    -0.357 OA
HETATM   21  H9          0      36.483  97.189 -12.759  1.00  0.00     0.218 HD
ENDBRANCH  17  20
BRANCH  18  22
HETATM   22  O11         0      37.175  95.227 -14.380  1.00  0.00    -0.357 OA
HETATM   23  H11         0      37.481  95.230 -13.480  1.00  0.00     0.218 HD
ENDBRANCH  18  22
ENDBRANCH   4  14
BRANCH   8  24
HETATM   24  O17         0      27.732  93.101 -11.580  1.00  0.00    -0.359 OA
HETATM   25  H17         0      26.801  92.966 -11.711  1.00  0.00     0.218 HD
ENDBRANCH   8  24
TORSDOF 5
ENDMDL
MODEL 8
REMARK VINA RESULT:      -5.5      4.149      8.325
REMARK  5 active torsions:
REMARK  status: ('A' for Active; 'I' for Inactive)
REMARK    1  A    between atoms: C4_4  and  C5_5 
REMARK    2  A    between atoms: C8_8  and  O9_9 
REMARK    3  A    between atoms: C10_11  and  O11_12 
REMARK    4  A    between atoms: C16_18  and  O17_19 
REMARK    5  A    between atoms: C19_22  and  O20_23 
ROOT
HETATM    1  O1          0      31.383  93.648 -16.605  1.00  0.00    -0.286 OA
HETATM    2  C2          0      31.983  94.070 -15.578  1.00  0.00     0.201 C 
HETATM    3  C3          0      32.979  95.030 -15.631  1.00  0.00     0.067 C 
HETATM    4  C4          0      33.694  95.402 -14.499  1.00  0.00     0.103 C 
HETATM    5  O13         0      33.394  94.834 -13.344  1.00  0.00    -0.307 OA
HETATM    6  C14         0      32.484  93.890 -13.244  1.00  0.00     0.107 C 
HETATM    7  C15         0      32.443  93.026 -12.160  1.00  0.00     0.049 C 
HETATM    8  C16         0      31.653  91.883 -12.177  1.00  0.00     0.093 C 
HETATM    9  C18         0      30.564  91.935 -13.040  1.00  0.00     0.048 C 
HETATM   10  C19         0      30.553  92.821 -14.109  1.00  0.00     0.096 C 
HETATM   11  C21         0      31.614  93.662 -14.305  1.00  0.00     0.084 C 
ENDROOT
BRANCH  10  12
HETATM   12  O20         0      29.706  92.577 -15.185  1.00  0.00    -0.359 OA
HETATM   13  H20         0      29.076  91.870 -15.105  1.00  0.00     0.218 HD
ENDBRANCH  10  12
BRANCH   4  14
HETATM   14  C5          0      35.050  95.915 -14.701  1.00  0.00     0.025 C 
HETATM   15  C6          0      35.333  97.268 -14.821  1.00  0.00     0.004 C 
HETATM   16  C7          0      36.500  97.737 -14.227  1.00  0.00     0.026 C 
HETATM   17  C8          0      37.424  96.872 -13.650  1.00  0.00     0.112 C 
HETATM   18  C10         0      37.375  95.570 -14.128  1.00  0.00     0.112 C 
HETATM   19  C12         0      36.172  95.098 -14.638  1.00  0.00     0.028 C 
BRANCH  17  20
HETATM   20  O9          0      38.165  97.259 -12.548  1.00  0.00    -0.357 OA
HETATM   21  H9          0      38.108  98.120 -12.149  1.00  0.00     0.218 HD
ENDBRANCH  17  20
BRANCH  18  22
HETATM   22  O11         0      38.393  94.715 -13.728  1.00  0.00    -0.357 OA
HETATM   23  H11         0      38.142  93.964 -13.203  1.00  0.00     0.218 HD
ENDBRANCH  18  22
ENDBRANCH   4  14
BRANCH   8  24
HETATM   24  O17         0      32.107  90.674 -11.638  1.00  0.00    -0.359 OA
HETATM   25  H17         0      32.445  89.978 -12.188  1.00  0.00     0.218 HD
ENDBRANCH   8  24
TORSDOF 5
ENDMDL
MODEL 9
REMARK VINA RESULT:      -5.4     10.207     11.450
REMARK  5 active torsions:
REMARK  status: ('A' for Active; 'I' for Inactive)
REMARK    1  A    between atoms: C4_4  and  C5_5 
REMARK    2  A    between atoms: C8_8  and  O9_9 
REMARK    3  A    between atoms: C10_11  and  O11_12 
REMARK    4  A    between atoms: C16_18  and  O17_19 
REMARK    5  A    between atoms: C19_22  and  O20_23 
ROOT
HETATM    1  O1          0      31.329 103.256 -11.002  1.00  0.00    -0.286 OA
HETATM    2  C2          0      30.850 102.571 -10.057  1.00  0.00     0.201 C 
HETATM    3  C3          0      30.092 103.125  -9.039  1.00  0.00     0.067 C 
HETATM    4  C4          0      29.663 102.367  -7.955  1.00  0.00     0.103 C 
HETATM    5  O13         0      29.975 101.083  -7.916  1.00  0.00    -0.307 OA
HETATM    6  C14         0      30.723 100.516  -8.837  1.00  0.00     0.107 C 
HETATM    7  C15         0      31.376  99.314  -8.610  1.00  0.00     0.049 C 
HETATM    8  C16         0      32.358  98.851  -9.477  1.00  0.00     0.093 C 
HETATM    9  C18         0      32.268  99.334 -10.777  1.00  0.00     0.048 C 
HETATM   10  C19         0      31.581 100.510 -11.047  1.00  0.00     0.096 C 
HETATM   11  C21         0      30.975 101.191 -10.027  1.00  0.00     0.084 C 
ENDROOT
BRANCH  10  12
HETATM   12  O20         0      31.854 101.203 -12.222  1.00  0.00    -0.359 OA
HETATM   13  H20         0      32.103 100.700 -12.988  1.00  0.00     0.218 HD
ENDBRANCH  10  12
BRANCH   4  14
HETATM   14  C5          0      29.426 103.073  -6.695  1.00  0.00     0.025 C 
HETATM   15  C6          0      29.224 102.416  -5.491  1.00  0.00     0.004 C 
HETATM   16  C7          0      29.784 102.977  -4.348  1.00  0.00     0.026 C 
HETATM   17  C8          0      30.410 104.218  -4.376  1.00  0.00     0.112 C 
HETATM   18  C10         0      30.013 105.044  -5.420  1.00  0.00     0.112 C 
HETATM   19  C12         0      29.536 104.454  -6.584  1.00  0.00     0.028 C 
BRANCH  17  20
HETATM   20  O9          0      31.485 104.489  -3.549  1.00  0.00    -0.357 OA
HETATM   21  H9          0      31.424 104.532  -2.601  1.00  0.00     0.218 HD
ENDBRANCH  17  20
BRANCH  18  22
HETATM   22  O11         0      30.462 106.356  -5.388  1.00  0.00    -0.357 OA
HETATM   23  H11         0      31.050 106.627  -6.084  1.00  0.00     0.218 HD
ENDBRANCH  18  22
ENDBRANCH   4  14
BRANCH   8  24
HETATM   24  O17         0      33.519  98.232  -9.001  1.00  0.00    -0.359 OA
HETATM   25  H17         0      33.577  97.894  -8.116  1.00  0.00     0.218 HD
ENDBRANCH   8  24
TORSDOF 5
ENDMDL
