MODEL 1
REMARK VINA RESULT:      -0.0      0.000      0.000
REMARK  5 active torsions:
REMARK  status: ('A' for Active; 'I' for Inactive)
REMARK    1  A    between atoms: C4_4  and  C5_5 
REMARK    2  A    between atoms: C8_8  and  O9_9 
REMARK    3  A    between atoms: C10_11  and  O11_12 
REMARK    4  A    between atoms: C16_18  and  O17_19 
REMARK    5  A    between atoms: C19_22  and  O20_23 
ROOT
HETATM    1  O1          0       9.035   7.654 -17.857  1.00  0.00    -0.286 OA
HETATM    2  C2          0      10.238   7.341 -18.072  1.00  0.00     0.201 C 
HETATM    3  C3          0      10.622   6.079 -18.495  1.00  0.00     0.067 C 
HETATM    4  C4          0      11.961   5.730 -18.626  1.00  0.00     0.103 C 
HETATM    5  O13         0      12.883   6.638 -18.357  1.00  0.00    -0.307 OA
HETATM    6  C14         0      12.574   7.838 -17.917  1.00  0.00     0.107 C 
HETATM    7  C15         0      13.501   8.638 -17.265  1.00  0.00     0.049 C 
HETATM    8  C16         0      13.112   9.785 -16.582  1.00  0.00     0.093 C 
HETATM    9  C18         0      11.921  10.352 -17.019  1.00  0.00     0.048 C 
HETATM   10  C19         0      10.991   9.592 -17.715  1.00  0.00     0.096 C 
HETATM   11  C21         0      11.257   8.278 -17.989  1.00  0.00     0.084 C 
ENDROOT
BRANCH  10  12
HETATM   12  O20         0       9.666  10.014 -17.762  1.00  0.00    -0.359 OA
HETATM   13  H20         0       9.496  10.948 -17.757  1.00  0.00     0.218 HD
ENDBRANCH  10  12
BRANCH   4  14
HETATM   14  C5          0      12.302   4.314 -18.476  1.00  0.00     0.025 C 
HETATM   15  C6          0      13.549   3.882 -18.048  1.00  0.00     0.004 C 
HETATM   16  C7          0      13.593   2.779 -17.202  1.00  0.00     0.026 C 
HETATM   17  C8          0      12.451   2.047 -16.898  1.00  0.00     0.112 C 
HETATM   18  C10         0      11.429   2.152 -17.832  1.00  0.00     0.112 C 
HETATM   19  C12         0      11.358   3.304 -18.606  1.00  0.00     0.028 C 
BRANCH  17  20
HETATM   20  O9          0      12.300   1.450 -15.659  1.00  0.00    -0.357 OA
HETATM   21  H9          0      12.963   1.472 -14.978  1.00  0.00     0.218 HD
ENDBRANCH  17  20
BRANCH  18  22
HETATM   22  O11         0      10.345   1.299 -17.677  1.00  0.00    -0.357 OA
HETATM   23  H11         0       9.483   1.668 -17.826  1.00  0.00     0.218 HD
ENDBRANCH  18  22
ENDBRANCH   4  14
BRANCH   8  24
HETATM   24  O17         0      13.686  10.132 -15.354  1.00  0.00    -0.359 OA
HETATM   25  H17         0      14.570  10.474 -15.295  1.00  0.00     0.218 HD
ENDBRANCH   8  24
TORSDOF 5
ENDMDL
MODEL 2
REMARK VINA RESULT:      -0.0      9.479     12.672
REMARK  5 active torsions:
REMARK  status: ('A' for Active; 'I' for Inactive)
REMARK    1  A    between atoms: C4_4  and  C5_5 
REMARK    2  A    between atoms: C8_8  and  O9_9 
REMARK    3  A    between atoms: C10_11  and  O11_12 
REMARK    4  A    between atoms: C16_18  and  O17_19 
REMARK    5  A    between atoms: C19_22  and  O20_23 
ROOT
HETATM    1  O1          0       8.103  13.287 -19.286  1.00  0.00    -0.286 OA
HETATM    2  C2          0       7.201  13.697 -20.066  1.00  0.00     0.201 C 
HETATM    3  C3          0       7.472  14.192 -21.331  1.00  0.00     0.067 C 
HETATM    4  C4          0       6.472  14.733 -22.131  1.00  0.00     0.103 C 
HETATM    5  O13         0       5.233  14.753 -21.672  1.00  0.00    -0.307 OA
HETATM    6  C14         0       4.928  14.330 -20.464  1.00  0.00     0.107 C 
HETATM    7  C15         0       3.749  14.704 -19.835  1.00  0.00     0.049 C 
HETATM    8  C16         0       3.549  14.470 -18.480  1.00  0.00     0.093 C 
HETATM    9  C18         0       4.294  13.424 -17.949  1.00  0.00     0.048 C 
HETATM   10  C19         0       5.454  12.993 -18.579  1.00  0.00     0.096 C 
HETATM   11  C21         0       5.858  13.592 -19.741  1.00  0.00     0.084 C 
ENDROOT
BRANCH  10  12
HETATM   12  O20         0       6.400  12.281 -17.848  1.00  0.00    -0.359 OA
HETATM   13  H20         0       6.993  12.771 -17.291  1.00  0.00     0.218 HD
ENDBRANCH  10  12
BRANCH   4  14
HETATM   14  C5          0       6.873  15.737 -23.118  1.00  0.00     0.025 C 
HETATM   15  C6          0       6.013  16.721 -23.583  1.00  0.00     0.004 C 
HETATM   16  C7          0       6.542  17.988 -23.805  1.00  0.00     0.026 C 
HETATM   17  C8          0       7.906  18.238 -23.698  1.00  0.00     0.112 C 
HETATM   18  C10         0       8.714  17.120 -23.861  1.00  0.00     0.112 C 
HETATM   19  C12         0       8.186  15.873 -23.550  1.00  0.00     0.028 C 
BRANCH  17  20
HETATM   20  O9          0       8.371  19.463 -23.255  1.00  0.00    -0.357 OA
HETATM   21  H9          0       8.206  19.807 -22.385  1.00  0.00     0.218 HD
ENDBRANCH  17  20
BRANCH  18  22
HETATM   22  O11         0      10.081  17.341 -23.952  1.00  0.00    -0.357 OA
HETATM   23  H11         0      10.651  16.655 -23.623  1.00  0.00     0.218 HD
ENDBRANCH  18  22
ENDBRANCH   4  14
BRANCH   8  24
HETATM   24  O17         0       2.920  15.414 -17.661  1.00  0.00    -0.359 OA
HETATM   25  H17         0       3.343  15.765 -16.887  1.00  0.00     0.218 HD
ENDBRANCH   8  24
TORSDOF 5
ENDMDL
MODEL 3
REMARK VINA RESULT:      -0.0      9.845     12.170
REMARK  5 active torsions:
REMARK  status: ('A' for Active; 'I' for Inactive)
REMARK    1  A    between atoms: C4_4  and  C5_5 
REMARK    2  A    between atoms: C8_8  and  O9_9 
REMARK    3  A    between atoms: C10_11  and  O11_12 
REMARK    4  A    between atoms: C16_18  and  O17_19 
REMARK    5  A    between atoms: C19_22  and  O20_23 
ROOT
HETATM    1  O1          0       7.263  13.204 -19.142  1.00  0.00    -0.286 OA
HETATM    2  C2          0       7.067  13.989 -20.110  1.00  0.00     0.201 C 
HETATM    3  C3          0       8.010  14.211 -21.100  1.00  0.00     0.067 C 
HETATM    4  C4          0       7.809  15.157 -22.098  1.00  0.00     0.103 C 
HETATM    5  O13         0       6.680  15.843 -22.106  1.00  0.00    -0.307 OA
HETATM    6  C14         0       5.768  15.698 -21.169  1.00  0.00     0.107 C 
HETATM    7  C15         0       4.797  16.662 -20.939  1.00  0.00     0.049 C 
HETATM    8  C16         0       4.004  16.629 -19.799  1.00  0.00     0.093 C 
HETATM    9  C18         0       3.857  15.374 -19.221  1.00  0.00     0.048 C 
HETATM   10  C19         0       4.786  14.372 -19.467  1.00  0.00     0.096 C 
HETATM   11  C21         0       5.845  14.617 -20.298  1.00  0.00     0.084 C 
ENDROOT
BRANCH  10  12
HETATM   12  O20         0       4.886  13.305 -18.579  1.00  0.00    -0.359 OA
HETATM   13  H20         0       4.119  13.076 -18.069  1.00  0.00     0.218 HD
ENDBRANCH  10  12
BRANCH   4  14
HETATM   14  C5          0       9.001  15.756 -22.702  1.00  0.00     0.025 C 
HETATM   15  C6          0       9.001  17.022 -23.270  1.00  0.00     0.004 C 
HETATM   16  C7          0      10.129  17.814 -23.080  1.00  0.00     0.026 C 
HETATM   17  C8          0      11.273  17.318 -22.463  1.00  0.00     0.112 C 
HETATM   18  C10         0      11.406  15.937 -22.514  1.00  0.00     0.112 C 
HETATM   19  C12         0      10.255  15.165 -22.619  1.00  0.00     0.028 C 
BRANCH  17  20
HETATM   20  O9          0      12.074  18.139 -21.690  1.00  0.00    -0.357 OA
HETATM   21  H9          0      11.935  18.291 -20.762  1.00  0.00     0.218 HD
ENDBRANCH  17  20
BRANCH  18  22
HETATM   22  O11         0      12.614  15.406 -22.084  1.00  0.00    -0.357 OA
HETATM   23  H11         0      13.186  15.982 -21.590  1.00  0.00     0.218 HD
ENDBRANCH  18  22
ENDBRANCH   4  14
BRANCH   8  24
HETATM   24  O17         0       3.670  17.800 -19.109  1.00  0.00    -0.359 OA
HETATM   25  H17         0       3.568  17.811 -18.165  1.00  0.00     0.218 HD
ENDBRANCH   8  24
TORSDOF 5
ENDMDL
MODEL 4
REMARK VINA RESULT:      -0.0      9.178     11.431
REMARK  5 active torsions:
REMARK  status: ('A' for Active; 'I' for Inactive)
REMARK    1  A    between atoms: C4_4  and  C5_5 
REMARK    2  A    between atoms: C8_8  and  O9_9 
REMARK    3  A    between atoms: C10_11  and  O11_12 
REMARK    4  A    between atoms: C16_18  and  O17_19 
REMARK    5  A    between atoms: C19_22  and  O20_23 
ROOT
HETATM    1  O1          0       7.647  11.865 -20.653  1.00  0.00    -0.286 OA
HETATM    2  C2          0       7.384  12.574 -21.663  1.00  0.00     0.201 C 
HETATM    3  C3          0       8.175  12.583 -22.799  1.00  0.00     0.067 C 
HETATM    4  C4          0       7.921  13.448 -23.857  1.00  0.00     0.103 C 
HETATM    5  O13         0       6.885  14.265 -23.774  1.00  0.00    -0.307 OA
HETATM    6  C14         0       6.125  14.324 -22.703  1.00  0.00     0.107 C 
HETATM    7  C15         0       5.313  15.418 -22.442  1.00  0.00     0.049 C 
HETATM    8  C16         0       4.714  15.592 -21.200  1.00  0.00     0.093 C 
HETATM    9  C18         0       4.527  14.424 -20.470  1.00  0.00     0.048 C 
HETATM   10  C19         0       5.291  13.296 -20.736  1.00  0.00     0.096 C 
HETATM   11  C21         0       6.223  13.328 -21.737  1.00  0.00     0.084 C 
ENDROOT
BRANCH  10  12
HETATM   12  O20         0       5.415  12.313 -19.759  1.00  0.00    -0.359 OA
HETATM   13  H20         0       6.289  12.090 -19.462  1.00  0.00     0.218 HD
ENDBRANCH  10  12
BRANCH   4  14
HETATM   14  C5          0       9.058  13.835 -24.694  1.00  0.00     0.025 C 
HETATM   15  C6          0       9.105  15.032 -25.394  1.00  0.00     0.004 C 
HETATM   16  C7          0      10.328  15.692 -25.463  1.00  0.00     0.026 C 
HETATM   17  C8          0      11.495  15.118 -24.970  1.00  0.00     0.112 C 
HETATM   18  C10         0      11.468  13.732 -24.885  1.00  0.00     0.112 C 
HETATM   19  C12         0      10.238  13.103 -24.731  1.00  0.00     0.028 C 
BRANCH  17  20
HETATM   20  O9          0      12.493  15.903 -24.420  1.00  0.00    -0.357 OA
HETATM   21  H9          0      12.423  16.843 -24.306  1.00  0.00     0.218 HD
ENDBRANCH  17  20
BRANCH  18  22
HETATM   22  O11         0      12.665  13.099 -24.581  1.00  0.00    -0.357 OA
HETATM   23  H11         0      13.120  12.673 -25.298  1.00  0.00     0.218 HD
ENDBRANCH  18  22
ENDBRANCH   4  14
BRANCH   8  24
HETATM   24  O17         0       4.623  16.855 -20.605  1.00  0.00    -0.359 OA
HETATM   25  H17         0       4.541  17.646 -21.123  1.00  0.00     0.218 HD
ENDBRANCH   8  24
TORSDOF 5
ENDMDL
MODEL 5
REMARK VINA RESULT:      -0.0      9.270     10.888
REMARK  5 active torsions:
REMARK  status: ('A' for Active; 'I' for Inactive)
REMARK    1  A    between atoms: C4_4  and  C5_5 
REMARK    2  A    between atoms: C8_8  and  O9_9 
REMARK    3  A    between atoms: C10_11  and  O11_12 
REMARK    4  A    between atoms: C16_18  and  O17_19 
REMARK    5  A    between atoms: C19_22  and  O20_23 
ROOT
HETATM    1  O1          0      11.693  12.154 -23.522  1.00  0.00    -0.286 OA
HETATM    2  C2          0      11.859  11.613 -24.650  1.00  0.00     0.201 C 
HETATM    3  C3          0      12.823  10.647 -24.883  1.00  0.00     0.067 C 
HETATM    4  C4          0      13.054  10.142 -26.158  1.00  0.00     0.103 C 
HETATM    5  O13         0      12.316  10.585 -27.160  1.00  0.00    -0.307 OA
HETATM    6  C14         0      11.413  11.528 -26.999  1.00  0.00     0.107 C 
HETATM    7  C15         0      10.931  12.269 -28.069  1.00  0.00     0.049 C 
HETATM    8  C16         0      10.180  13.421 -27.869  1.00  0.00     0.093 C 
HETATM    9  C18         0       9.512  13.482 -26.652  1.00  0.00     0.048 C 
HETATM   10  C19         0       9.939  12.718 -25.574  1.00  0.00     0.096 C 
HETATM   11  C21         0      11.015  11.886 -25.716  1.00  0.00     0.084 C 
ENDROOT
BRANCH  10  12
HETATM   12  O20         0       9.568  13.093 -24.286  1.00  0.00    -0.359 OA
HETATM   13  H20         0       9.391  14.011 -24.123  1.00  0.00     0.218 HD
ENDBRANCH  10  12
BRANCH   4  14
HETATM   14  C5          0      14.396   9.631 -26.443  1.00  0.00     0.025 C 
HETATM   15  C6          0      14.936   9.608 -27.721  1.00  0.00     0.004 C 
HETATM   16  C7          0      16.289   9.903 -27.855  1.00  0.00     0.026 C 
HETATM   17  C8          0      17.109  10.083 -26.746  1.00  0.00     0.112 C 
HETATM   18  C10         0      16.652   9.479 -25.583  1.00  0.00     0.112 C 
HETATM   19  C12         0      15.285   9.273 -25.438  1.00  0.00     0.028 C 
BRANCH  17  20
HETATM   20  O9          0      18.168  10.972 -26.786  1.00  0.00    -0.357 OA
HETATM   21  H9          0      19.057  10.745 -26.539  1.00  0.00     0.218 HD
ENDBRANCH  17  20
BRANCH  18  22
HETATM   22  O11         0      17.519   9.466 -24.499  1.00  0.00    -0.357 OA
HETATM   23  H11         0      18.075  10.228 -24.384  1.00  0.00     0.218 HD
ENDBRANCH  18  22
ENDBRANCH   4  14
BRANCH   8  24
HETATM   24  O17         0      10.357  14.555 -28.669  1.00  0.00    -0.359 OA
HETATM   25  H17         0      10.302  15.433 -28.309  1.00  0.00     0.218 HD
ENDBRANCH   8  24
TORSDOF 5
ENDMDL
MODEL 6
REMARK VINA RESULT:       0.0      5.710      8.730
REMARK  5 active torsions:
REMARK  status: ('A' for Active; 'I' for Inactive)
REMARK    1  A    between atoms: C4_4  and  C5_5 
REMARK    2  A    between atoms: C8_8  and  O9_9 
REMARK    3  A    between atoms: C10_11  and  O11_12 
REMARK    4  A    between atoms: C16_18  and  O17_19 
REMARK    5  A    between atoms: C19_22  and  O20_23 
ROOT
HETATM    1  O1          0      17.710   8.560 -18.224  1.00  0.00    -0.286 OA
HETATM    2  C2          0      16.666   9.260 -18.323  1.00  0.00     0.201 C 
HETATM    3  C3          0      16.297   9.898 -19.495  1.00  0.00     0.067 C 
HETATM    4  C4          0      15.197  10.746 -19.548  1.00  0.00     0.103 C 
HETATM    5  O13         0      14.481  10.926 -18.453  1.00  0.00    -0.307 OA
HETATM    6  C14         0      14.808  10.374 -17.305  1.00  0.00     0.107 C 
HETATM    7  C15         0      14.324  10.857 -16.098  1.00  0.00     0.049 C 
HETATM    8  C16         0      14.864  10.443 -14.886  1.00  0.00     0.093 C 
HETATM    9  C18         0      15.485   9.200 -14.915  1.00  0.00     0.048 C 
HETATM   10  C19         0      15.940   8.666 -16.113  1.00  0.00     0.096 C 
HETATM   11  C21         0      15.760   9.361 -17.278  1.00  0.00     0.084 C 
ENDROOT
BRANCH  10  12
HETATM   12  O20         0      16.915   7.674 -16.089  1.00  0.00    -0.359 OA
HETATM   13  H20         0      16.636   6.772 -16.193  1.00  0.00     0.218 HD
ENDBRANCH  10  12
BRANCH   4  14
HETATM   14  C5          0      15.216  11.805 -20.560  1.00  0.00     0.025 C 
HETATM   15  C6          0      14.526  12.999 -20.411  1.00  0.00     0.004 C 
HETATM   16  C7          0      15.141  14.160 -20.870  1.00  0.00     0.026 C 
HETATM   17  C8          0      16.340  14.121 -21.572  1.00  0.00     0.112 C 
HETATM   18  C10         0      16.604  12.913 -22.203  1.00  0.00     0.112 C 
HETATM   19  C12         0      16.045  11.756 -21.673  1.00  0.00     0.028 C 
BRANCH  17  20
HETATM   20  O9          0      17.264  15.144 -21.453  1.00  0.00    -0.357 OA
HETATM   21  H9          0      17.378  15.664 -20.666  1.00  0.00     0.218 HD
ENDBRANCH  17  20
BRANCH  18  22
HETATM   22  O11         0      17.688  12.879 -23.069  1.00  0.00    -0.357 OA
HETATM   23  H11         0      17.547  13.212 -23.948  1.00  0.00     0.218 HD
ENDBRANCH  18  22
ENDBRANCH   4  14
BRANCH   8  24
HETATM   24  O17         0      15.063  11.340 -13.831  1.00  0.00    -0.359 OA
HETATM   25  H17         0      14.560  11.286 -13.028  1.00  0.00     0.218 HD
ENDBRANCH   8  24
TORSDOF 5
ENDMDL
MODEL 7
REMARK VINA RESULT:       0.0      5.532     10.271
REMARK  5 active torsions:
REMARK  status: ('A' for Active; 'I' for Inactive)
REMARK    1  A    between atoms: C4_4  and  C5_5 
REMARK    2  A    between atoms: C8_8  and  O9_9 
REMARK    3  A    between atoms: C10_11  and  O11_12 
REMARK    4  A    between atoms: C16_18  and  O17_19 
REMARK    5  A    between atoms: C19_22  and  O20_23 
ROOT
HETATM    1  O1          0      10.359  12.849 -17.298  1.00  0.00    -0.286 OA
HETATM    2  C2          0      11.554  12.991 -17.677  1.00  0.00     0.201 C 
HETATM    3  C3          0      12.268  14.162 -17.489  1.00  0.00     0.067 C 
HETATM    4  C4          0      13.547  14.327 -18.007  1.00  0.00     0.103 C 
HETATM    5  O13         0      14.094  13.328 -18.678  1.00  0.00    -0.307 OA
HETATM    6  C14         0      13.446  12.210 -18.918  1.00  0.00     0.107 C 
HETATM    7  C15         0      13.834  11.343 -19.929  1.00  0.00     0.049 C 
HETATM    8  C16         0      13.010  10.304 -20.344  1.00  0.00     0.093 C 
HETATM    9  C18         0      12.094   9.865 -19.395  1.00  0.00     0.048 C 
HETATM   10  C19         0      11.719  10.690 -18.344  1.00  0.00     0.096 C 
HETATM   11  C21         0      12.268  11.938 -18.231  1.00  0.00     0.084 C 
ENDROOT
BRANCH  10  12
HETATM   12  O20         0      10.524  10.440 -17.676  1.00  0.00    -0.359 OA
HETATM   13  H20         0      10.522  10.503 -16.728  1.00  0.00     0.218 HD
ENDBRANCH  10  12
BRANCH   4  14
HETATM   14  C5          0      13.979  15.694 -18.303  1.00  0.00     0.025 C 
HETATM   15  C6          0      14.927  15.991 -19.270  1.00  0.00     0.004 C 
HETATM   16  C7          0      14.729  17.133 -20.039  1.00  0.00     0.026 C 
HETATM   17  C8          0      13.696  18.024 -19.768  1.00  0.00     0.112 C 
HETATM   18  C10         0      13.228  17.989 -18.461  1.00  0.00     0.112 C 
HETATM   19  C12         0      13.363  16.807 -17.743  1.00  0.00     0.028 C 
BRANCH  17  20
HETATM   20  O9          0      13.071  18.717 -20.790  1.00  0.00    -0.357 OA
HETATM   21  H9          0      12.520  18.306 -21.446  1.00  0.00     0.218 HD
ENDBRANCH  17  20
BRANCH  18  22
HETATM   22  O11         0      12.333  18.982 -18.087  1.00  0.00    -0.357 OA
HETATM   23  H11         0      11.751  19.312 -18.761  1.00  0.00     0.218 HD
ENDBRANCH  18  22
ENDBRANCH   4  14
BRANCH   8  24
HETATM   24  O17         0      12.885   9.968 -21.697  1.00  0.00    -0.359 OA
HETATM   25  H17         0      12.061  10.059 -22.160  1.00  0.00     0.218 HD
ENDBRANCH   8  24
TORSDOF 5
ENDMDL
MODEL 8
REMARK VINA RESULT:       0.0      4.834      9.663
REMARK  5 active torsions:
REMARK  status: ('A' for Active; 'I' for Inactive)
REMARK    1  A    between atoms: C4_4  and  C5_5 
REMARK    2  A    between atoms: C8_8  and  O9_9 
REMARK    3  A    between atoms: C10_11  and  O11_12 
REMARK    4  A    between atoms: C16_18  and  O17_19 
REMARK    5  A    between atoms: C19_22  and  O20_23 
ROOT
HETATM    1  O1          0      11.347  12.689 -15.486  1.00  0.00    -0.286 OA
HETATM    2  C2          0      12.554  12.577 -15.837  1.00  0.00     0.201 C 
HETATM    3  C3          0      13.427  13.651 -15.873  1.00  0.00     0.067 C 
HETATM    4  C4          0      14.723  13.520 -16.361  1.00  0.00     0.103 C 
HETATM    5  O13         0      15.126  12.334 -16.780  1.00  0.00    -0.307 OA
HETATM    6  C14         0      14.326  11.291 -16.803  1.00  0.00     0.107 C 
HETATM    7  C15         0      14.595  10.180 -17.589  1.00  0.00     0.049 C 
HETATM    8  C16         0      13.634   9.200 -17.807  1.00  0.00     0.093 C 
HETATM    9  C18         0      12.655   9.110 -16.825  1.00  0.00     0.048 C 
HETATM   10  C19         0      12.392  10.187 -15.990  1.00  0.00     0.096 C 
HETATM   11  C21         0      13.114  11.341 -16.123  1.00  0.00     0.084 C 
ENDROOT
BRANCH  10  12
HETATM   12  O20         0      11.167  10.255 -15.334  1.00  0.00    -0.359 OA
HETATM   13  H20         0      10.558  10.935 -15.597  1.00  0.00     0.218 HD
ENDBRANCH  10  12
BRANCH   4  14
HETATM   14  C5          0      15.350  14.718 -16.924  1.00  0.00     0.025 C 
HETATM   15  C6          0      16.342  14.663 -17.892  1.00  0.00     0.004 C 
HETATM   16  C7          0      16.318  15.627 -18.895  1.00  0.00     0.026 C 
HETATM   17  C8          0      15.422  16.690 -18.863  1.00  0.00     0.112 C 
HETATM   18  C10         0      14.940  17.005 -17.599  1.00  0.00     0.112 C 
HETATM   19  C12         0      14.895  15.999 -16.641  1.00  0.00     0.028 C 
BRANCH  17  20
HETATM   20  O9          0      14.914  17.224 -20.034  1.00  0.00    -0.357 OA
HETATM   21  H9          0      14.030  17.069 -20.345  1.00  0.00     0.218 HD
ENDBRANCH  17  20
BRANCH  18  22
HETATM   22  O11         0      14.195  18.169 -17.483  1.00  0.00    -0.357 OA
HETATM   23  H11         0      13.673  18.423 -18.236  1.00  0.00     0.218 HD
ENDBRANCH  18  22
ENDBRANCH   4  14
BRANCH   8  24
HETATM   24  O17         0      13.477   8.599 -19.061  1.00  0.00    -0.359 OA
HETATM   25  H17         0      13.986   8.875 -19.814  1.00  0.00     0.218 HD
ENDBRANCH   8  24
TORSDOF 5
ENDMDL
MODEL 9
REMARK VINA RESULT:       0.0      9.413     10.394
REMARK  5 active torsions:
REMARK  status: ('A' for Active; 'I' for Inactive)
REMARK    1  A    between atoms: C4_4  and  C5_5 
REMARK    2  A    between atoms: C8_8  and  O9_9 
REMARK    3  A    between atoms: C10_11  and  O11_12 
REMARK    4  A    between atoms: C16_18  and  O17_19 
REMARK    5  A    between atoms: C19_22  and  O20_23 
ROOT
HETATM    1  O1          0       9.157  14.843 -18.693  1.00  0.00    -0.286 OA
HETATM    2  C2          0      10.106  15.623 -18.976  1.00  0.00     0.201 C 
HETATM    3  C3          0      10.855  15.503 -20.135  1.00  0.00     0.067 C 
HETATM    4  C4          0      11.961  16.312 -20.374  1.00  0.00     0.103 C 
HETATM    5  O13         0      12.284  17.227 -19.477  1.00  0.00    -0.307 OA
HETATM    6  C14         0      11.630  17.357 -18.344  1.00  0.00     0.107 C 
HETATM    7  C15         0      12.182  18.012 -17.253  1.00  0.00     0.049 C 
HETATM    8  C16         0      11.603  17.927 -15.992  1.00  0.00     0.093 C 
HETATM    9  C18         0      10.243  17.640 -15.989  1.00  0.00     0.048 C 
HETATM   10  C19         0       9.649  17.028 -17.084  1.00  0.00     0.096 C 
HETATM   11  C21         0      10.404  16.720 -18.183  1.00  0.00     0.084 C 
ENDROOT
BRANCH  10  12
HETATM   12  O20         0       8.438  16.363 -16.918  1.00  0.00    -0.359 OA
HETATM   13  H20         0       8.244  15.639 -17.502  1.00  0.00     0.218 HD
ENDBRANCH  10  12
BRANCH   4  14
HETATM   14  C5          0      13.011  15.772 -21.240  1.00  0.00     0.025 C 
HETATM   15  C6          0      14.337  16.167 -21.150  1.00  0.00     0.004 C 
HETATM   16  C7          0      15.314  15.192 -21.325  1.00  0.00     0.026 C 
HETATM   17  C8          0      14.989  13.895 -21.710  1.00  0.00     0.112 C 
HETATM   18  C10         0      13.775  13.774 -22.371  1.00  0.00     0.112 C 
HETATM   19  C12         0      12.785  14.715 -22.113  1.00  0.00     0.028 C 
BRANCH  17  20
HETATM   20  O9          0      15.734  12.817 -21.266  1.00  0.00    -0.357 OA
HETATM   21  H9          0      16.022  12.107 -21.828  1.00  0.00     0.218 HD
ENDBRANCH  17  20
BRANCH  18  22
HETATM   22  O11         0      13.490  12.541 -22.942  1.00  0.00    -0.357 OA
HETATM   23  H11         0      14.179  11.887 -22.919  1.00  0.00     0.218 HD
ENDBRANCH  18  22
ENDBRANCH   4  14
BRANCH   8  24
HETATM   24  O17         0      12.383  17.803 -14.838  1.00  0.00    -0.359 OA
HETATM   25  H17         0      12.998  18.479 -14.575  1.00  0.00     0.218 HD
ENDBRANCH   8  24
TORSDOF 5
ENDMDL
