MODEL 1
REMARK VINA RESULT:      -5.3      0.000      0.000
REMARK  5 active torsions:
REMARK  status: ('A' for Active; 'I' for Inactive)
REMARK    1  A    between atoms: C4_4  and  C5_5 
REMARK    2  A    between atoms: C8_8  and  O9_9 
REMARK    3  A    between atoms: C10_11  and  O11_12 
REMARK    4  A    between atoms: C16_18  and  O17_19 
REMARK    5  A    between atoms: C19_22  and  O20_23 
ROOT
HETATM    1  O1          0      36.340  17.007  33.460  1.00  0.00    -0.286 OA
HETATM    2  C2          0      35.271  17.476  33.939  1.00  0.00     0.201 C 
HETATM    3  C3          0      34.946  17.382  35.281  1.00  0.00     0.067 C 
HETATM    4  C4          0      33.716  17.814  35.765  1.00  0.00     0.103 C 
HETATM    5  O13         0      32.852  18.345  34.918  1.00  0.00    -0.307 OA
HETATM    6  C14         0      33.095  18.423  33.628  1.00  0.00     0.107 C 
HETATM    7  C15         0      32.077  18.595  32.701  1.00  0.00     0.049 C 
HETATM    8  C16         0      32.303  18.422  31.341  1.00  0.00     0.093 C 
HETATM    9  C18         0      33.620  18.605  30.937  1.00  0.00     0.048 C 
HETATM   10  C19         0      34.660  18.487  31.848  1.00  0.00     0.096 C 
HETATM   11  C21         0      34.386  18.205  33.159  1.00  0.00     0.084 C 
ENDROOT
BRANCH  10  12
HETATM   12  O20         0      35.947  18.236  31.383  1.00  0.00    -0.359 OA
HETATM   13  H20         0      36.047  17.651  30.642  1.00  0.00     0.218 HD
ENDBRANCH  10  12
BRANCH   4  14
HETATM   14  C5          0      33.209  17.170  36.978  1.00  0.00     0.025 C 
HETATM   15  C6          0      34.002  16.377  37.796  1.00  0.00     0.004 C 
HETATM   16  C7          0      33.808  16.473  39.170  1.00  0.00     0.026 C 
HETATM   17  C8          0      32.773  17.228  39.710  1.00  0.00     0.112 C 
HETATM   18  C10         0      31.702  17.442  38.851  1.00  0.00     0.112 C 
HETATM   19  C12         0      31.941  17.426  37.482  1.00  0.00     0.028 C 
BRANCH  17  20
HETATM   20  O9          0      32.925  17.874  40.924  1.00  0.00    -0.357 OA
HETATM   21  H9          0      33.247  18.764  41.012  1.00  0.00     0.218 HD
ENDBRANCH  17  20
BRANCH  18  22
HETATM   22  O11         0      30.567  18.024  39.396  1.00  0.00    -0.357 OA
HETATM   23  H11         0      30.581  18.205  40.329  1.00  0.00     0.218 HD
ENDBRANCH  18  22
ENDBRANCH   4  14
BRANCH   8  24
HETATM   24  O17         0      31.362  17.791  30.520  1.00  0.00    -0.359 OA
HETATM   25  H17         0      31.265  16.846  30.507  1.00  0.00     0.218 HD
ENDBRANCH   8  24
TORSDOF 5
ENDMDL
MODEL 2
REMARK VINA RESULT:      -5.2      3.366      6.166
REMARK  5 active torsions:
REMARK  status: ('A' for Active; 'I' for Inactive)
REMARK    1  A    between atoms: C4_4  and  C5_5 
REMARK    2  A    between atoms: C8_8  and  O9_9 
REMARK    3  A    between atoms: C10_11  and  O11_12 
REMARK    4  A    between atoms: C16_18  and  O17_19 
REMARK    5  A    between atoms: C19_22  and  O20_23 
ROOT
HETATM    1  O1          0      36.545  16.806  36.469  1.00  0.00    -0.286 OA
HETATM    2  C2          0      36.650  17.055  35.236  1.00  0.00     0.201 C 
HETATM    3  C3          0      35.858  17.989  34.589  1.00  0.00     0.067 C 
HETATM    4  C4          0      35.924  18.170  33.212  1.00  0.00     0.103 C 
HETATM    5  O13         0      36.780  17.444  32.516  1.00  0.00    -0.307 OA
HETATM    6  C14         0      37.528  16.518  33.076  1.00  0.00     0.107 C 
HETATM    7  C15         0      38.114  15.503  32.333  1.00  0.00     0.049 C 
HETATM    8  C16         0      38.684  14.395  32.947  1.00  0.00     0.093 C 
HETATM    9  C18         0      39.105  14.601  34.255  1.00  0.00     0.048 C 
HETATM   10  C19         0      38.574  15.637  35.013  1.00  0.00     0.096 C 
HETATM   11  C21         0      37.640  16.471  34.461  1.00  0.00     0.084 C 
ENDROOT
BRANCH  10  12
HETATM   12  O20         0      38.657  15.577  36.400  1.00  0.00    -0.359 OA
HETATM   13  H20         0      38.619  14.722  36.812  1.00  0.00     0.218 HD
ENDBRANCH  10  12
BRANCH   4  14
HETATM   14  C5          0      34.722  18.674  32.545  1.00  0.00     0.025 C 
HETATM   15  C6          0      34.458  18.452  31.202  1.00  0.00     0.004 C 
HETATM   16  C7          0      33.139  18.203  30.836  1.00  0.00     0.026 C 
HETATM   17  C8          0      32.097  18.304  31.751  1.00  0.00     0.112 C 
HETATM   18  C10         0      32.362  19.119  32.844  1.00  0.00     0.112 C 
HETATM   19  C12         0      33.685  19.282  33.240  1.00  0.00     0.028 C 
BRANCH  17  20
HETATM   20  O9          0      30.989  17.481  31.658  1.00  0.00    -0.357 OA
HETATM   21  H9          0      30.093  17.795  31.699  1.00  0.00     0.218 HD
ENDBRANCH  17  20
BRANCH  18  22
HETATM   22  O11         0      31.298  19.405  33.687  1.00  0.00    -0.357 OA
HETATM   23  H11         0      31.512  19.662  34.577  1.00  0.00     0.218 HD
ENDBRANCH  18  22
ENDBRANCH   4  14
BRANCH   8  24
HETATM   24  O17         0      38.532  13.109  32.417  1.00  0.00    -0.359 OA
HETATM   25  H17         0      39.148  12.413  32.613  1.00  0.00     0.218 HD
ENDBRANCH   8  24
TORSDOF 5
ENDMDL
MODEL 3
REMARK VINA RESULT:      -5.1      2.600      4.611
REMARK  5 active torsions:
REMARK  status: ('A' for Active; 'I' for Inactive)
REMARK    1  A    between atoms: C4_4  and  C5_5 
REMARK    2  A    between atoms: C8_8  and  O9_9 
REMARK    3  A    between atoms: C10_11  and  O11_12 
REMARK    4  A    between atoms: C16_18  and  O17_19 
REMARK    5  A    between atoms: C19_22  and  O20_23 
ROOT
HETATM    1  O1          0      34.868  16.602  37.084  1.00  0.00    -0.286 OA
HETATM    2  C2          0      34.346  17.269  36.148  1.00  0.00     0.201 C 
HETATM    3  C3          0      33.009  17.629  36.137  1.00  0.00     0.067 C 
HETATM    4  C4          0      32.437  18.274  35.047  1.00  0.00     0.103 C 
HETATM    5  O13         0      33.201  18.566  34.009  1.00  0.00    -0.307 OA
HETATM    6  C14         0      34.467  18.214  33.953  1.00  0.00     0.107 C 
HETATM    7  C15         0      35.155  18.151  32.749  1.00  0.00     0.049 C 
HETATM    8  C16         0      36.401  17.541  32.661  1.00  0.00     0.093 C 
HETATM    9  C18         0      37.118  17.496  33.851  1.00  0.00     0.048 C 
HETATM   10  C19         0      36.466  17.603  35.072  1.00  0.00     0.096 C 
HETATM   11  C21         0      35.109  17.771  35.104  1.00  0.00     0.084 C 
ENDROOT
BRANCH  10  12
HETATM   12  O20         0      37.093  17.132  36.221  1.00  0.00    -0.359 OA
HETATM   13  H20         0      37.458  16.256  36.202  1.00  0.00     0.218 HD
ENDBRANCH  10  12
BRANCH   4  14
HETATM   14  C5          0      31.001  18.084  34.834  1.00  0.00     0.025 C 
HETATM   15  C6          0      30.143  17.655  35.835  1.00  0.00     0.004 C 
HETATM   16  C7          0      28.874  18.223  35.884  1.00  0.00     0.026 C 
HETATM   17  C8          0      28.424  19.088  34.893  1.00  0.00     0.112 C 
HETATM   18  C10         0      29.067  18.954  33.670  1.00  0.00     0.112 C 
HETATM   19  C12         0      30.367  18.462  33.658  1.00  0.00     0.028 C 
BRANCH  17  20
HETATM   20  O9          0      27.559  20.125  35.196  1.00  0.00    -0.357 OA
HETATM   21  H9          0      26.782  20.330  34.689  1.00  0.00     0.218 HD
ENDBRANCH  17  20
BRANCH  18  22
HETATM   22  O11         0      28.533  19.656  32.598  1.00  0.00    -0.357 OA
HETATM   23  H11         0      29.144  19.960  31.937  1.00  0.00     0.218 HD
ENDBRANCH  18  22
ENDBRANCH   4  14
BRANCH   8  24
HETATM   24  O17         0      36.748  16.747  31.563  1.00  0.00    -0.359 OA
HETATM   25  H17         0      37.617  16.776  31.180  1.00  0.00     0.218 HD
ENDBRANCH   8  24
TORSDOF 5
ENDMDL
MODEL 4
REMARK VINA RESULT:      -5.1      3.327      5.486
REMARK  5 active torsions:
REMARK  status: ('A' for Active; 'I' for Inactive)
REMARK    1  A    between atoms: C4_4  and  C5_5 
REMARK    2  A    between atoms: C8_8  and  O9_9 
REMARK    3  A    between atoms: C10_11  and  O11_12 
REMARK    4  A    between atoms: C16_18  and  O17_19 
REMARK    5  A    between atoms: C19_22  and  O20_23 
ROOT
HETATM    1  O1          0      32.907  19.378  29.875  1.00  0.00    -0.286 OA
HETATM    2  C2          0      32.512  19.051  31.028  1.00  0.00     0.201 C 
HETATM    3  C3          0      31.187  19.135  31.420  1.00  0.00     0.067 C 
HETATM    4  C4          0      30.795  18.866  32.726  1.00  0.00     0.103 C 
HETATM    5  O13         0      31.714  18.503  33.603  1.00  0.00    -0.307 OA
HETATM    6  C14         0      32.991  18.444  33.293  1.00  0.00     0.107 C 
HETATM    7  C15         0      33.981  18.462  34.265  1.00  0.00     0.049 C 
HETATM    8  C16         0      35.316  18.656  33.932  1.00  0.00     0.093 C 
HETATM    9  C18         0      35.654  18.300  32.632  1.00  0.00     0.048 C 
HETATM   10  C19         0      34.681  18.228  31.645  1.00  0.00     0.096 C 
HETATM   11  C21         0      33.376  18.492  31.957  1.00  0.00     0.084 C 
ENDROOT
BRANCH  10  12
HETATM   12  O20         0      35.061  18.307  30.308  1.00  0.00    -0.359 OA
HETATM   13  H20         0      34.382  18.244  29.648  1.00  0.00     0.218 HD
ENDBRANCH  10  12
BRANCH   4  14
HETATM   14  C5          0      29.581  19.526  33.210  1.00  0.00     0.025 C 
HETATM   15  C6          0      28.654  20.113  32.361  1.00  0.00     0.004 C 
HETATM   16  C7          0      27.308  19.981  32.685  1.00  0.00     0.026 C 
HETATM   17  C8          0      26.900  19.402  33.882  1.00  0.00     0.112 C 
HETATM   18  C10         0      27.848  19.436  34.896  1.00  0.00     0.112 C 
HETATM   19  C12         0      29.191  19.483  34.543  1.00  0.00     0.028 C 
BRANCH  17  20
HETATM   20  O9          0      25.725  18.674  33.953  1.00  0.00    -0.357 OA
HETATM   21  H9          0      25.335  18.227  33.210  1.00  0.00     0.218 HD
ENDBRANCH  17  20
BRANCH  18  22
HETATM   22  O11         0      27.430  19.045  36.160  1.00  0.00    -0.357 OA
HETATM   23  H11         0      26.533  19.249  36.399  1.00  0.00     0.218 HD
ENDBRANCH  18  22
ENDBRANCH   4  14
BRANCH   8  24
HETATM   24  O17         0      36.156  19.451  34.720  1.00  0.00    -0.359 OA
HETATM   25  H17         0      35.907  20.329  34.985  1.00  0.00     0.218 HD
ENDBRANCH   8  24
TORSDOF 5
ENDMDL
MODEL 5
REMARK VINA RESULT:      -5.0      4.253      5.955
REMARK  5 active torsions:
REMARK  status: ('A' for Active; 'I' for Inactive)
REMARK    1  A    between atoms: C4_4  and  C5_5 
REMARK    2  A    between atoms: C8_8  and  O9_9 
REMARK    3  A    between atoms: C10_11  and  O11_12 
REMARK    4  A    between atoms: C16_18  and  O17_19 
REMARK    5  A    between atoms: C19_22  and  O20_23 
ROOT
HETATM    1  O1          0      36.175  18.546  34.305  1.00  0.00    -0.286 OA
HETATM    2  C2          0      35.715  18.356  33.146  1.00  0.00     0.201 C 
HETATM    3  C3          0      34.728  19.151  32.590  1.00  0.00     0.067 C 
HETATM    4  C4          0      34.167  18.858  31.352  1.00  0.00     0.103 C 
HETATM    5  O13         0      34.609  17.804  30.689  1.00  0.00    -0.307 OA
HETATM    6  C14         0      35.517  16.994  31.187  1.00  0.00     0.107 C 
HETATM    7  C15         0      35.692  15.705  30.705  1.00  0.00     0.049 C 
HETATM    8  C16         0      36.465  14.776  31.391  1.00  0.00     0.093 C 
HETATM    9  C18         0      37.434  15.321  32.226  1.00  0.00     0.048 C 
HETATM   10  C19         0      37.314  16.624  32.690  1.00  0.00     0.096 C 
HETATM   11  C21         0      36.242  17.384  32.309  1.00  0.00     0.084 C 
ENDROOT
BRANCH  10  12
HETATM   12  O20         0      38.013  17.007  33.830  1.00  0.00    -0.359 OA
HETATM   13  H20         0      38.962  16.970  33.804  1.00  0.00     0.218 HD
ENDBRANCH  10  12
BRANCH   4  14
HETATM   14  C5          0      32.800  19.321  31.109  1.00  0.00     0.025 C 
HETATM   15  C6          0      32.099  19.023  29.949  1.00  0.00     0.004 C 
HETATM   16  C7          0      30.740  18.751  30.069  1.00  0.00     0.026 C 
HETATM   17  C8          0      30.070  18.901  31.278  1.00  0.00     0.112 C 
HETATM   18  C10         0      30.674  19.776  32.171  1.00  0.00     0.112 C 
HETATM   19  C12         0      32.048  19.965  32.084  1.00  0.00     0.028 C 
BRANCH  17  20
HETATM   20  O9          0      29.014  18.072  31.610  1.00  0.00    -0.357 OA
HETATM   21  H9          0      28.604  18.057  32.467  1.00  0.00     0.218 HD
ENDBRANCH  17  20
BRANCH  18  22
HETATM   22  O11         0      29.954  20.107  33.310  1.00  0.00    -0.357 OA
HETATM   23  H11         0      30.146  20.947  33.711  1.00  0.00     0.218 HD
ENDBRANCH  18  22
ENDBRANCH   4  14
BRANCH   8  24
HETATM   24  O17         0      36.076  13.436  31.492  1.00  0.00    -0.359 OA
HETATM   25  H17         0      35.785  13.062  32.315  1.00  0.00     0.218 HD
ENDBRANCH   8  24
TORSDOF 5
ENDMDL
MODEL 6
REMARK VINA RESULT:      -4.9      3.478      6.307
REMARK  5 active torsions:
REMARK  status: ('A' for Active; 'I' for Inactive)
REMARK    1  A    between atoms: C4_4  and  C5_5 
REMARK    2  A    between atoms: C8_8  and  O9_9 
REMARK    3  A    between atoms: C10_11  and  O11_12 
REMARK    4  A    between atoms: C16_18  and  O17_19 
REMARK    5  A    between atoms: C19_22  and  O20_23 
ROOT
HETATM    1  O1          0      38.095  15.558  36.584  1.00  0.00    -0.286 OA
HETATM    2  C2          0      37.966  15.907  35.378  1.00  0.00     0.201 C 
HETATM    3  C3          0      37.339  17.082  34.999  1.00  0.00     0.067 C 
HETATM    4  C4          0      37.120  17.392  33.662  1.00  0.00     0.103 C 
HETATM    5  O13         0      37.543  16.549  32.737  1.00  0.00    -0.307 OA
HETATM    6  C14         0      38.111  15.403  33.043  1.00  0.00     0.107 C 
HETATM    7  C15         0      38.190  14.360  32.131  1.00  0.00     0.049 C 
HETATM    8  C16         0      38.554  13.080  32.530  1.00  0.00     0.093 C 
HETATM    9  C18         0      39.318  13.021  33.689  1.00  0.00     0.048 C 
HETATM   10  C19         0      39.299  14.068  34.600  1.00  0.00     0.096 C 
HETATM   11  C21         0      38.535  15.174  34.347  1.00  0.00     0.084 C 
ENDROOT
BRANCH  10  12
HETATM   12  O20         0      39.693  13.833  35.914  1.00  0.00    -0.359 OA
HETATM   13  H20         0      40.603  13.616  36.074  1.00  0.00     0.218 HD
ENDBRANCH  10  12
BRANCH   4  14
HETATM   14  C5          0      35.985  18.265  33.354  1.00  0.00     0.025 C 
HETATM   15  C6          0      35.587  18.552  32.056  1.00  0.00     0.004 C 
HETATM   16  C7          0      34.222  18.640  31.806  1.00  0.00     0.026 C 
HETATM   17  C8          0      33.286  18.579  32.832  1.00  0.00     0.112 C 
HETATM   18  C10         0      33.775  18.928  34.084  1.00  0.00     0.112 C 
HETATM   19  C12         0      35.131  18.749  34.336  1.00  0.00     0.028 C 
BRANCH  17  20
HETATM   20  O9          0      32.042  18.011  32.625  1.00  0.00    -0.357 OA
HETATM   21  H9          0      31.228  18.502  32.639  1.00  0.00     0.218 HD
ENDBRANCH  17  20
BRANCH  18  22
HETATM   22  O11         0      32.847  19.067  35.106  1.00  0.00    -0.357 OA
HETATM   23  H11         0      33.188  19.222  35.979  1.00  0.00     0.218 HD
ENDBRANCH  18  22
ENDBRANCH   4  14
BRANCH   8  24
HETATM   24  O17         0      37.924  11.946  32.006  1.00  0.00    -0.359 OA
HETATM   25  H17         0      37.795  11.161  32.526  1.00  0.00     0.218 HD
ENDBRANCH   8  24
TORSDOF 5
ENDMDL
MODEL 7
REMARK VINA RESULT:      -4.9      2.119      5.924
REMARK  5 active torsions:
REMARK  status: ('A' for Active; 'I' for Inactive)
REMARK    1  A    between atoms: C4_4  and  C5_5 
REMARK    2  A    between atoms: C8_8  and  O9_9 
REMARK    3  A    between atoms: C10_11  and  O11_12 
REMARK    4  A    between atoms: C16_18  and  O17_19 
REMARK    5  A    between atoms: C19_22  and  O20_23 
ROOT
HETATM    1  O1          0      32.487  17.467  38.360  1.00  0.00    -0.286 OA
HETATM    2  C2          0      32.530  17.426  37.100  1.00  0.00     0.201 C 
HETATM    3  C3          0      33.703  17.212  36.396  1.00  0.00     0.067 C 
HETATM    4  C4          0      33.741  17.274  35.008  1.00  0.00     0.103 C 
HETATM    5  O13         0      32.621  17.523  34.352  1.00  0.00    -0.307 OA
HETATM    6  C14         0      31.488  17.770  34.973  1.00  0.00     0.107 C 
HETATM    7  C15         0      30.433  18.412  34.341  1.00  0.00     0.049 C 
HETATM    8  C16         0      29.347  18.896  35.061  1.00  0.00     0.093 C 
HETATM    9  C18         0      29.120  18.263  36.276  1.00  0.00     0.048 C 
HETATM   10  C19         0      30.141  17.572  36.914  1.00  0.00     0.096 C 
HETATM   11  C21         0      31.378  17.500  36.333  1.00  0.00     0.084 C 
ENDROOT
BRANCH  10  12
HETATM   12  O20         0      30.047  17.328  38.281  1.00  0.00    -0.359 OA
HETATM   13  H20         0      29.666  18.003  38.829  1.00  0.00     0.218 HD
ENDBRANCH  10  12
BRANCH   4  14
HETATM   14  C5          0      35.016  17.640  34.388  1.00  0.00     0.025 C 
HETATM   15  C6          0      36.143  17.972  35.126  1.00  0.00     0.004 C 
HETATM   16  C7          0      37.375  17.533  34.654  1.00  0.00     0.026 C 
HETATM   17  C8          0      37.501  16.900  33.421  1.00  0.00     0.112 C 
HETATM   18  C10         0      36.483  17.181  32.520  1.00  0.00     0.112 C 
HETATM   19  C12         0      35.236  17.535  33.021  1.00  0.00     0.028 C 
BRANCH  17  20
HETATM   20  O9          0      38.455  15.918  33.223  1.00  0.00    -0.357 OA
HETATM   21  H9          0      38.257  15.050  32.888  1.00  0.00     0.218 HD
ENDBRANCH  17  20
BRANCH  18  22
HETATM   22  O11         0      36.655  16.731  31.218  1.00  0.00    -0.357 OA
HETATM   23  H11         0      36.755  15.793  31.097  1.00  0.00     0.218 HD
ENDBRANCH  18  22
ENDBRANCH   4  14
BRANCH   8  24
HETATM   24  O17         0      28.755  20.125  34.749  1.00  0.00    -0.359 OA
HETATM   25  H17         0      28.136  20.544  35.335  1.00  0.00     0.218 HD
ENDBRANCH   8  24
TORSDOF 5
ENDMDL
MODEL 8
REMARK VINA RESULT:      -4.8      2.752      6.022
REMARK  5 active torsions:
REMARK  status: ('A' for Active; 'I' for Inactive)
REMARK    1  A    between atoms: C4_4  and  C5_5 
REMARK    2  A    between atoms: C8_8  and  O9_9 
REMARK    3  A    between atoms: C10_11  and  O11_12 
REMARK    4  A    between atoms: C16_18  and  O17_19 
REMARK    5  A    between atoms: C19_22  and  O20_23 
ROOT
HETATM    1  O1          0      34.286  17.329  36.421  1.00  0.00    -0.286 OA
HETATM    2  C2          0      34.512  17.803  35.274  1.00  0.00     0.201 C 
HETATM    3  C3          0      33.597  18.587  34.593  1.00  0.00     0.067 C 
HETATM    4  C4          0      33.829  19.011  33.289  1.00  0.00     0.103 C 
HETATM    5  O13         0      34.962  18.668  32.702  1.00  0.00    -0.307 OA
HETATM    6  C14         0      35.847  17.894  33.290  1.00  0.00     0.107 C 
HETATM    7  C15         0      36.817  17.214  32.568  1.00  0.00     0.049 C 
HETATM    8  C16         0      37.580  16.209  33.153  1.00  0.00     0.093 C 
HETATM    9  C18         0      37.704  16.295  34.534  1.00  0.00     0.048 C 
HETATM   10  C19         0      36.777  17.007  35.283  1.00  0.00     0.096 C 
HETATM   11  C21         0      35.742  17.644  34.654  1.00  0.00     0.084 C 
ENDROOT
BRANCH  10  12
HETATM   12  O20         0      36.647  16.736  36.641  1.00  0.00    -0.359 OA
HETATM   13  H20         0      35.783  16.802  37.028  1.00  0.00     0.218 HD
ENDBRANCH  10  12
BRANCH   4  14
HETATM   14  C5          0      32.657  19.282  32.455  1.00  0.00     0.025 C 
HETATM   15  C6          0      32.753  19.675  31.128  1.00  0.00     0.004 C 
HETATM   16  C7          0      31.817  19.164  30.234  1.00  0.00     0.026 C 
HETATM   17  C8          0      30.741  18.396  30.666  1.00  0.00     0.112 C 
HETATM   18  C10         0      30.384  18.591  31.993  1.00  0.00     0.112 C 
HETATM   19  C12         0      31.361  19.022  32.883  1.00  0.00     0.028 C 
BRANCH  17  20
HETATM   20  O9          0      30.233  17.381  29.875  1.00  0.00    -0.357 OA
HETATM   21  H9          0      30.188  17.422  28.927  1.00  0.00     0.218 HD
ENDBRANCH  17  20
BRANCH  18  22
HETATM   22  O11         0      29.207  17.996  32.422  1.00  0.00    -0.357 OA
HETATM   23  H11         0      28.523  18.574  32.740  1.00  0.00     0.218 HD
ENDBRANCH  18  22
ENDBRANCH   4  14
BRANCH   8  24
HETATM   24  O17         0      37.901  15.039  32.456  1.00  0.00    -0.359 OA
HETATM   25  H17         0      37.452  14.219  32.625  1.00  0.00     0.218 HD
ENDBRANCH   8  24
TORSDOF 5
ENDMDL
MODEL 9
REMARK VINA RESULT:      -4.8      1.976      6.728
REMARK  5 active torsions:
REMARK  status: ('A' for Active; 'I' for Inactive)
REMARK    1  A    between atoms: C4_4  and  C5_5 
REMARK    2  A    between atoms: C8_8  and  O9_9 
REMARK    3  A    between atoms: C10_11  and  O11_12 
REMARK    4  A    between atoms: C16_18  and  O17_19 
REMARK    5  A    between atoms: C19_22  and  O20_23 
ROOT
HETATM    1  O1          0      36.885  15.139  37.759  1.00  0.00    -0.286 OA
HETATM    2  C2          0      35.845  15.748  37.387  1.00  0.00     0.201 C 
HETATM    3  C3          0      35.715  16.312  36.129  1.00  0.00     0.067 C 
HETATM    4  C4          0      34.600  17.065  35.780  1.00  0.00     0.103 C 
HETATM    5  O13         0      33.637  17.224  36.671  1.00  0.00    -0.307 OA
HETATM    6  C14         0      33.726  16.741  37.891  1.00  0.00     0.107 C 
HETATM    7  C15         0      32.941  17.224  38.928  1.00  0.00     0.049 C 
HETATM    8  C16         0      33.213  16.898  40.251  1.00  0.00     0.093 C 
HETATM    9  C18         0      33.910  15.710  40.431  1.00  0.00     0.048 C 
HETATM   10  C19         0      34.668  15.173  39.399  1.00  0.00     0.096 C 
HETATM   11  C21         0      34.716  15.810  38.189  1.00  0.00     0.084 C 
ENDROOT
BRANCH  10  12
HETATM   12  O20         0      35.680  14.266  39.699  1.00  0.00    -0.359 OA
HETATM   13  H20         0      35.432  13.436  40.089  1.00  0.00     0.218 HD
ENDBRANCH  10  12
BRANCH   4  14
HETATM   14  C5          0      34.778  18.086  34.746  1.00  0.00     0.025 C 
HETATM   15  C6          0      35.907  18.153  33.942  1.00  0.00     0.004 C 
HETATM   16  C7          0      35.728  18.500  32.607  1.00  0.00     0.026 C 
HETATM   17  C8          0      34.489  18.899  32.117  1.00  0.00     0.112 C 
HETATM   18  C10         0      33.620  19.400  33.077  1.00  0.00     0.112 C 
HETATM   19  C12         0      33.768  18.970  34.390  1.00  0.00     0.028 C 
BRANCH  17  20
HETATM   20  O9          0      34.113  18.608  30.818  1.00  0.00    -0.357 OA
HETATM   21  H9          0      34.376  17.820  30.356  1.00  0.00     0.218 HD
ENDBRANCH  17  20
BRANCH  18  22
HETATM   22  O11         0      32.448  19.985  32.620  1.00  0.00    -0.357 OA
HETATM   23  H11         0      32.347  20.918  32.767  1.00  0.00     0.218 HD
ENDBRANCH  18  22
ENDBRANCH   4  14
BRANCH   8  24
HETATM   24  O17         0      33.096  17.845  41.274  1.00  0.00    -0.359 OA
HETATM   25  H17         0      33.149  18.777  41.100  1.00  0.00     0.218 HD
ENDBRANCH   8  24
TORSDOF 5
ENDMDL
