MODEL 1
REMARK VINA RESULT:      -0.4      0.000      0.000
REMARK  5 active torsions:
REMARK  status: ('A' for Active; 'I' for Inactive)
REMARK    1  A    between atoms: C4_4  and  C5_5 
REMARK    2  A    between atoms: C8_8  and  O9_9 
REMARK    3  A    between atoms: C10_11  and  O11_12 
REMARK    4  A    between atoms: C16_18  and  O17_19 
REMARK    5  A    between atoms: C19_22  and  O20_23 
ROOT
HETATM    1  O1          0      28.880   8.331  25.438  1.00  0.00    -0.286 OA
HETATM    2  C2          0      28.799   7.527  24.469  1.00  0.00     0.201 C 
HETATM    3  C3          0      28.922   6.156  24.620  1.00  0.00     0.067 C 
HETATM    4  C4          0      28.933   5.301  23.524  1.00  0.00     0.103 C 
HETATM    5  O13         0      28.801   5.817  22.315  1.00  0.00    -0.307 OA
HETATM    6  C14         0      28.718   7.114  22.113  1.00  0.00     0.107 C 
HETATM    7  C15         0      28.980   7.679  20.874  1.00  0.00     0.049 C 
HETATM    8  C16         0      29.141   9.051  20.726  1.00  0.00     0.093 C 
HETATM    9  C18         0      28.522   9.823  21.701  1.00  0.00     0.048 C 
HETATM   10  C19         0      28.203   9.276  22.937  1.00  0.00     0.096 C 
HETATM   11  C21         0      28.485   7.962  23.190  1.00  0.00     0.084 C 
ENDROOT
BRANCH  10  12
HETATM   12  O20         0      28.001  10.122  24.023  1.00  0.00    -0.359 OA
HETATM   13  H20         0      27.301  10.761  23.966  1.00  0.00     0.218 HD
ENDBRANCH  10  12
BRANCH   4  14
HETATM   14  C5          0      29.642   4.029  23.674  1.00  0.00     0.025 C 
HETATM   15  C6          0      29.899   3.452  24.909  1.00  0.00     0.004 C 
HETATM   16  C7          0      29.798   2.068  25.008  1.00  0.00     0.026 C 
HETATM   17  C8          0      29.581   1.271  23.890  1.00  0.00     0.112 C 
HETATM   18  C10         0      29.966   1.844  22.686  1.00  0.00     0.112 C 
HETATM   19  C12         0      29.976   3.231  22.588  1.00  0.00     0.028 C 
BRANCH  17  20
HETATM   20  O9          0      28.846   0.102  23.985  1.00  0.00    -0.357 OA
HETATM   21  H9          0      28.473  -0.349  23.236  1.00  0.00     0.218 HD
ENDBRANCH  17  20
BRANCH  18  22
HETATM   22  O11         0      29.948   1.025  21.566  1.00  0.00    -0.357 OA
HETATM   23  H11         0      30.789   0.775  21.202  1.00  0.00     0.218 HD
ENDBRANCH  18  22
ENDBRANCH   4  14
BRANCH   8  24
HETATM   24  O17         0      30.117   9.584  19.875  1.00  0.00    -0.359 OA
HETATM   25  H17         0      29.991   9.623  18.935  1.00  0.00     0.218 HD
ENDBRANCH   8  24
TORSDOF 5
ENDMDL
MODEL 2
REMARK VINA RESULT:      -0.3      4.103      6.258
REMARK  5 active torsions:
REMARK  status: ('A' for Active; 'I' for Inactive)
REMARK    1  A    between atoms: C4_4  and  C5_5 
REMARK    2  A    between atoms: C8_8  and  O9_9 
REMARK    3  A    between atoms: C10_11  and  O11_12 
REMARK    4  A    between atoms: C16_18  and  O17_19 
REMARK    5  A    between atoms: C19_22  and  O20_23 
ROOT
HETATM    1  O1          0      28.282   6.571  25.525  1.00  0.00    -0.286 OA
HETATM    2  C2          0      27.563   7.398  24.901  1.00  0.00     0.201 C 
HETATM    3  C3          0      26.197   7.237  24.746  1.00  0.00     0.067 C 
HETATM    4  C4          0      25.444   8.109  23.967  1.00  0.00     0.103 C 
HETATM    5  O13         0      26.054   9.124  23.381  1.00  0.00    -0.307 OA
HETATM    6  C14         0      27.355   9.302  23.465  1.00  0.00     0.107 C 
HETATM    7  C15         0      28.044  10.094  22.559  1.00  0.00     0.049 C 
HETATM    8  C16         0      29.433  10.075  22.495  1.00  0.00     0.093 C 
HETATM    9  C18         0      30.069   9.679  23.665  1.00  0.00     0.048 C 
HETATM   10  C19         0      29.394   8.925  24.615  1.00  0.00     0.096 C 
HETATM   11  C21         0      28.085   8.583  24.405  1.00  0.00     0.084 C 
ENDROOT
BRANCH  10  12
HETATM   12  O20         0      30.123   8.180  25.536  1.00  0.00    -0.359 OA
HETATM   13  H20         0      30.916   8.563  25.890  1.00  0.00     0.218 HD
ENDBRANCH  10  12
BRANCH   4  14
HETATM   14  C5          0      24.218   7.582  23.366  1.00  0.00     0.025 C 
HETATM   15  C6          0      23.459   6.584  23.959  1.00  0.00     0.004 C 
HETATM   16  C7          0      22.074   6.683  23.861  1.00  0.00     0.026 C 
HETATM   17  C8          0      21.466   7.665  23.088  1.00  0.00     0.112 C 
HETATM   18  C10         0      22.262   8.179  22.073  1.00  0.00     0.112 C 
HETATM   19  C12         0      23.642   8.144  22.234  1.00  0.00     0.028 C 
BRANCH  17  20
HETATM   20  O9          0      20.250   8.210  23.461  1.00  0.00    -0.357 OA
HETATM   21  H9          0      20.022   8.426  24.357  1.00  0.00     0.218 HD
ENDBRANCH  17  20
BRANCH  18  22
HETATM   22  O11         0      21.647   9.021  21.157  1.00  0.00    -0.357 OA
HETATM   23  H11         0      20.999   9.626  21.497  1.00  0.00     0.218 HD
ENDBRANCH  18  22
ENDBRANCH   4  14
BRANCH   8  24
HETATM   24  O17         0      30.106  10.120  21.269  1.00  0.00    -0.359 OA
HETATM   25  H17         0      31.047  10.001  21.212  1.00  0.00     0.218 HD
ENDBRANCH   8  24
TORSDOF 5
ENDMDL
MODEL 3
REMARK VINA RESULT:      -0.3      2.876      6.818
REMARK  5 active torsions:
REMARK  status: ('A' for Active; 'I' for Inactive)
REMARK    1  A    between atoms: C4_4  and  C5_5 
REMARK    2  A    between atoms: C8_8  and  O9_9 
REMARK    3  A    between atoms: C10_11  and  O11_12 
REMARK    4  A    between atoms: C16_18  and  O17_19 
REMARK    5  A    between atoms: C19_22  and  O20_23 
ROOT
HETATM    1  O1          0      26.298   3.684  22.722  1.00  0.00    -0.286 OA
HETATM    2  C2          0      26.542   4.650  23.495  1.00  0.00     0.201 C 
HETATM    3  C3          0      26.762   5.939  23.040  1.00  0.00     0.067 C 
HETATM    4  C4          0      27.130   6.964  23.903  1.00  0.00     0.103 C 
HETATM    5  O13         0      27.251   6.696  25.192  1.00  0.00    -0.307 OA
HETATM    6  C14         0      27.091   5.482  25.671  1.00  0.00     0.107 C 
HETATM    7  C15         0      27.594   5.113  26.910  1.00  0.00     0.049 C 
HETATM    8  C16         0      27.648   3.780  27.300  1.00  0.00     0.093 C 
HETATM    9  C18         0      26.731   2.947  26.670  1.00  0.00     0.048 C 
HETATM   10  C19         0      26.172   3.308  25.451  1.00  0.00     0.096 C 
HETATM   11  C21         0      26.514   4.500  24.873  1.00  0.00     0.084 C 
ENDROOT
BRANCH  10  12
HETATM   12  O20         0      25.623   2.322  24.637  1.00  0.00    -0.359 OA
HETATM   13  H20         0      24.740   2.453  24.313  1.00  0.00     0.218 HD
ENDBRANCH  10  12
BRANCH   4  14
HETATM   14  C5          0      27.904   8.071  23.338  1.00  0.00     0.025 C 
HETATM   15  C6          0      29.269   8.216  23.544  1.00  0.00     0.004 C 
HETATM   16  C7          0      30.036   8.674  22.477  1.00  0.00     0.026 C 
HETATM   17  C8          0      29.453   9.101  21.289  1.00  0.00     0.112 C 
HETATM   18  C10         0      28.131   9.510  21.407  1.00  0.00     0.112 C 
HETATM   19  C12         0      27.362   8.972  22.431  1.00  0.00     0.028 C 
BRANCH  17  20
HETATM   20  O9          0      30.096   8.917  20.078  1.00  0.00    -0.357 OA
HETATM   21  H9          0      30.501   8.099  19.814  1.00  0.00     0.218 HD
ENDBRANCH  17  20
BRANCH  18  22
HETATM   22  O11         0      27.562  10.121  20.298  1.00  0.00    -0.357 OA
HETATM   23  H11         0      27.574   9.631  19.484  1.00  0.00     0.218 HD
ENDBRANCH  18  22
ENDBRANCH   4  14
BRANCH   8  24
HETATM   24  O17         0      28.745   3.269  28.002  1.00  0.00    -0.359 OA
HETATM   25  H17         0      28.765   2.372  28.312  1.00  0.00     0.218 HD
ENDBRANCH   8  24
TORSDOF 5
ENDMDL
MODEL 4
REMARK VINA RESULT:      -0.2      3.169      6.258
REMARK  5 active torsions:
REMARK  status: ('A' for Active; 'I' for Inactive)
REMARK    1  A    between atoms: C4_4  and  C5_5 
REMARK    2  A    between atoms: C8_8  and  O9_9 
REMARK    3  A    between atoms: C10_11  and  O11_12 
REMARK    4  A    between atoms: C16_18  and  O17_19 
REMARK    5  A    between atoms: C19_22  and  O20_23 
ROOT
HETATM    1  O1          0      24.981   7.876  26.068  1.00  0.00    -0.286 OA
HETATM    2  C2          0      25.971   7.129  25.837  1.00  0.00     0.201 C 
HETATM    3  C3          0      27.139   7.590  25.256  1.00  0.00     0.067 C 
HETATM    4  C4          0      28.175   6.726  24.918  1.00  0.00     0.103 C 
HETATM    5  O13         0      28.040   5.439  25.183  1.00  0.00    -0.307 OA
HETATM    6  C14         0      26.937   4.943  25.700  1.00  0.00     0.107 C 
HETATM    7  C15         0      26.630   3.593  25.610  1.00  0.00     0.049 C 
HETATM    8  C16         0      25.362   3.119  25.925  1.00  0.00     0.093 C 
HETATM    9  C18         0      24.638   3.918  26.802  1.00  0.00     0.048 C 
HETATM   10  C19         0      24.949   5.263  26.951  1.00  0.00     0.096 C 
HETATM   11  C21         0      25.988   5.803  26.242  1.00  0.00     0.084 C 
ENDROOT
BRANCH  10  12
HETATM   12  O20         0      23.989   6.130  27.464  1.00  0.00    -0.359 OA
HETATM   13  H20         0      23.261   6.370  26.904  1.00  0.00     0.218 HD
ENDBRANCH  10  12
BRANCH   4  14
HETATM   14  C5          0      29.055   7.132  23.820  1.00  0.00     0.025 C 
HETATM   15  C6          0      29.699   6.220  22.997  1.00  0.00     0.004 C 
HETATM   16  C7          0      29.804   6.534  21.645  1.00  0.00     0.026 C 
HETATM   17  C8          0      29.404   7.771  21.151  1.00  0.00     0.112 C 
HETATM   18  C10         0      29.384   8.792  22.092  1.00  0.00     0.112 C 
HETATM   19  C12         0      29.191   8.457  23.427  1.00  0.00     0.028 C 
BRANCH  17  20
HETATM   20  O9          0      28.875   7.888  19.878  1.00  0.00    -0.357 OA
HETATM   21  H9          0      29.333   8.294  19.151  1.00  0.00     0.218 HD
ENDBRANCH  17  20
BRANCH  18  22
HETATM   22  O11         0      29.177  10.080  21.617  1.00  0.00    -0.357 OA
HETATM   23  H11         0      28.284  10.405  21.632  1.00  0.00     0.218 HD
ENDBRANCH  18  22
ENDBRANCH   4  14
BRANCH   8  24
HETATM   24  O17         0      24.749   2.116  25.166  1.00  0.00    -0.359 OA
HETATM   25  H17         0      23.939   1.704  25.445  1.00  0.00     0.218 HD
ENDBRANCH   8  24
TORSDOF 5
ENDMDL
MODEL 5
REMARK VINA RESULT:      -0.2      4.762      6.928
REMARK  5 active torsions:
REMARK  status: ('A' for Active; 'I' for Inactive)
REMARK    1  A    between atoms: C4_4  and  C5_5 
REMARK    2  A    between atoms: C8_8  and  O9_9 
REMARK    3  A    between atoms: C10_11  and  O11_12 
REMARK    4  A    between atoms: C16_18  and  O17_19 
REMARK    5  A    between atoms: C19_22  and  O20_23 
ROOT
HETATM    1  O1          0      24.090   5.075  24.545  1.00  0.00    -0.286 OA
HETATM    2  C2          0      24.248   5.893  23.598  1.00  0.00     0.201 C 
HETATM    3  C3          0      25.496   6.256  23.120  1.00  0.00     0.067 C 
HETATM    4  C4          0      25.646   7.236  22.146  1.00  0.00     0.103 C 
HETATM    5  O13         0      24.565   7.815  21.656  1.00  0.00    -0.307 OA
HETATM    6  C14         0      23.359   7.535  22.101  1.00  0.00     0.107 C 
HETATM    7  C15         0      22.287   8.392  21.897  1.00  0.00     0.049 C 
HETATM    8  C16         0      21.088   8.222  22.578  1.00  0.00     0.093 C 
HETATM    9  C18         0      20.842   6.928  23.019  1.00  0.00     0.048 C 
HETATM   10  C19         0      21.887   6.030  23.190  1.00  0.00     0.096 C 
HETATM   11  C21         0      23.168   6.417  22.905  1.00  0.00     0.084 C 
ENDROOT
BRANCH  10  12
HETATM   12  O20         0      21.707   4.927  24.019  1.00  0.00    -0.359 OA
HETATM   13  H20         0      22.304   4.195  23.921  1.00  0.00     0.218 HD
ENDBRANCH  10  12
BRANCH   4  14
HETATM   14  C5          0      26.911   7.975  22.128  1.00  0.00     0.025 C 
HETATM   15  C6          0      26.983   9.335  21.867  1.00  0.00     0.004 C 
HETATM   16  C7          0      27.905  10.083  22.593  1.00  0.00     0.026 C 
HETATM   17  C8          0      28.817   9.480  23.453  1.00  0.00     0.112 C 
HETATM   18  C10         0      29.087   8.148  23.171  1.00  0.00     0.112 C 
HETATM   19  C12         0      28.113   7.400  22.519  1.00  0.00     0.028 C 
BRANCH  17  20
HETATM   20  O9          0      29.234  10.121  24.607  1.00  0.00    -0.357 OA
HETATM   21  H9          0      28.727  10.791  25.051  1.00  0.00     0.218 HD
ENDBRANCH  17  20
BRANCH  18  22
HETATM   22  O11         0      30.125   7.554  23.875  1.00  0.00    -0.357 OA
HETATM   23  H11         0      29.903   6.809  24.422  1.00  0.00     0.218 HD
ENDBRANCH  18  22
ENDBRANCH   4  14
BRANCH   8  24
HETATM   24  O17         0      20.367   9.316  23.068  1.00  0.00    -0.359 OA
HETATM   25  H17         0      20.533   9.677  23.931  1.00  0.00     0.218 HD
ENDBRANCH   8  24
TORSDOF 5
ENDMDL
MODEL 6
REMARK VINA RESULT:      -0.2      3.773      6.711
REMARK  5 active torsions:
REMARK  status: ('A' for Active; 'I' for Inactive)
REMARK    1  A    between atoms: C4_4  and  C5_5 
REMARK    2  A    between atoms: C8_8  and  O9_9 
REMARK    3  A    between atoms: C10_11  and  O11_12 
REMARK    4  A    between atoms: C16_18  and  O17_19 
REMARK    5  A    between atoms: C19_22  and  O20_23 
ROOT
HETATM    1  O1          0      27.874   5.263  26.925  1.00  0.00    -0.286 OA
HETATM    2  C2          0      27.172   5.298  25.878  1.00  0.00     0.201 C 
HETATM    3  C3          0      27.631   5.828  24.684  1.00  0.00     0.067 C 
HETATM    4  C4          0      26.802   5.949  23.574  1.00  0.00     0.103 C 
HETATM    5  O13         0      25.554   5.526  23.665  1.00  0.00    -0.307 OA
HETATM    6  C14         0      25.057   5.049  24.785  1.00  0.00     0.107 C 
HETATM    7  C15         0      23.689   4.983  25.008  1.00  0.00     0.049 C 
HETATM    8  C16         0      23.176   4.723  26.273  1.00  0.00     0.093 C 
HETATM    9  C18         0      24.032   4.033  27.123  1.00  0.00     0.048 C 
HETATM   10  C19         0      25.402   4.040  26.902  1.00  0.00     0.096 C 
HETATM   11  C21         0      25.914   4.718  25.829  1.00  0.00     0.084 C 
ENDROOT
BRANCH  10  12
HETATM   12  O20         0      26.262   3.739  27.954  1.00  0.00    -0.359 OA
HETATM   13  H20         0      27.064   3.271  27.754  1.00  0.00     0.218 HD
ENDBRANCH  10  12
BRANCH   4  14
HETATM   14  C5          0      27.120   7.006  22.613  1.00  0.00     0.025 C 
HETATM   15  C6          0      26.595   8.287  22.703  1.00  0.00     0.004 C 
HETATM   16  C7          0      27.430   9.351  22.378  1.00  0.00     0.026 C 
HETATM   17  C8          0      28.701   9.146  21.851  1.00  0.00     0.112 C 
HETATM   18  C10         0      28.877   7.920  21.222  1.00  0.00     0.112 C 
HETATM   19  C12         0      28.086   6.851  21.627  1.00  0.00     0.028 C 
BRANCH  17  20
HETATM   20  O9          0      29.736  10.019  22.135  1.00  0.00    -0.357 OA
HETATM   21  H9          0      30.592   9.742  22.440  1.00  0.00     0.218 HD
ENDBRANCH  17  20
BRANCH  18  22
HETATM   22  O11         0      30.058   7.739  20.518  1.00  0.00    -0.357 OA
HETATM   23  H11         0      30.847   8.110  20.897  1.00  0.00     0.218 HD
ENDBRANCH  18  22
ENDBRANCH   4  14
BRANCH   8  24
HETATM   24  O17         0      22.044   5.392  26.752  1.00  0.00    -0.359 OA
HETATM   25  H17         0      21.792   5.353  27.667  1.00  0.00     0.218 HD
ENDBRANCH   8  24
TORSDOF 5
ENDMDL
MODEL 7
REMARK VINA RESULT:      -0.1      4.436      7.202
REMARK  5 active torsions:
REMARK  status: ('A' for Active; 'I' for Inactive)
REMARK    1  A    between atoms: C4_4  and  C5_5 
REMARK    2  A    between atoms: C8_8  and  O9_9 
REMARK    3  A    between atoms: C10_11  and  O11_12 
REMARK    4  A    between atoms: C16_18  and  O17_19 
REMARK    5  A    between atoms: C19_22  and  O20_23 
ROOT
HETATM    1  O1          0      22.708   6.265  24.584  1.00  0.00    -0.286 OA
HETATM    2  C2          0      23.804   5.721  24.276  1.00  0.00     0.201 C 
HETATM    3  C3          0      24.986   6.431  24.154  1.00  0.00     0.067 C 
HETATM    4  C4          0      26.157   5.826  23.714  1.00  0.00     0.103 C 
HETATM    5  O13         0      26.136   4.536  23.426  1.00  0.00    -0.307 OA
HETATM    6  C14         0      25.032   3.824  23.489  1.00  0.00     0.107 C 
HETATM    7  C15         0      24.905   2.612  22.826  1.00  0.00     0.049 C 
HETATM    8  C16         0      23.669   1.993  22.684  1.00  0.00     0.093 C 
HETATM    9  C18         0      22.727   2.337  23.645  1.00  0.00     0.048 C 
HETATM   10  C19         0      22.848   3.520  24.361  1.00  0.00     0.096 C 
HETATM   11  C21         0      23.914   4.347  24.130  1.00  0.00     0.084 C 
ENDROOT
BRANCH  10  12
HETATM   12  O20         0      21.724   4.062  24.976  1.00  0.00    -0.359 OA
HETATM   13  H20         0      21.576   4.996  24.890  1.00  0.00     0.218 HD
ENDBRANCH  10  12
BRANCH   4  14
HETATM   14  C5          0      27.144   6.680  23.049  1.00  0.00     0.025 C 
HETATM   15  C6          0      27.451   6.566  21.701  1.00  0.00     0.004 C 
HETATM   16  C7          0      27.684   7.739  20.992  1.00  0.00     0.026 C 
HETATM   17  C8          0      27.744   8.975  21.626  1.00  0.00     0.112 C 
HETATM   18  C10         0      28.057   8.919  22.978  1.00  0.00     0.112 C 
HETATM   19  C12         0      27.736   7.765  23.683  1.00  0.00     0.028 C 
BRANCH  17  20
HETATM   20  O9          0      27.312  10.123  20.985  1.00  0.00    -0.357 OA
HETATM   21  H9          0      26.402  10.301  20.778  1.00  0.00     0.218 HD
ENDBRANCH  17  20
BRANCH  18  22
HETATM   22  O11         0      28.315  10.125  23.614  1.00  0.00    -0.357 OA
HETATM   23  H11         0      29.053  10.146  24.213  1.00  0.00     0.218 HD
ENDBRANCH  18  22
ENDBRANCH   4  14
BRANCH   8  24
HETATM   24  O17         0      23.307   1.354  21.493  1.00  0.00    -0.359 OA
HETATM   25  H17         0      23.916   0.802  21.017  1.00  0.00     0.218 HD
ENDBRANCH   8  24
TORSDOF 5
ENDMDL
MODEL 8
REMARK VINA RESULT:      -0.1      4.989      8.411
REMARK  5 active torsions:
REMARK  status: ('A' for Active; 'I' for Inactive)
REMARK    1  A    between atoms: C4_4  and  C5_5 
REMARK    2  A    between atoms: C8_8  and  O9_9 
REMARK    3  A    between atoms: C10_11  and  O11_12 
REMARK    4  A    between atoms: C16_18  and  O17_19 
REMARK    5  A    between atoms: C19_22  and  O20_23 
ROOT
HETATM    1  O1          0      26.240   4.772  27.918  1.00  0.00    -0.286 OA
HETATM    2  C2          0      26.627   5.882  28.376  1.00  0.00     0.201 C 
HETATM    3  C3          0      26.616   7.048  27.629  1.00  0.00     0.067 C 
HETATM    4  C4          0      27.143   8.235  28.123  1.00  0.00     0.103 C 
HETATM    5  O13         0      27.647   8.246  29.345  1.00  0.00    -0.307 OA
HETATM    6  C14         0      27.717   7.159  30.082  1.00  0.00     0.107 C 
HETATM    7  C15         0      28.579   7.064  31.165  1.00  0.00     0.049 C 
HETATM    8  C16         0      28.836   5.844  31.778  1.00  0.00     0.093 C 
HETATM    9  C18         0      27.838   4.889  31.625  1.00  0.00     0.048 C 
HETATM   10  C19         0      26.929   4.979  30.580  1.00  0.00     0.096 C 
HETATM   11  C21         0      27.006   6.026  29.702  1.00  0.00     0.084 C 
ENDROOT
BRANCH  10  12
HETATM   12  O20         0      26.240   3.839  30.177  1.00  0.00    -0.359 OA
HETATM   13  H20         0      26.000   3.206  30.843  1.00  0.00     0.218 HD
ENDBRANCH  10  12
BRANCH   4  14
HETATM   14  C5          0      27.643   9.204  27.146  1.00  0.00     0.025 C 
HETATM   15  C6          0      28.827   9.905  27.321  1.00  0.00     0.004 C 
HETATM   16  C7          0      29.619  10.122  26.197  1.00  0.00     0.026 C 
HETATM   17  C8          0      29.187   9.774  24.922  1.00  0.00     0.112 C 
HETATM   18  C10         0      27.808   9.686  24.781  1.00  0.00     0.112 C 
HETATM   19  C12         0      27.048   9.383  25.904  1.00  0.00     0.028 C 
BRANCH  17  20
HETATM   20  O9          0      30.086   9.351  23.960  1.00  0.00    -0.357 OA
HETATM   21  H9          0      29.902   9.353  23.028  1.00  0.00     0.218 HD
ENDBRANCH  17  20
BRANCH  18  22
HETATM   22  O11         0      27.317   9.529  23.493  1.00  0.00    -0.357 OA
HETATM   23  H11         0      27.568   8.737  23.030  1.00  0.00     0.218 HD
ENDBRANCH  18  22
ENDBRANCH   4  14
BRANCH   8  24
HETATM   24  O17         0      30.122   5.501  32.212  1.00  0.00    -0.359 OA
HETATM   25  H17         0      30.359   5.519  33.131  1.00  0.00     0.218 HD
ENDBRANCH   8  24
TORSDOF 5
ENDMDL
MODEL 9
REMARK VINA RESULT:      -0.1      2.334      6.790
REMARK  5 active torsions:
REMARK  status: ('A' for Active; 'I' for Inactive)
REMARK    1  A    between atoms: C4_4  and  C5_5 
REMARK    2  A    between atoms: C8_8  and  O9_9 
REMARK    3  A    between atoms: C10_11  and  O11_12 
REMARK    4  A    between atoms: C16_18  and  O17_19 
REMARK    5  A    between atoms: C19_22  and  O20_23 
ROOT
HETATM    1  O1          0      28.085   1.165  23.595  1.00  0.00    -0.286 OA
HETATM    2  C2          0      28.160   2.389  23.888  1.00  0.00     0.201 C 
HETATM    3  C3          0      28.355   3.378  22.939  1.00  0.00     0.067 C 
HETATM    4  C4          0      28.537   4.708  23.299  1.00  0.00     0.103 C 
HETATM    5  O13         0      28.500   5.030  24.580  1.00  0.00    -0.307 OA
HETATM    6  C14         0      28.355   4.126  25.524  1.00  0.00     0.107 C 
HETATM    7  C15         0      28.709   4.381  26.841  1.00  0.00     0.049 C 
HETATM    8  C16         0      28.795   3.356  27.776  1.00  0.00     0.093 C 
HETATM    9  C18         0      28.028   2.234  27.489  1.00  0.00     0.048 C 
HETATM   10  C19         0      27.617   1.973  26.189  1.00  0.00     0.096 C 
HETATM   11  C21         0      27.955   2.838  25.184  1.00  0.00     0.084 C 
ENDROOT
BRANCH  10  12
HETATM   12  O20         0      27.247   0.678  25.839  1.00  0.00    -0.359 OA
HETATM   13  H20         0      26.326   0.505  25.683  1.00  0.00     0.218 HD
ENDBRANCH  10  12
BRANCH   4  14
HETATM   14  C5          0      29.307   5.551  22.382  1.00  0.00     0.025 C 
HETATM   15  C6          0      29.434   5.271  21.030  1.00  0.00     0.004 C 
HETATM   16  C7          0      29.418   6.345  20.145  1.00  0.00     0.026 C 
HETATM   17  C8          0      29.413   7.660  20.595  1.00  0.00     0.112 C 
HETATM   18  C10         0      29.918   7.837  21.876  1.00  0.00     0.112 C 
HETATM   19  C12         0      29.843   6.773  22.768  1.00  0.00     0.028 C 
BRANCH  17  20
HETATM   20  O9          0      28.757   8.650  19.884  1.00  0.00    -0.357 OA
HETATM   21  H9          0      28.161   8.476  19.165  1.00  0.00     0.218 HD
ENDBRANCH  17  20
BRANCH  18  22
HETATM   22  O11         0      30.111   9.144  22.301  1.00  0.00    -0.357 OA
HETATM   23  H11         0      29.954   9.831  21.664  1.00  0.00     0.218 HD
ENDBRANCH  18  22
ENDBRANCH   4  14
BRANCH   8  24
HETATM   24  O17         0      29.818   3.324  28.730  1.00  0.00    -0.359 OA
HETATM   25  H17         0      30.724   3.491  28.496  1.00  0.00     0.218 HD
ENDBRANCH   8  24
TORSDOF 5
ENDMDL
