MODEL 1
REMARK VINA RESULT:      -0.1      0.000      0.000
REMARK  5 active torsions:
REMARK  status: ('A' for Active; 'I' for Inactive)
REMARK    1  A    between atoms: C4_4  and  C5_5 
REMARK    2  A    between atoms: C8_8  and  O9_9 
REMARK    3  A    between atoms: C10_11  and  O11_12 
REMARK    4  A    between atoms: C16_18  and  O17_19 
REMARK    5  A    between atoms: C19_22  and  O20_23 
ROOT
HETATM    1  O1          0      38.330   7.870  37.771  1.00  0.00    -0.286 OA
HETATM    2  C2          0      37.507   8.408  36.981  1.00  0.00     0.201 C 
HETATM    3  C3          0      36.141   8.200  37.064  1.00  0.00     0.067 C 
HETATM    4  C4          0      35.265   8.722  36.119  1.00  0.00     0.103 C 
HETATM    5  O13         0      35.757   9.450  35.132  1.00  0.00    -0.307 OA
HETATM    6  C14         0      37.049   9.647  34.985  1.00  0.00     0.107 C 
HETATM    7  C15         0      37.594  10.050  33.774  1.00  0.00     0.049 C 
HETATM    8  C16         0      38.965  10.010  33.551  1.00  0.00     0.093 C 
HETATM    9  C18         0      39.748  10.074  34.697  1.00  0.00     0.048 C 
HETATM   10  C19         0      39.221   9.722  35.932  1.00  0.00     0.096 C 
HETATM   11  C21         0      37.914   9.326  36.025  1.00  0.00     0.084 C 
ENDROOT
BRANCH  10  12
HETATM   12  O20         0      40.084   9.371  36.965  1.00  0.00    -0.359 OA
HETATM   13  H20         0      40.383   8.470  37.009  1.00  0.00     0.218 HD
ENDBRANCH  10  12
BRANCH   4  14
HETATM   14  C5          0      34.004   8.009  35.908  1.00  0.00     0.025 C 
HETATM   15  C6          0      33.244   8.150  34.756  1.00  0.00     0.004 C 
HETATM   16  C7          0      32.620   7.013  34.253  1.00  0.00     0.026 C 
HETATM   17  C8          0      32.639   5.805  34.942  1.00  0.00     0.112 C 
HETATM   18  C10         0      32.850   5.921  36.309  1.00  0.00     0.112 C 
HETATM   19  C12         0      33.551   7.025  36.778  1.00  0.00     0.028 C 
BRANCH  17  20
HETATM   20  O9          0      32.657   4.601  34.261  1.00  0.00    -0.357 OA
HETATM   21  H9          0      32.282   4.477  33.396  1.00  0.00     0.218 HD
ENDBRANCH  17  20
BRANCH  18  22
HETATM   22  O11         0      32.690   4.771  37.069  1.00  0.00    -0.357 OA
HETATM   23  H11         0      33.318   4.072  36.929  1.00  0.00     0.218 HD
ENDBRANCH  18  22
ENDBRANCH   4  14
BRANCH   8  24
HETATM   24  O17         0      39.492   9.599  32.321  1.00  0.00    -0.359 OA
HETATM   25  H17         0      39.119   8.873  31.836  1.00  0.00     0.218 HD
ENDBRANCH   8  24
TORSDOF 5
ENDMDL
MODEL 2
REMARK VINA RESULT:      -0.1      3.226      6.739
REMARK  5 active torsions:
REMARK  status: ('A' for Active; 'I' for Inactive)
REMARK    1  A    between atoms: C4_4  and  C5_5 
REMARK    2  A    between atoms: C8_8  and  O9_9 
REMARK    3  A    between atoms: C10_11  and  O11_12 
REMARK    4  A    between atoms: C16_18  and  O17_19 
REMARK    5  A    between atoms: C19_22  and  O20_23 
ROOT
HETATM    1  O1          0      35.917   4.209  35.849  1.00  0.00    -0.286 OA
HETATM    2  C2          0      36.075   5.085  36.744  1.00  0.00     0.201 C 
HETATM    3  C3          0      36.065   6.443  36.475  1.00  0.00     0.067 C 
HETATM    4  C4          0      36.344   7.383  37.460  1.00  0.00     0.103 C 
HETATM    5  O13         0      36.603   6.960  38.685  1.00  0.00    -0.307 OA
HETATM    6  C14         0      36.662   5.681  38.986  1.00  0.00     0.107 C 
HETATM    7  C15         0      37.310   5.227  40.126  1.00  0.00     0.049 C 
HETATM    8  C16         0      37.590   3.878  40.307  1.00  0.00     0.093 C 
HETATM    9  C18         0      36.761   3.007  39.612  1.00  0.00     0.048 C 
HETATM   10  C19         0      36.061   3.441  38.494  1.00  0.00     0.096 C 
HETATM   11  C21         0      36.176   4.741  38.083  1.00  0.00     0.084 C 
ENDROOT
BRANCH  10  12
HETATM   12  O20         0      35.602   2.505  37.573  1.00  0.00    -0.359 OA
HETATM   13  H20         0      34.827   2.004  37.796  1.00  0.00     0.218 HD
ENDBRANCH  10  12
BRANCH   4  14
HETATM   14  C5          0      36.899   8.665  37.025  1.00  0.00     0.025 C 
HETATM   15  C6          0      37.788   9.400  37.795  1.00  0.00     0.004 C 
HETATM   16  C7          0      38.822  10.057  37.136  1.00  0.00     0.026 C 
HETATM   17  C8          0      38.895  10.094  35.748  1.00  0.00     0.112 C 
HETATM   18  C10         0      37.683   9.902  35.099  1.00  0.00     0.112 C 
HETATM   19  C12         0      36.696   9.169  35.746  1.00  0.00     0.028 C 
BRANCH  17  20
HETATM   20  O9          0      40.119  10.109  35.102  1.00  0.00    -0.357 OA
HETATM   21  H9          0      40.272   9.712  34.253  1.00  0.00     0.218 HD
ENDBRANCH  17  20
BRANCH  18  22
HETATM   22  O11         0      37.663  10.116  33.728  1.00  0.00    -0.357 OA
HETATM   23  H11         0      37.091   9.559  33.213  1.00  0.00     0.218 HD
ENDBRANCH  18  22
ENDBRANCH   4  14
BRANCH   8  24
HETATM   24  O17         0      38.803   3.454  40.863  1.00  0.00    -0.359 OA
HETATM   25  H17         0      38.862   2.664  41.387  1.00  0.00     0.218 HD
ENDBRANCH   8  24
TORSDOF 5
ENDMDL
MODEL 3
REMARK VINA RESULT:      -0.1      4.494      8.179
REMARK  5 active torsions:
REMARK  status: ('A' for Active; 'I' for Inactive)
REMARK    1  A    between atoms: C4_4  and  C5_5 
REMARK    2  A    between atoms: C8_8  and  O9_9 
REMARK    3  A    between atoms: C10_11  and  O11_12 
REMARK    4  A    between atoms: C16_18  and  O17_19 
REMARK    5  A    between atoms: C19_22  and  O20_23 
ROOT
HETATM    1  O1          0      37.394   3.343  38.678  1.00  0.00    -0.286 OA
HETATM    2  C2          0      36.753   4.329  39.135  1.00  0.00     0.201 C 
HETATM    3  C3          0      36.895   5.613  38.636  1.00  0.00     0.067 C 
HETATM    4  C4          0      36.256   6.698  39.225  1.00  0.00     0.103 C 
HETATM    5  O13         0      35.480   6.486  40.273  1.00  0.00    -0.307 OA
HETATM    6  C14         0      35.340   5.293  40.809  1.00  0.00     0.107 C 
HETATM    7  C15         0      34.873   5.124  42.104  1.00  0.00     0.049 C 
HETATM    8  C16         0      34.967   3.898  42.751  1.00  0.00     0.093 C 
HETATM    9  C18         0      35.034   2.794  41.909  1.00  0.00     0.048 C 
HETATM   10  C19         0      35.452   2.935  40.593  1.00  0.00     0.096 C 
HETATM   11  C21         0      35.785   4.173  40.115  1.00  0.00     0.084 C 
ENDROOT
BRANCH  10  12
HETATM   12  O20         0      35.928   1.821  39.908  1.00  0.00    -0.359 OA
HETATM   13  H20         0      36.666   1.352  40.279  1.00  0.00     0.218 HD
ENDBRANCH  10  12
BRANCH   4  14
HETATM   14  C5          0      36.883   8.011  39.067  1.00  0.00     0.025 C 
HETATM   15  C6          0      36.617   9.078  39.913  1.00  0.00     0.004 C 
HETATM   16  C7          0      37.679   9.910  40.256  1.00  0.00     0.026 C 
HETATM   17  C8          0      38.934   9.768  39.674  1.00  0.00     0.112 C 
HETATM   18  C10         0      38.932   9.135  38.438  1.00  0.00     0.112 C 
HETATM   19  C12         0      37.904   8.244  38.154  1.00  0.00     0.028 C 
BRANCH  17  20
HETATM   20  O9          0      40.083  10.050  40.390  1.00  0.00    -0.357 OA
HETATM   21  H9          0      40.434   9.485  41.069  1.00  0.00     0.218 HD
ENDBRANCH  17  20
BRANCH  18  22
HETATM   22  O11         0      40.125   9.136  37.730  1.00  0.00    -0.357 OA
HETATM   23  H11         0      40.792   8.520  38.011  1.00  0.00     0.218 HD
ENDBRANCH  18  22
ENDBRANCH   4  14
BRANCH   8  24
HETATM   24  O17         0      35.307   3.812  44.106  1.00  0.00    -0.359 OA
HETATM   25  H17         0      34.872   4.341  44.764  1.00  0.00     0.218 HD
ENDBRANCH   8  24
TORSDOF 5
ENDMDL
MODEL 4
REMARK VINA RESULT:      -0.1      4.382      8.028
REMARK  5 active torsions:
REMARK  status: ('A' for Active; 'I' for Inactive)
REMARK    1  A    between atoms: C4_4  and  C5_5 
REMARK    2  A    between atoms: C8_8  and  O9_9 
REMARK    3  A    between atoms: C10_11  and  O11_12 
REMARK    4  A    between atoms: C16_18  and  O17_19 
REMARK    5  A    between atoms: C19_22  and  O20_23 
ROOT
HETATM    1  O1          0      33.471   6.313  39.517  1.00  0.00    -0.286 OA
HETATM    2  C2          0      34.211   7.107  40.160  1.00  0.00     0.201 C 
HETATM    3  C3          0      34.883   8.159  39.561  1.00  0.00     0.067 C 
HETATM    4  C4          0      35.772   8.956  40.273  1.00  0.00     0.103 C 
HETATM    5  O13         0      35.959   8.707  41.557  1.00  0.00    -0.307 OA
HETATM    6  C14         0      35.375   7.698  42.166  1.00  0.00     0.107 C 
HETATM    7  C15         0      35.854   7.193  43.366  1.00  0.00     0.049 C 
HETATM    8  C16         0      35.399   5.981  43.872  1.00  0.00     0.093 C 
HETATM    9  C18         0      34.135   5.602  43.438  1.00  0.00     0.048 C 
HETATM   10  C19         0      33.605   6.124  42.265  1.00  0.00     0.096 C 
HETATM   11  C21         0      34.327   7.032  41.540  1.00  0.00     0.084 C 
ENDROOT
BRANCH  10  12
HETATM   12  O20         0      32.578   5.443  41.620  1.00  0.00    -0.359 OA
HETATM   13  H20         0      32.124   5.886  40.914  1.00  0.00     0.218 HD
ENDBRANCH  10  12
BRANCH   4  14
HETATM   14  C5          0      36.847   9.601  39.516  1.00  0.00     0.025 C 
HETATM   15  C6          0      38.116   9.805  40.038  1.00  0.00     0.004 C 
HETATM   16  C7          0      39.200   9.636  39.182  1.00  0.00     0.026 C 
HETATM   17  C8          0      39.025   9.405  37.821  1.00  0.00     0.112 C 
HETATM   18  C10         0      37.811   9.842  37.310  1.00  0.00     0.112 C 
HETATM   19  C12         0      36.722   9.920  38.170  1.00  0.00     0.028 C 
BRANCH  17  20
HETATM   20  O9          0      39.915   8.614  37.117  1.00  0.00    -0.357 OA
HETATM   21  H9          0      40.204   7.757  37.407  1.00  0.00     0.218 HD
ENDBRANCH  17  20
BRANCH  18  22
HETATM   22  O11         0      37.661   9.809  35.931  1.00  0.00    -0.357 OA
HETATM   23  H11         0      38.243   9.233  35.449  1.00  0.00     0.218 HD
ENDBRANCH  18  22
ENDBRANCH   4  14
BRANCH   8  24
HETATM   24  O17         0      36.270   5.073  44.484  1.00  0.00    -0.359 OA
HETATM   25  H17         0      36.077   4.143  44.520  1.00  0.00     0.218 HD
ENDBRANCH   8  24
TORSDOF 5
ENDMDL
MODEL 5
REMARK VINA RESULT:      -0.1      2.499      3.490
REMARK  5 active torsions:
REMARK  status: ('A' for Active; 'I' for Inactive)
REMARK    1  A    between atoms: C4_4  and  C5_5 
REMARK    2  A    between atoms: C8_8  and  O9_9 
REMARK    3  A    between atoms: C10_11  and  O11_12 
REMARK    4  A    between atoms: C16_18  and  O17_19 
REMARK    5  A    between atoms: C19_22  and  O20_23 
ROOT
HETATM    1  O1          0      38.409   7.720  41.049  1.00  0.00    -0.286 OA
HETATM    2  C2          0      37.647   8.103  40.119  1.00  0.00     0.201 C 
HETATM    3  C3          0      36.310   7.749  40.051  1.00  0.00     0.067 C 
HETATM    4  C4          0      35.519   8.098  38.963  1.00  0.00     0.103 C 
HETATM    5  O13         0      36.059   8.804  37.985  1.00  0.00    -0.307 OA
HETATM    6  C14         0      37.332   9.134  37.983  1.00  0.00     0.107 C 
HETATM    7  C15         0      37.988   9.507  36.818  1.00  0.00     0.049 C 
HETATM    8  C16         0      39.374   9.606  36.771  1.00  0.00     0.093 C 
HETATM    9  C18         0      39.988   9.841  37.995  1.00  0.00     0.048 C 
HETATM   10  C19         0      39.340   9.523  39.182  1.00  0.00     0.096 C 
HETATM   11  C21         0      38.081   8.990  39.146  1.00  0.00     0.084 C 
ENDROOT
BRANCH  10  12
HETATM   12  O20         0      40.091   9.347  40.340  1.00  0.00    -0.359 OA
HETATM   13  H20         0      39.914   9.920  41.076  1.00  0.00     0.218 HD
ENDBRANCH  10  12
BRANCH   4  14
HETATM   14  C5          0      34.376   7.234  38.660  1.00  0.00     0.025 C 
HETATM   15  C6          0      33.779   6.418  39.610  1.00  0.00     0.004 C 
HETATM   16  C7          0      32.394   6.290  39.570  1.00  0.00     0.026 C 
HETATM   17  C8          0      31.639   6.846  38.543  1.00  0.00     0.112 C 
HETATM   18  C10         0      32.340   7.069  37.365  1.00  0.00     0.112 C 
HETATM   19  C12         0      33.712   7.278  37.442  1.00  0.00     0.028 C 
BRANCH  17  20
HETATM   20  O9          0      30.361   7.319  38.778  1.00  0.00    -0.357 OA
HETATM   21  H9          0      29.608   6.758  38.920  1.00  0.00     0.218 HD
ENDBRANCH  17  20
BRANCH  18  22
HETATM   22  O11         0      31.597   7.443  36.254  1.00  0.00    -0.357 OA
HETATM   23  H11         0      31.060   8.223  36.337  1.00  0.00     0.218 HD
ENDBRANCH  18  22
ENDBRANCH   4  14
BRANCH   8  24
HETATM   24  O17         0      40.098   9.169  35.656  1.00  0.00    -0.359 OA
HETATM   25  H17         0      41.045   9.098  35.673  1.00  0.00     0.218 HD
ENDBRANCH   8  24
TORSDOF 5
ENDMDL
MODEL 6
REMARK VINA RESULT:      -0.1      2.151      6.879
REMARK  5 active torsions:
REMARK  status: ('A' for Active; 'I' for Inactive)
REMARK    1  A    between atoms: C4_4  and  C5_5 
REMARK    2  A    between atoms: C8_8  and  O9_9 
REMARK    3  A    between atoms: C10_11  and  O11_12 
REMARK    4  A    between atoms: C16_18  and  O17_19 
REMARK    5  A    between atoms: C19_22  and  O20_23 
ROOT
HETATM    1  O1          0      33.169   6.469  35.503  1.00  0.00    -0.286 OA
HETATM    2  C2          0      33.708   7.114  36.445  1.00  0.00     0.201 C 
HETATM    3  C3          0      34.432   8.276  36.240  1.00  0.00     0.067 C 
HETATM    4  C4          0      35.102   8.910  37.281  1.00  0.00     0.103 C 
HETATM    5  O13         0      35.022   8.393  38.495  1.00  0.00    -0.307 OA
HETATM    6  C14         0      34.379   7.272  38.736  1.00  0.00     0.107 C 
HETATM    7  C15         0      34.617   6.526  39.882  1.00  0.00     0.049 C 
HETATM    8  C16         0      34.132   5.230  40.012  1.00  0.00     0.093 C 
HETATM    9  C18         0      33.014   4.941  39.239  1.00  0.00     0.048 C 
HETATM   10  C19         0      32.720   5.697  38.113  1.00  0.00     0.096 C 
HETATM   11  C21         0      33.529   6.746  37.770  1.00  0.00     0.084 C 
ENDROOT
BRANCH  10  12
HETATM   12  O20         0      31.895   5.160  37.129  1.00  0.00    -0.359 OA
HETATM   13  H20         0      31.730   5.683  36.353  1.00  0.00     0.218 HD
ENDBRANCH  10  12
BRANCH   4  14
HETATM   14  C5          0      36.276   9.712  36.932  1.00  0.00     0.025 C 
HETATM   15  C6          0      37.218  10.111  37.868  1.00  0.00     0.004 C 
HETATM   16  C7          0      38.554  10.111  37.478  1.00  0.00     0.026 C 
HETATM   17  C8          0      38.930   9.853  36.164  1.00  0.00     0.112 C 
HETATM   18  C10         0      37.942  10.095  35.220  1.00  0.00     0.112 C 
HETATM   19  C12         0      36.613  10.005  35.617  1.00  0.00     0.028 C 
BRANCH  17  20
HETATM   20  O9          0      40.121   9.208  35.882  1.00  0.00    -0.357 OA
HETATM   21  H9          0      40.953   9.437  36.280  1.00  0.00     0.218 HD
ENDBRANCH  17  20
BRANCH  18  22
HETATM   22  O11         0      38.319  10.035  33.886  1.00  0.00    -0.357 OA
HETATM   23  H11         0      37.825  10.570  33.275  1.00  0.00     0.218 HD
ENDBRANCH  18  22
ENDBRANCH   4  14
BRANCH   8  24
HETATM   24  O17         0      34.901   4.219  40.600  1.00  0.00    -0.359 OA
HETATM   25  H17         0      34.717   3.300  40.449  1.00  0.00     0.218 HD
ENDBRANCH   8  24
TORSDOF 5
ENDMDL
MODEL 7
REMARK VINA RESULT:      -0.1      1.552      1.989
REMARK  5 active torsions:
REMARK  status: ('A' for Active; 'I' for Inactive)
REMARK    1  A    between atoms: C4_4  and  C5_5 
REMARK    2  A    between atoms: C8_8  and  O9_9 
REMARK    3  A    between atoms: C10_11  and  O11_12 
REMARK    4  A    between atoms: C16_18  and  O17_19 
REMARK    5  A    between atoms: C19_22  and  O20_23 
ROOT
HETATM    1  O1          0      37.114   6.643  39.387  1.00  0.00    -0.286 OA
HETATM    2  C2          0      36.659   7.528  38.611  1.00  0.00     0.201 C 
HETATM    3  C3          0      35.317   7.619  38.280  1.00  0.00     0.067 C 
HETATM    4  C4          0      34.858   8.538  37.344  1.00  0.00     0.103 C 
HETATM    5  O13         0      35.729   9.355  36.777  1.00  0.00    -0.307 OA
HETATM    6  C14         0      37.018   9.286  37.027  1.00  0.00     0.107 C 
HETATM    7  C15         0      37.959   9.838  36.170  1.00  0.00     0.049 C 
HETATM    8  C16         0      39.312   9.546  36.300  1.00  0.00     0.093 C 
HETATM    9  C18         0      39.708   9.152  37.572  1.00  0.00     0.048 C 
HETATM   10  C19         0      38.783   8.638  38.471  1.00  0.00     0.096 C 
HETATM   11  C21         0      37.468   8.536  38.108  1.00  0.00     0.084 C 
ENDROOT
BRANCH  10  12
HETATM   12  O20         0      39.228   7.861  39.536  1.00  0.00    -0.359 OA
HETATM   13  H20         0      38.583   7.543  40.156  1.00  0.00     0.218 HD
ENDBRANCH  10  12
BRANCH   4  14
HETATM   14  C5          0      33.633   8.200  36.619  1.00  0.00     0.025 C 
HETATM   15  C6          0      33.428   8.539  35.289  1.00  0.00     0.004 C 
HETATM   16  C7          0      32.770   7.615  34.483  1.00  0.00     0.026 C 
HETATM   17  C8          0      32.215   6.454  35.008  1.00  0.00     0.112 C 
HETATM   18  C10         0      31.916   6.515  36.362  1.00  0.00     0.112 C 
HETATM   19  C12         0      32.647   7.386  37.161  1.00  0.00     0.028 C 
BRANCH  17  20
HETATM   20  O9          0      32.177   5.287  34.265  1.00  0.00    -0.357 OA
HETATM   21  H9          0      31.714   4.503  34.536  1.00  0.00     0.218 HD
ENDBRANCH  17  20
BRANCH  18  22
HETATM   22  O11         0      31.190   5.459  36.894  1.00  0.00    -0.357 OA
HETATM   23  H11         0      31.599   4.967  37.597  1.00  0.00     0.218 HD
ENDBRANCH  18  22
ENDBRANCH   4  14
BRANCH   8  24
HETATM   24  O17         0      40.124   9.340  35.179  1.00  0.00    -0.359 OA
HETATM   25  H17         0      41.066   9.246  35.256  1.00  0.00     0.218 HD
ENDBRANCH   8  24
TORSDOF 5
ENDMDL
MODEL 8
REMARK VINA RESULT:      -0.1      2.702      3.262
REMARK  5 active torsions:
REMARK  status: ('A' for Active; 'I' for Inactive)
REMARK    1  A    between atoms: C4_4  and  C5_5 
REMARK    2  A    between atoms: C8_8  and  O9_9 
REMARK    3  A    between atoms: C10_11  and  O11_12 
REMARK    4  A    between atoms: C16_18  and  O17_19 
REMARK    5  A    between atoms: C19_22  and  O20_23 
ROOT
HETATM    1  O1          0      36.647   5.877  39.619  1.00  0.00    -0.286 OA
HETATM    2  C2          0      36.267   7.022  39.251  1.00  0.00     0.201 C 
HETATM    3  C3          0      34.960   7.299  38.888  1.00  0.00     0.067 C 
HETATM    4  C4          0      34.591   8.543  38.387  1.00  0.00     0.103 C 
HETATM    5  O13         0      35.513   9.482  38.278  1.00  0.00    -0.307 OA
HETATM    6  C14         0      36.775   9.261  38.573  1.00  0.00     0.107 C 
HETATM    7  C15         0      37.791  10.077  38.098  1.00  0.00     0.049 C 
HETATM    8  C16         0      39.125   9.700  38.196  1.00  0.00     0.093 C 
HETATM    9  C18         0      39.407   8.798  39.214  1.00  0.00     0.048 C 
HETATM   10  C19         0      38.404   7.998  39.746  1.00  0.00     0.096 C 
HETATM   11  C21         0      37.124   8.112  39.275  1.00  0.00     0.084 C 
ENDROOT
BRANCH  10  12
HETATM   12  O20         0      38.750   6.832  40.421  1.00  0.00    -0.359 OA
HETATM   13  H20         0      38.085   6.160  40.518  1.00  0.00     0.218 HD
ENDBRANCH  10  12
BRANCH   4  14
HETATM   14  C5          0      33.429   8.588  37.497  1.00  0.00     0.025 C 
HETATM   15  C6          0      33.343   9.455  36.417  1.00  0.00     0.004 C 
HETATM   16  C7          0      32.750   8.978  35.253  1.00  0.00     0.026 C 
HETATM   17  C8          0      32.142   7.728  35.204  1.00  0.00     0.112 C 
HETATM   18  C10         0      31.728   7.236  36.434  1.00  0.00     0.112 C 
HETATM   19  C12         0      32.395   7.665  37.575  1.00  0.00     0.028 C 
BRANCH  17  20
HETATM   20  O9          0      32.160   6.976  34.042  1.00  0.00    -0.357 OA
HETATM   21  H9          0      31.669   6.171  33.927  1.00  0.00     0.218 HD
ENDBRANCH  17  20
BRANCH  18  22
HETATM   22  O11         0      30.951   6.086  36.422  1.00  0.00    -0.357 OA
HETATM   23  H11         0      31.294   5.330  36.884  1.00  0.00     0.218 HD
ENDBRANCH  18  22
ENDBRANCH   4  14
BRANCH   8  24
HETATM   24  O17         0      40.030   9.941  37.155  1.00  0.00    -0.359 OA
HETATM   25  H17         0      40.961   9.784  37.257  1.00  0.00     0.218 HD
ENDBRANCH   8  24
TORSDOF 5
ENDMDL
MODEL 9
REMARK VINA RESULT:      -0.1      4.526      7.742
REMARK  5 active torsions:
REMARK  status: ('A' for Active; 'I' for Inactive)
REMARK    1  A    between atoms: C4_4  and  C5_5 
REMARK    2  A    between atoms: C8_8  and  O9_9 
REMARK    3  A    between atoms: C10_11  and  O11_12 
REMARK    4  A    between atoms: C16_18  and  O17_19 
REMARK    5  A    between atoms: C19_22  and  O20_23 
ROOT
HETATM    1  O1          0      35.846   3.725  39.120  1.00  0.00    -0.286 OA
HETATM    2  C2          0      36.078   4.795  39.747  1.00  0.00     0.201 C 
HETATM    3  C3          0      35.994   6.044  39.156  1.00  0.00     0.067 C 
HETATM    4  C4          0      36.354   7.199  39.840  1.00  0.00     0.103 C 
HETATM    5  O13         0      36.767   7.094  41.091  1.00  0.00    -0.307 OA
HETATM    6  C14         0      36.901   5.929  41.687  1.00  0.00     0.107 C 
HETATM    7  C15         0      37.691   5.773  42.817  1.00  0.00     0.049 C 
HETATM    8  C16         0      38.033   4.511  43.289  1.00  0.00     0.093 C 
HETATM    9  C18         0      37.157   3.493  42.933  1.00  0.00     0.048 C 
HETATM   10  C19         0      36.320   3.635  41.835  1.00  0.00     0.096 C 
HETATM   11  C21         0      36.345   4.794  41.107  1.00  0.00     0.084 C 
ENDROOT
BRANCH  10  12
HETATM   12  O20         0      35.787   2.499  41.234  1.00  0.00    -0.359 OA
HETATM   13  H20         0      35.620   1.742  41.783  1.00  0.00     0.218 HD
ENDBRANCH  10  12
BRANCH   4  14
HETATM   14  C5          0      36.814   8.336  39.040  1.00  0.00     0.025 C 
HETATM   15  C6          0      37.446   9.440  39.595  1.00  0.00     0.004 C 
HETATM   16  C7          0      38.493  10.011  38.879  1.00  0.00     0.026 C 
HETATM   17  C8          0      38.815   9.586  37.594  1.00  0.00     0.112 C 
HETATM   18  C10         0      37.778   8.964  36.912  1.00  0.00     0.112 C 
HETATM   19  C12         0      36.788   8.327  37.652  1.00  0.00     0.028 C 
BRANCH  17  20
HETATM   20  O9          0      40.125   9.604  37.149  1.00  0.00    -0.357 OA
HETATM   21  H9          0      40.712   8.859  37.205  1.00  0.00     0.218 HD
ENDBRANCH  17  20
BRANCH  18  22
HETATM   22  O11         0      37.985   8.691  35.567  1.00  0.00    -0.357 OA
HETATM   23  H11         0      38.887   8.618  35.277  1.00  0.00     0.218 HD
ENDBRANCH  18  22
ENDBRANCH   4  14
BRANCH   8  24
HETATM   24  O17         0      39.315   4.241  43.782  1.00  0.00    -0.359 OA
HETATM   25  H17         0      39.844   3.532  43.435  1.00  0.00     0.218 HD
ENDBRANCH   8  24
TORSDOF 5
ENDMDL
