MODEL 1
REMARK VINA RESULT:      -0.0      0.000      0.000
REMARK  5 active torsions:
REMARK  status: ('A' for Active; 'I' for Inactive)
REMARK    1  A    between atoms: C4_4  and  C5_5 
REMARK    2  A    between atoms: C8_8  and  O9_9 
REMARK    3  A    between atoms: C10_11  and  O11_12 
REMARK    4  A    between atoms: C16_18  and  O17_19 
REMARK    5  A    between atoms: C19_22  and  O20_23 
ROOT
HETATM    1  O1          0      29.232  -2.843 -17.709  1.00  0.00    -0.286 OA
HETATM    2  C2          0      28.774  -1.695 -17.455  1.00  0.00     0.201 C 
HETATM    3  C3          0      28.657  -1.203 -16.166  1.00  0.00     0.067 C 
HETATM    4  C4          0      28.054   0.023 -15.907  1.00  0.00     0.103 C 
HETATM    5  O13         0      27.604   0.737 -16.924  1.00  0.00    -0.307 OA
HETATM    6  C14         0      27.657   0.300 -18.163  1.00  0.00     0.107 C 
HETATM    7  C15         0      26.854   0.832 -19.161  1.00  0.00     0.049 C 
HETATM    8  C16         0      26.726   0.206 -20.395  1.00  0.00     0.093 C 
HETATM    9  C18         0      27.792  -0.611 -20.752  1.00  0.00     0.048 C 
HETATM   10  C19         0      28.644  -1.122 -19.783  1.00  0.00     0.096 C 
HETATM   11  C21         0      28.443  -0.807 -18.467  1.00  0.00     0.084 C 
ENDROOT
BRANCH  10  12
HETATM   12  O20         0      29.408  -2.249 -20.074  1.00  0.00    -0.359 OA
HETATM   13  H20         0      29.597  -2.434 -20.986  1.00  0.00     0.218 HD
ENDBRANCH  10  12
BRANCH   4  14
HETATM   14  C5          0      27.434   0.200 -14.592  1.00  0.00     0.025 C 
HETATM   15  C6          0      26.380   1.075 -14.370  1.00  0.00     0.004 C 
HETATM   16  C7          0      25.381   0.670 -13.491  1.00  0.00     0.026 C 
HETATM   17  C8          0      25.490  -0.505 -12.754  1.00  0.00     0.112 C 
HETATM   18  C10         0      26.790  -0.952 -12.565  1.00  0.00     0.112 C 
HETATM   19  C12         0      27.752  -0.603 -13.505  1.00  0.00     0.028 C 
BRANCH  17  20
HETATM   20  O9          0      24.367  -1.250 -12.438  1.00  0.00    -0.357 OA
HETATM   21  H9          0      24.261  -1.725 -11.622  1.00  0.00     0.218 HD
ENDBRANCH  17  20
BRANCH  18  22
HETATM   22  O11         0      26.969  -2.009 -11.683  1.00  0.00    -0.357 OA
HETATM   23  H11         0      26.254  -2.630 -11.605  1.00  0.00     0.218 HD
ENDBRANCH  18  22
ENDBRANCH   4  14
BRANCH   8  24
HETATM   24  O17         0      25.493   0.136 -21.053  1.00  0.00    -0.359 OA
HETATM   25  H17         0      24.838   0.818 -20.960  1.00  0.00     0.218 HD
ENDBRANCH   8  24
TORSDOF 5
ENDMDL
MODEL 2
REMARK VINA RESULT:      -0.0      5.541      7.169
REMARK  5 active torsions:
REMARK  status: ('A' for Active; 'I' for Inactive)
REMARK    1  A    between atoms: C4_4  and  C5_5 
REMARK    2  A    between atoms: C8_8  and  O9_9 
REMARK    3  A    between atoms: C10_11  and  O11_12 
REMARK    4  A    between atoms: C16_18  and  O17_19 
REMARK    5  A    between atoms: C19_22  and  O20_23 
ROOT
HETATM    1  O1          0      26.345  -2.635 -22.915  1.00  0.00    -0.286 OA
HETATM    2  C2          0      25.919  -3.730 -22.455  1.00  0.00     0.201 C 
HETATM    3  C3          0      24.861  -3.809 -21.565  1.00  0.00     0.067 C 
HETATM    4  C4          0      24.478  -5.018 -20.995  1.00  0.00     0.103 C 
HETATM    5  O13         0      25.132  -6.115 -21.334  1.00  0.00    -0.307 OA
HETATM    6  C14         0      26.167  -6.090 -22.145  1.00  0.00     0.107 C 
HETATM    7  C15         0      27.085  -7.129 -22.191  1.00  0.00     0.049 C 
HETATM    8  C16         0      28.300  -6.990 -22.852  1.00  0.00     0.093 C 
HETATM    9  C18         0      28.313  -6.033 -23.860  1.00  0.00     0.048 C 
HETATM   10  C19         0      27.379  -5.006 -23.870  1.00  0.00     0.096 C 
HETATM   11  C21         0      26.427  -4.945 -22.890  1.00  0.00     0.084 C 
ENDROOT
BRANCH  10  12
HETATM   12  O20         0      27.652  -3.846 -24.589  1.00  0.00    -0.359 OA
HETATM   13  H20         0      27.143  -3.679 -25.373  1.00  0.00     0.218 HD
ENDBRANCH  10  12
BRANCH   4  14
HETATM   14  C5          0      23.822  -4.964 -19.688  1.00  0.00     0.025 C 
HETATM   15  C6          0      23.870  -6.010 -18.778  1.00  0.00     0.004 C 
HETATM   16  C7          0      23.987  -5.688 -17.430  1.00  0.00     0.026 C 
HETATM   17  C8          0      23.923  -4.371 -16.987  1.00  0.00     0.112 C 
HETATM   18  C10         0      23.259  -3.503 -17.843  1.00  0.00     0.112 C 
HETATM   19  C12         0      23.230  -3.806 -19.199  1.00  0.00     0.028 C 
BRANCH  17  20
HETATM   20  O9          0      24.654  -3.957 -15.888  1.00  0.00    -0.357 OA
HETATM   21  H9          0      24.285  -3.466 -15.163  1.00  0.00     0.218 HD
ENDBRANCH  17  20
BRANCH  18  22
HETATM   22  O11         0      23.001  -2.225 -17.367  1.00  0.00    -0.357 OA
HETATM   23  H11         0      23.262  -2.039 -16.472  1.00  0.00     0.218 HD
ENDBRANCH  18  22
ENDBRANCH   4  14
BRANCH   8  24
HETATM   24  O17         0      29.483  -7.518 -22.323  1.00  0.00    -0.359 OA
HETATM   25  H17         0      29.721  -8.429 -22.445  1.00  0.00     0.218 HD
ENDBRANCH   8  24
TORSDOF 5
ENDMDL
MODEL 3
REMARK VINA RESULT:      -0.0     11.760     13.663
REMARK  5 active torsions:
REMARK  status: ('A' for Active; 'I' for Inactive)
REMARK    1  A    between atoms: C4_4  and  C5_5 
REMARK    2  A    between atoms: C8_8  and  O9_9 
REMARK    3  A    between atoms: C10_11  and  O11_12 
REMARK    4  A    between atoms: C16_18  and  O17_19 
REMARK    5  A    between atoms: C19_22  and  O20_23 
ROOT
HETATM    1  O1          0      12.064   3.521 -18.881  1.00  0.00    -0.286 OA
HETATM    2  C2          0      12.948   2.830 -18.305  1.00  0.00     0.201 C 
HETATM    3  C3          0      13.766   3.336 -17.309  1.00  0.00     0.067 C 
HETATM    4  C4          0      14.800   2.585 -16.763  1.00  0.00     0.103 C 
HETATM    5  O13         0      14.986   1.351 -17.198  1.00  0.00    -0.307 OA
HETATM    6  C14         0      14.263   0.835 -18.167  1.00  0.00     0.107 C 
HETATM    7  C15         0      14.691  -0.269 -18.891  1.00  0.00     0.049 C 
HETATM    8  C16         0      14.056  -0.652 -20.066  1.00  0.00     0.093 C 
HETATM    9  C18         0      12.732  -0.246 -20.177  1.00  0.00     0.048 C 
HETATM   10  C19         0      12.258   0.826 -19.433  1.00  0.00     0.096 C 
HETATM   11  C21         0      13.097   1.477 -18.570  1.00  0.00     0.084 C 
ENDROOT
BRANCH  10  12
HETATM   12  O20         0      11.109   1.490 -19.852  1.00  0.00    -0.359 OA
HETATM   13  H20         0      10.270   1.086 -19.668  1.00  0.00     0.218 HD
ENDBRANCH  10  12
BRANCH   4  14
HETATM   14  C5          0      15.942   3.317 -16.211  1.00  0.00     0.025 C 
HETATM   15  C6          0      17.218   2.778 -16.139  1.00  0.00     0.004 C 
HETATM   16  C7          0      18.291   3.624 -16.396  1.00  0.00     0.026 C 
HETATM   17  C8          0      18.113   4.991 -16.586  1.00  0.00     0.112 C 
HETATM   18  C10         0      16.953   5.507 -16.025  1.00  0.00     0.112 C 
HETATM   19  C12         0      15.865   4.658 -15.858  1.00  0.00     0.028 C 
BRANCH  17  20
HETATM   20  O9          0      18.933   5.699 -17.446  1.00  0.00    -0.357 OA
HETATM   21  H9          0      19.881   5.634 -17.447  1.00  0.00     0.218 HD
ENDBRANCH  17  20
BRANCH  18  22
HETATM   22  O11         0      16.818   6.889 -16.020  1.00  0.00    -0.357 OA
HETATM   23  H11         0      15.942   7.235 -15.897  1.00  0.00     0.218 HD
ENDBRANCH  18  22
ENDBRANCH   4  14
BRANCH   8  24
HETATM   24  O17         0      14.783  -1.104 -21.173  1.00  0.00    -0.359 OA
HETATM   25  H17         0      15.455  -0.570 -21.581  1.00  0.00     0.218 HD
ENDBRANCH   8  24
TORSDOF 5
ENDMDL
MODEL 4
REMARK VINA RESULT:       0.0      6.202      7.462
REMARK  5 active torsions:
REMARK  status: ('A' for Active; 'I' for Inactive)
REMARK    1  A    between atoms: C4_4  and  C5_5 
REMARK    2  A    between atoms: C8_8  and  O9_9 
REMARK    3  A    between atoms: C10_11  and  O11_12 
REMARK    4  A    between atoms: C16_18  and  O17_19 
REMARK    5  A    between atoms: C19_22  and  O20_23 
ROOT
HETATM    1  O1          0      23.433  -2.152 -19.411  1.00  0.00    -0.286 OA
HETATM    2  C2          0      23.039  -1.120 -20.021  1.00  0.00     0.201 C 
HETATM    3  C3          0      22.504  -0.022 -19.369  1.00  0.00     0.067 C 
HETATM    4  C4          0      21.982   1.059 -20.072  1.00  0.00     0.103 C 
HETATM    5  O13         0      22.022   1.036 -21.392  1.00  0.00    -0.307 OA
HETATM    6  C14         0      22.485   0.003 -22.060  1.00  0.00     0.107 C 
HETATM    7  C15         0      22.172  -0.204 -23.396  1.00  0.00     0.049 C 
HETATM    8  C16         0      22.447  -1.414 -24.023  1.00  0.00     0.093 C 
HETATM    9  C18         0      23.476  -2.152 -23.449  1.00  0.00     0.048 C 
HETATM   10  C19         0      23.846  -1.938 -22.129  1.00  0.00     0.096 C 
HETATM   11  C21         0      23.204  -0.981 -21.390  1.00  0.00     0.084 C 
ENDROOT
BRANCH  10  12
HETATM   12  O20         0      24.538  -2.933 -21.446  1.00  0.00    -0.359 OA
HETATM   13  H20         0      24.405  -3.834 -21.717  1.00  0.00     0.218 HD
ENDBRANCH  10  12
BRANCH   4  14
HETATM   14  C5          0      20.940   1.847 -19.411  1.00  0.00     0.025 C 
HETATM   15  C6          0      19.979   2.561 -20.112  1.00  0.00     0.004 C 
HETATM   16  C7          0      18.688   2.582 -19.596  1.00  0.00     0.026 C 
HETATM   17  C8          0      18.389   2.027 -18.356  1.00  0.00     0.112 C 
HETATM   18  C10         0      19.470   1.924 -17.491  1.00  0.00     0.112 C 
HETATM   19  C12         0      20.744   1.818 -18.036  1.00  0.00     0.028 C 
BRANCH  17  20
HETATM   20  O9          0      17.157   1.443 -18.119  1.00  0.00    -0.357 OA
HETATM   21  H9          0      16.830   1.233 -17.252  1.00  0.00     0.218 HD
ENDBRANCH  17  20
BRANCH  18  22
HETATM   22  O11         0      19.195   1.555 -16.182  1.00  0.00    -0.357 OA
HETATM   23  H11         0      19.625   2.052 -15.496  1.00  0.00     0.218 HD
ENDBRANCH  18  22
ENDBRANCH   4  14
BRANCH   8  24
HETATM   24  O17         0      21.547  -1.986 -24.929  1.00  0.00    -0.359 OA
HETATM   25  H17         0      21.831  -2.315 -25.774  1.00  0.00     0.218 HD
ENDBRANCH   8  24
TORSDOF 5
ENDMDL
MODEL 5
REMARK VINA RESULT:       0.0     13.594     15.618
REMARK  5 active torsions:
REMARK  status: ('A' for Active; 'I' for Inactive)
REMARK    1  A    between atoms: C4_4  and  C5_5 
REMARK    2  A    between atoms: C8_8  and  O9_9 
REMARK    3  A    between atoms: C10_11  and  O11_12 
REMARK    4  A    between atoms: C16_18  and  O17_19 
REMARK    5  A    between atoms: C19_22  and  O20_23 
ROOT
HETATM    1  O1          0      10.300  -1.196 -19.229  1.00  0.00    -0.286 OA
HETATM    2  C2          0      11.531  -1.274 -19.490  1.00  0.00     0.201 C 
HETATM    3  C3          0      12.059  -2.229 -20.342  1.00  0.00     0.067 C 
HETATM    4  C4          0      13.430  -2.358 -20.533  1.00  0.00     0.103 C 
HETATM    5  O13         0      14.240  -1.529 -19.897  1.00  0.00    -0.307 OA
HETATM    6  C14         0      13.793  -0.629 -19.048  1.00  0.00     0.107 C 
HETATM    7  C15         0      14.620  -0.046 -18.099  1.00  0.00     0.049 C 
HETATM    8  C16         0      14.099   0.704 -17.051  1.00  0.00     0.093 C 
HETATM    9  C18         0      12.851   1.266 -17.295  1.00  0.00     0.048 C 
HETATM   10  C19         0      12.018   0.736 -18.271  1.00  0.00     0.096 C 
HETATM   11  C21         0      12.434  -0.338 -19.010  1.00  0.00     0.084 C 
ENDROOT
BRANCH  10  12
HETATM   12  O20         0      10.653   1.000 -18.216  1.00  0.00    -0.359 OA
HETATM   13  H20         0      10.376   1.847 -17.888  1.00  0.00     0.218 HD
ENDBRANCH  10  12
BRANCH   4  14
HETATM   14  C5          0      13.932  -3.678 -20.916  1.00  0.00     0.025 C 
HETATM   15  C6          0      15.220  -4.107 -20.626  1.00  0.00     0.004 C 
HETATM   16  C7          0      15.389  -5.438 -20.261  1.00  0.00     0.026 C 
HETATM   17  C8          0      14.338  -6.348 -20.312  1.00  0.00     0.112 C 
HETATM   18  C10         0      13.314  -6.002 -21.183  1.00  0.00     0.112 C 
HETATM   19  C12         0      13.113  -4.656 -21.465  1.00  0.00     0.028 C 
BRANCH  17  20
HETATM   20  O9          0      14.254  -7.386 -19.401  1.00  0.00    -0.357 OA
HETATM   21  H9          0      14.756  -7.423 -18.595  1.00  0.00     0.218 HD
ENDBRANCH  17  20
BRANCH  18  22
HETATM   22  O11         0      12.336  -6.959 -21.415  1.00  0.00    -0.357 OA
HETATM   23  H11         0      12.087  -7.507 -20.679  1.00  0.00     0.218 HD
ENDBRANCH  18  22
ENDBRANCH   4  14
BRANCH   8  24
HETATM   24  O17         0      14.625   0.614 -15.758  1.00  0.00    -0.359 OA
HETATM   25  H17         0      14.067   0.486 -15.000  1.00  0.00     0.218 HD
ENDBRANCH   8  24
TORSDOF 5
ENDMDL
MODEL 6
REMARK VINA RESULT:       0.0     12.133     14.161
REMARK  5 active torsions:
REMARK  status: ('A' for Active; 'I' for Inactive)
REMARK    1  A    between atoms: C4_4  and  C5_5 
REMARK    2  A    between atoms: C8_8  and  O9_9 
REMARK    3  A    between atoms: C10_11  and  O11_12 
REMARK    4  A    between atoms: C16_18  and  O17_19 
REMARK    5  A    between atoms: C19_22  and  O20_23 
ROOT
HETATM    1  O1          0      11.686  -0.395 -18.997  1.00  0.00    -0.286 OA
HETATM    2  C2          0      12.932  -0.479 -18.820  1.00  0.00     0.201 C 
HETATM    3  C3          0      13.714  -1.442 -19.434  1.00  0.00     0.067 C 
HETATM    4  C4          0      15.067  -1.577 -19.142  1.00  0.00     0.103 C 
HETATM    5  O13         0      15.614  -0.748 -18.270  1.00  0.00    -0.307 OA
HETATM    6  C14         0      14.908   0.160 -17.632  1.00  0.00     0.107 C 
HETATM    7  C15         0      15.362   0.746 -16.459  1.00  0.00     0.049 C 
HETATM    8  C16         0      14.518   1.505 -15.657  1.00  0.00     0.093 C 
HETATM    9  C18         0      13.433   2.070 -16.317  1.00  0.00     0.048 C 
HETATM   10  C19         0      12.982   1.537 -17.517  1.00  0.00     0.096 C 
HETATM   11  C21         0      13.620   0.457 -18.063  1.00  0.00     0.084 C 
ENDROOT
BRANCH  10  12
HETATM   12  O20         0      11.682   1.807 -17.935  1.00  0.00    -0.359 OA
HETATM   13  H20         0      11.315   2.657 -17.726  1.00  0.00     0.218 HD
ENDBRANCH  10  12
BRANCH   4  14
HETATM   14  C5          0      15.662  -2.902 -19.323  1.00  0.00     0.025 C 
HETATM   15  C6          0      16.769  -3.333 -18.607  1.00  0.00     0.004 C 
HETATM   16  C7          0      16.795  -4.663 -18.199  1.00  0.00     0.026 C 
HETATM   17  C8          0      15.820  -5.569 -18.603  1.00  0.00     0.112 C 
HETATM   18  C10         0      15.159  -5.225 -19.775  1.00  0.00     0.112 C 
HETATM   19  C12         0      15.075  -3.880 -20.115  1.00  0.00     0.028 C 
BRANCH  17  20
HETATM   20  O9          0      15.423  -6.601 -17.771  1.00  0.00    -0.357 OA
HETATM   21  H9          0      15.617  -6.634 -16.842  1.00  0.00     0.218 HD
ENDBRANCH  17  20
BRANCH  18  22
HETATM   22  O11         0      14.314  -6.180 -20.323  1.00  0.00    -0.357 OA
HETATM   23  H11         0      13.825  -6.722 -19.715  1.00  0.00     0.218 HD
ENDBRANCH  18  22
ENDBRANCH   4  14
BRANCH   8  24
HETATM   24  O17         0      14.568   1.421 -14.261  1.00  0.00    -0.359 OA
HETATM   25  H17         0      15.347   1.124 -13.807  1.00  0.00     0.218 HD
ENDBRANCH   8  24
TORSDOF 5
ENDMDL
MODEL 7
REMARK VINA RESULT:       0.0      6.646      9.256
REMARK  5 active torsions:
REMARK  status: ('A' for Active; 'I' for Inactive)
REMARK    1  A    between atoms: C4_4  and  C5_5 
REMARK    2  A    between atoms: C8_8  and  O9_9 
REMARK    3  A    between atoms: C10_11  and  O11_12 
REMARK    4  A    between atoms: C16_18  and  O17_19 
REMARK    5  A    between atoms: C19_22  and  O20_23 
ROOT
HETATM    1  O1          0      18.495  -0.140 -22.715  1.00  0.00    -0.286 OA
HETATM    2  C2          0      19.741  -0.278 -22.860  1.00  0.00     0.201 C 
HETATM    3  C3          0      20.641  -0.096 -21.824  1.00  0.00     0.067 C 
HETATM    4  C4          0      22.015  -0.153 -22.033  1.00  0.00     0.103 C 
HETATM    5  O13         0      22.461  -0.407 -23.251  1.00  0.00    -0.307 OA
HETATM    6  C14         0      21.651  -0.550 -24.277  1.00  0.00     0.107 C 
HETATM    7  C15         0      22.096  -0.415 -25.584  1.00  0.00     0.049 C 
HETATM    8  C16         0      21.202  -0.313 -26.644  1.00  0.00     0.093 C 
HETATM    9  C18         0      19.951  -0.870 -26.412  1.00  0.00     0.048 C 
HETATM   10  C19         0      19.493  -1.062 -25.115  1.00  0.00     0.096 C 
HETATM   11  C21         0      20.288  -0.716 -24.056  1.00  0.00     0.084 C 
ENDROOT
BRANCH  10  12
HETATM   12  O20         0      18.127  -1.197 -24.889  1.00  0.00    -0.359 OA
HETATM   13  H20         0      17.677  -1.926 -25.299  1.00  0.00     0.218 HD
ENDBRANCH  10  12
BRANCH   4  14
HETATM   14  C5          0      22.864   0.608 -21.116  1.00  0.00     0.025 C 
HETATM   15  C6          0      24.115   1.091 -21.474  1.00  0.00     0.004 C 
HETATM   16  C7          0      24.482   2.345 -20.998  1.00  0.00     0.026 C 
HETATM   17  C8          0      23.692   3.040 -20.088  1.00  0.00     0.112 C 
HETATM   18  C10         0      22.840   2.245 -19.334  1.00  0.00     0.112 C 
HETATM   19  C12         0      22.421   1.033 -19.870  1.00  0.00     0.028 C 
BRANCH  17  20
HETATM   20  O9          0      23.632   4.422 -20.112  1.00  0.00    -0.357 OA
HETATM   21  H9          0      23.754   4.943 -20.898  1.00  0.00     0.218 HD
ENDBRANCH  17  20
BRANCH  18  22
HETATM   22  O11         0      22.171   2.859 -18.285  1.00  0.00    -0.357 OA
HETATM   23  H11         0      22.465   2.650 -17.406  1.00  0.00     0.218 HD
ENDBRANCH  18  22
ENDBRANCH   4  14
BRANCH   8  24
HETATM   24  O17         0      21.430   0.567 -27.707  1.00  0.00    -0.359 OA
HETATM   25  H17         0      22.075   1.262 -27.651  1.00  0.00     0.218 HD
ENDBRANCH   8  24
TORSDOF 5
ENDMDL
MODEL 8
REMARK VINA RESULT:       0.0     12.430     13.548
REMARK  5 active torsions:
REMARK  status: ('A' for Active; 'I' for Inactive)
REMARK    1  A    between atoms: C4_4  and  C5_5 
REMARK    2  A    between atoms: C8_8  and  O9_9 
REMARK    3  A    between atoms: C10_11  and  O11_12 
REMARK    4  A    between atoms: C16_18  and  O17_19 
REMARK    5  A    between atoms: C19_22  and  O20_23 
ROOT
HETATM    1  O1          0      16.070   4.519 -21.277  1.00  0.00    -0.286 OA
HETATM    2  C2          0      16.185   3.814 -22.317  1.00  0.00     0.201 C 
HETATM    3  C3          0      15.515   2.614 -22.487  1.00  0.00     0.067 C 
HETATM    4  C4          0      15.738   1.807 -23.597  1.00  0.00     0.103 C 
HETATM    5  O13         0      16.597   2.213 -24.515  1.00  0.00    -0.307 OA
HETATM    6  C14         0      17.286   3.325 -24.385  1.00  0.00     0.107 C 
HETATM    7  C15         0      18.446   3.555 -25.111  1.00  0.00     0.049 C 
HETATM    8  C16         0      19.302   4.602 -24.790  1.00  0.00     0.093 C 
HETATM    9  C18         0      18.707   5.662 -24.116  1.00  0.00     0.048 C 
HETATM   10  C19         0      17.521   5.477 -23.418  1.00  0.00     0.096 C 
HETATM   11  C21         0      16.924   4.246 -23.407  1.00  0.00     0.084 C 
ENDROOT
BRANCH  10  12
HETATM   12  O20         0      17.172   6.380 -22.418  1.00  0.00    -0.359 OA
HETATM   13  H20         0      16.251   6.479 -22.210  1.00  0.00     0.218 HD
ENDBRANCH  10  12
BRANCH   4  14
HETATM   14  C5          0      15.503   0.370 -23.438  1.00  0.00     0.025 C 
HETATM   15  C6          0      16.156  -0.587 -24.200  1.00  0.00     0.004 C 
HETATM   16  C7          0      16.537  -1.766 -23.567  1.00  0.00     0.026 C 
HETATM   17  C8          0      16.164  -2.042 -22.256  1.00  0.00     0.112 C 
HETATM   18  C10         0      15.033  -1.365 -21.819  1.00  0.00     0.112 C 
HETATM   19  C12         0      14.723  -0.147 -22.412  1.00  0.00     0.028 C 
BRANCH  17  20
HETATM   20  O9          0      16.995  -2.768 -21.421  1.00  0.00    -0.357 OA
HETATM   21  H9          0      17.565  -3.467 -21.720  1.00  0.00     0.218 HD
ENDBRANCH  17  20
BRANCH  18  22
HETATM   22  O11         0      14.509  -1.743 -20.591  1.00  0.00    -0.357 OA
HETATM   23  H11         0      13.622  -1.462 -20.397  1.00  0.00     0.218 HD
ENDBRANCH  18  22
ENDBRANCH   4  14
BRANCH   8  24
HETATM   24  O17         0      20.692   4.448 -24.837  1.00  0.00    -0.359 OA
HETATM   25  H17         0      21.141   3.801 -24.305  1.00  0.00     0.218 HD
ENDBRANCH   8  24
TORSDOF 5
ENDMDL
MODEL 9
REMARK VINA RESULT:       0.0     13.872     15.247
REMARK  5 active torsions:
REMARK  status: ('A' for Active; 'I' for Inactive)
REMARK    1  A    between atoms: C4_4  and  C5_5 
REMARK    2  A    between atoms: C8_8  and  O9_9 
REMARK    3  A    between atoms: C10_11  and  O11_12 
REMARK    4  A    between atoms: C16_18  and  O17_19 
REMARK    5  A    between atoms: C19_22  and  O20_23 
ROOT
HETATM    1  O1          0      11.187  -4.880 -20.448  1.00  0.00    -0.286 OA
HETATM    2  C2          0      12.249  -5.012 -19.780  1.00  0.00     0.201 C 
HETATM    3  C3          0      12.420  -6.005 -18.830  1.00  0.00     0.067 C 
HETATM    4  C4          0      13.559  -6.065 -18.036  1.00  0.00     0.103 C 
HETATM    5  O13         0      14.506  -5.161 -18.214  1.00  0.00    -0.307 OA
HETATM    6  C14         0      14.379  -4.176 -19.077  1.00  0.00     0.107 C 
HETATM    7  C15         0      15.152  -3.027 -18.993  1.00  0.00     0.049 C 
HETATM    8  C16         0      14.844  -1.895 -19.738  1.00  0.00     0.093 C 
HETATM    9  C18         0      14.115  -2.135 -20.897  1.00  0.00     0.048 C 
HETATM   10  C19         0      13.368  -3.296 -21.032  1.00  0.00     0.096 C 
HETATM   11  C21         0      13.362  -4.221 -20.024  1.00  0.00     0.084 C 
ENDROOT
BRANCH  10  12
HETATM   12  O20         0      12.329  -3.333 -21.958  1.00  0.00    -0.359 OA
HETATM   13  H20         0      11.521  -3.761 -21.703  1.00  0.00     0.218 HD
ENDBRANCH  10  12
BRANCH   4  14
HETATM   14  C5          0      13.427  -6.698 -16.722  1.00  0.00     0.025 C 
HETATM   15  C6          0      14.244  -6.377 -15.648  1.00  0.00     0.004 C 
HETATM   16  C7          0      13.660  -6.327 -14.386  1.00  0.00     0.026 C 
HETATM   17  C8          0      12.341  -6.714 -14.177  1.00  0.00     0.112 C 
HETATM   18  C10         0      11.835  -7.586 -15.132  1.00  0.00     0.112 C 
HETATM   19  C12         0      12.380  -7.555 -16.410  1.00  0.00     0.028 C 
BRANCH  17  20
HETATM   20  O9          0      11.565  -6.097 -13.212  1.00  0.00    -0.357 OA
HETATM   21  H9          0      11.393  -6.469 -12.355  1.00  0.00     0.218 HD
ENDBRANCH  17  20
BRANCH  18  22
HETATM   22  O11         0      10.594  -8.150 -14.873  1.00  0.00    -0.357 OA
HETATM   23  H11         0      10.091  -8.448 -15.623  1.00  0.00     0.218 HD
ENDBRANCH  18  22
ENDBRANCH   4  14
BRANCH   8  24
HETATM   24  O17         0      14.960  -0.611 -19.194  1.00  0.00    -0.359 OA
HETATM   25  H17         0      14.196  -0.087 -18.984  1.00  0.00     0.218 HD
ENDBRANCH   8  24
TORSDOF 5
ENDMDL
