MODEL 1
REMARK VINA RESULT:      -4.8      0.000      0.000
REMARK  5 active torsions:
REMARK  status: ('A' for Active; 'I' for Inactive)
REMARK    1  A    between atoms: C4_4  and  C5_5 
REMARK    2  A    between atoms: C8_8  and  O9_9 
REMARK    3  A    between atoms: C10_11  and  O11_12 
REMARK    4  A    between atoms: C16_18  and  O17_19 
REMARK    5  A    between atoms: C19_22  and  O20_23 
ROOT
HETATM    1  O1          0      26.669  36.672  36.594  1.00  0.00    -0.286 OA
HETATM    2  C2          0      26.218  37.850  36.572  1.00  0.00     0.201 C 
HETATM    3  C3          0      24.985  38.172  36.031  1.00  0.00     0.067 C 
HETATM    4  C4          0      24.556  39.490  35.926  1.00  0.00     0.103 C 
HETATM    5  O13         0      25.344  40.451  36.376  1.00  0.00    -0.307 OA
HETATM    6  C14         0      26.539  40.204  36.865  1.00  0.00     0.107 C 
HETATM    7  C15         0      27.508  41.192  36.962  1.00  0.00     0.049 C 
HETATM    8  C16         0      28.834  40.878  37.235  1.00  0.00     0.093 C 
HETATM    9  C18         0      29.026  39.678  37.908  1.00  0.00     0.048 C 
HETATM   10  C19         0      28.057  38.685  37.871  1.00  0.00     0.096 C 
HETATM   11  C21         0      26.894  38.897  37.180  1.00  0.00     0.084 C 
ENDROOT
BRANCH  10  12
HETATM   12  O20         0      28.417  37.371  38.154  1.00  0.00    -0.359 OA
HETATM   13  H20         0      29.323  37.196  38.377  1.00  0.00     0.218 HD
ENDBRANCH  10  12
BRANCH   4  14
HETATM   14  C5          0      23.602  39.802  34.860  1.00  0.00     0.025 C 
HETATM   15  C6          0      23.635  40.991  34.146  1.00  0.00     0.004 C 
HETATM   16  C7          0      23.351  40.933  32.785  1.00  0.00     0.026 C 
HETATM   17  C8          0      22.918  39.759  32.179  1.00  0.00     0.112 C 
HETATM   18  C10         0      22.323  38.847  33.042  1.00  0.00     0.112 C 
HETATM   19  C12         0      22.689  38.871  34.382  1.00  0.00     0.028 C 
BRANCH  17  20
HETATM   20  O9          0      23.259  39.468  30.870  1.00  0.00    -0.357 OA
HETATM   21  H9          0      22.864  38.767  30.365  1.00  0.00     0.218 HD
ENDBRANCH  17  20
BRANCH  18  22
HETATM   22  O11         0      21.706  37.746  32.465  1.00  0.00    -0.357 OA
HETATM   23  H11         0      20.826  37.874  32.128  1.00  0.00     0.218 HD
ENDBRANCH  18  22
ENDBRANCH   4  14
BRANCH   8  24
HETATM   24  O17         0      29.887  41.539  36.592  1.00  0.00    -0.359 OA
HETATM   25  H17         0      29.730  42.221  35.950  1.00  0.00     0.218 HD
ENDBRANCH   8  24
TORSDOF 5
ENDMDL
MODEL 2
REMARK VINA RESULT:      -4.5      1.536      2.051
REMARK  5 active torsions:
REMARK  status: ('A' for Active; 'I' for Inactive)
REMARK    1  A    between atoms: C4_4  and  C5_5 
REMARK    2  A    between atoms: C8_8  and  O9_9 
REMARK    3  A    between atoms: C10_11  and  O11_12 
REMARK    4  A    between atoms: C16_18  and  O17_19 
REMARK    5  A    between atoms: C19_22  and  O20_23 
ROOT
HETATM    1  O1          0      27.663  37.049  37.725  1.00  0.00    -0.286 OA
HETATM    2  C2          0      27.046  38.136  37.555  1.00  0.00     0.201 C 
HETATM    3  C3          0      25.690  38.195  37.282  1.00  0.00     0.067 C 
HETATM    4  C4          0      25.055  39.398  36.996  1.00  0.00     0.103 C 
HETATM    5  O13         0      25.769  40.510  37.009  1.00  0.00    -0.307 OA
HETATM    6  C14         0      27.066  40.506  37.225  1.00  0.00     0.107 C 
HETATM    7  C15         0      27.872  41.572  36.853  1.00  0.00     0.049 C 
HETATM    8  C16         0      29.258  41.462  36.848  1.00  0.00     0.093 C 
HETATM    9  C18         0      29.772  40.493  37.701  1.00  0.00     0.048 C 
HETATM   10  C19         0      28.979  39.438  38.130  1.00  0.00     0.096 C 
HETATM   11  C21         0      27.675  39.360  37.724  1.00  0.00     0.084 C 
ENDROOT
BRANCH  10  12
HETATM   12  O20         0      29.586  38.278  38.601  1.00  0.00    -0.359 OA
HETATM   13  H20         0      29.723  37.566  37.987  1.00  0.00     0.218 HD
ENDBRANCH  10  12
BRANCH   4  14
HETATM   14  C5          0      23.854  39.341  36.161  1.00  0.00     0.025 C 
HETATM   15  C6          0      23.885  39.523  34.786  1.00  0.00     0.004 C 
HETATM   16  C7          0      23.042  38.731  34.013  1.00  0.00     0.026 C 
HETATM   17  C8          0      22.104  37.883  34.591  1.00  0.00     0.112 C 
HETATM   18  C10         0      21.722  38.233  35.879  1.00  0.00     0.112 C 
HETATM   19  C12         0      22.618  38.952  36.661  1.00  0.00     0.028 C 
BRANCH  17  20
HETATM   20  O9          0      21.765  36.684  33.988  1.00  0.00    -0.357 OA
HETATM   21  H9          0      22.334  36.215  33.389  1.00  0.00     0.218 HD
ENDBRANCH  17  20
BRANCH  18  22
HETATM   22  O11         0      20.656  37.536  36.430  1.00  0.00    -0.357 OA
HETATM   23  H11         0      19.789  37.902  36.298  1.00  0.00     0.218 HD
ENDBRANCH  18  22
ENDBRANCH   4  14
BRANCH   8  24
HETATM   24  O17         0      30.031  42.032  35.831  1.00  0.00    -0.359 OA
HETATM   25  H17         0      30.935  42.288  35.975  1.00  0.00     0.218 HD
ENDBRANCH   8  24
TORSDOF 5
ENDMDL
MODEL 3
REMARK VINA RESULT:      -4.4      4.031      5.683
REMARK  5 active torsions:
REMARK  status: ('A' for Active; 'I' for Inactive)
REMARK    1  A    between atoms: C4_4  and  C5_5 
REMARK    2  A    between atoms: C8_8  and  O9_9 
REMARK    3  A    between atoms: C10_11  and  O11_12 
REMARK    4  A    between atoms: C16_18  and  O17_19 
REMARK    5  A    between atoms: C19_22  and  O20_23 
ROOT
HETATM    1  O1          0      23.859  39.000  41.485  1.00  0.00    -0.286 OA
HETATM    2  C2          0      24.797  38.430  40.862  1.00  0.00     0.201 C 
HETATM    3  C3          0      25.208  38.825  39.600  1.00  0.00     0.067 C 
HETATM    4  C4          0      26.173  38.117  38.894  1.00  0.00     0.103 C 
HETATM    5  O13         0      26.721  37.055  39.458  1.00  0.00    -0.307 OA
HETATM    6  C14         0      26.341  36.616  40.638  1.00  0.00     0.107 C 
HETATM    7  C15         0      26.603  35.318  41.054  1.00  0.00     0.049 C 
HETATM    8  C16         0      25.986  34.783  42.179  1.00  0.00     0.093 C 
HETATM    9  C18         0      25.557  35.717  43.114  1.00  0.00     0.048 C 
HETATM   10  C19         0      25.331  37.035  42.741  1.00  0.00     0.096 C 
HETATM   11  C21         0      25.547  37.422  41.447  1.00  0.00     0.084 C 
ENDROOT
BRANCH  10  12
HETATM   12  O20         0      24.511  37.834  43.532  1.00  0.00    -0.359 OA
HETATM   13  H20         0      24.217  38.663  43.174  1.00  0.00     0.218 HD
ENDBRANCH  10  12
BRANCH   4  14
HETATM   14  C5          0      26.125  38.192  37.433  1.00  0.00     0.025 C 
HETATM   15  C6          0      26.407  37.108  36.614  1.00  0.00     0.004 C 
HETATM   16  C7          0      25.638  36.950  35.466  1.00  0.00     0.026 C 
HETATM   17  C8          0      24.709  37.908  35.072  1.00  0.00     0.112 C 
HETATM   18  C10         0      24.948  39.184  35.566  1.00  0.00     0.112 C 
HETATM   19  C12         0      25.646  39.310  36.761  1.00  0.00     0.028 C 
BRANCH  17  20
HETATM   20  O9          0      23.545  37.542  34.422  1.00  0.00    -0.357 OA
HETATM   21  H9          0      22.715  37.993  34.529  1.00  0.00     0.218 HD
ENDBRANCH  17  20
BRANCH  18  22
HETATM   22  O11         0      24.167  40.211  35.056  1.00  0.00    -0.357 OA
HETATM   23  H11         0      23.627  40.689  35.675  1.00  0.00     0.218 HD
ENDBRANCH  18  22
ENDBRANCH   4  14
BRANCH   8  24
HETATM   24  O17         0      25.536  33.458  42.203  1.00  0.00    -0.359 OA
HETATM   25  H17         0      25.547  32.913  41.425  1.00  0.00     0.218 HD
ENDBRANCH   8  24
TORSDOF 5
ENDMDL
MODEL 4
REMARK VINA RESULT:      -4.3      5.173      8.739
REMARK  5 active torsions:
REMARK  status: ('A' for Active; 'I' for Inactive)
REMARK    1  A    between atoms: C4_4  and  C5_5 
REMARK    2  A    between atoms: C8_8  and  O9_9 
REMARK    3  A    between atoms: C10_11  and  O11_12 
REMARK    4  A    between atoms: C16_18  and  O17_19 
REMARK    5  A    between atoms: C19_22  and  O20_23 
ROOT
HETATM    1  O1          0      29.945  36.203  39.609  1.00  0.00    -0.286 OA
HETATM    2  C2          0      28.881  36.600  40.158  1.00  0.00     0.201 C 
HETATM    3  C3          0      28.545  36.280  41.463  1.00  0.00     0.067 C 
HETATM    4  C4          0      27.321  36.645  42.010  1.00  0.00     0.103 C 
HETATM    5  O13         0      26.472  37.331  41.266  1.00  0.00    -0.307 OA
HETATM    6  C14         0      26.725  37.628  40.010  1.00  0.00     0.107 C 
HETATM    7  C15         0      25.717  37.978  39.124  1.00  0.00     0.049 C 
HETATM    8  C16         0      25.949  38.042  37.755  1.00  0.00     0.093 C 
HETATM    9  C18         0      27.272  38.267  37.394  1.00  0.00     0.048 C 
HETATM   10  C19         0      28.304  37.972  38.275  1.00  0.00     0.096 C 
HETATM   11  C21         0      28.015  37.471  39.515  1.00  0.00     0.084 C 
ENDROOT
BRANCH  10  12
HETATM   12  O20         0      29.589  37.782  37.777  1.00  0.00    -0.359 OA
HETATM   13  H20         0      29.745  37.030  37.219  1.00  0.00     0.218 HD
ENDBRANCH  10  12
BRANCH   4  14
HETATM   14  C5          0      26.794  35.808  43.090  1.00  0.00     0.025 C 
HETATM   15  C6          0      25.437  35.584  43.275  1.00  0.00     0.004 C 
HETATM   16  C7          0      25.043  34.311  43.674  1.00  0.00     0.026 C 
HETATM   17  C8          0      25.971  33.331  44.009  1.00  0.00     0.112 C 
HETATM   18  C10         0      27.211  33.817  44.401  1.00  0.00     0.112 C 
HETATM   19  C12         0      27.617  35.056  43.918  1.00  0.00     0.028 C 
BRANCH  17  20
HETATM   20  O9          0      25.714  31.996  43.756  1.00  0.00    -0.357 OA
HETATM   21  H9          0      25.089  31.476  44.248  1.00  0.00     0.218 HD
ENDBRANCH  17  20
BRANCH  18  22
HETATM   22  O11         0      28.110  32.898  44.924  1.00  0.00    -0.357 OA
HETATM   23  H11         0      28.879  33.249  45.359  1.00  0.00     0.218 HD
ENDBRANCH  18  22
ENDBRANCH   4  14
BRANCH   8  24
HETATM   24  O17         0      25.003  37.581  36.833  1.00  0.00    -0.359 OA
HETATM   25  H17         0      24.199  38.057  36.663  1.00  0.00     0.218 HD
ENDBRANCH   8  24
TORSDOF 5
ENDMDL
MODEL 5
REMARK VINA RESULT:      -4.2      1.819      3.302
REMARK  5 active torsions:
REMARK  status: ('A' for Active; 'I' for Inactive)
REMARK    1  A    between atoms: C4_4  and  C5_5 
REMARK    2  A    between atoms: C8_8  and  O9_9 
REMARK    3  A    between atoms: C10_11  and  O11_12 
REMARK    4  A    between atoms: C16_18  and  O17_19 
REMARK    5  A    between atoms: C19_22  and  O20_23 
ROOT
HETATM    1  O1          0      27.505  41.693  38.207  1.00  0.00    -0.286 OA
HETATM    2  C2          0      27.138  40.643  37.612  1.00  0.00     0.201 C 
HETATM    3  C3          0      26.143  40.635  36.649  1.00  0.00     0.067 C 
HETATM    4  C4          0      25.687  39.450  36.082  1.00  0.00     0.103 C 
HETATM    5  O13         0      26.236  38.311  36.465  1.00  0.00    -0.307 OA
HETATM    6  C14         0      27.157  38.259  37.403  1.00  0.00     0.107 C 
HETATM    7  C15         0      27.443  37.083  38.082  1.00  0.00     0.049 C 
HETATM    8  C16         0      28.223  37.086  39.232  1.00  0.00     0.093 C 
HETATM    9  C18         0      29.097  38.160  39.346  1.00  0.00     0.048 C 
HETATM   10  C19         0      28.867  39.335  38.643  1.00  0.00     0.096 C 
HETATM   11  C21         0      27.779  39.431  37.819  1.00  0.00     0.084 C 
ENDROOT
BRANCH  10  12
HETATM   12  O20         0      29.462  40.515  39.077  1.00  0.00    -0.359 OA
HETATM   13  H20         0      30.402  40.604  38.973  1.00  0.00     0.218 HD
ENDBRANCH  10  12
BRANCH   4  14
HETATM   14  C5          0      24.313  39.435  35.576  1.00  0.00     0.025 C 
HETATM   15  C6          0      24.007  39.557  34.229  1.00  0.00     0.004 C 
HETATM   16  C7          0      22.957  38.789  33.734  1.00  0.00     0.026 C 
HETATM   17  C8          0      22.152  38.028  34.575  1.00  0.00     0.112 C 
HETATM   18  C10         0      22.124  38.456  35.895  1.00  0.00     0.112 C 
HETATM   19  C12         0      23.224  39.148  36.388  1.00  0.00     0.028 C 
BRANCH  17  20
HETATM   20  O9          0      21.610  36.830  34.144  1.00  0.00    -0.357 OA
HETATM   21  H9          0      22.029  35.986  34.268  1.00  0.00     0.218 HD
ENDBRANCH  17  20
BRANCH  18  22
HETATM   22  O11         0      21.195  37.853  36.732  1.00  0.00    -0.357 OA
HETATM   23  H11         0      21.046  38.264  37.576  1.00  0.00     0.218 HD
ENDBRANCH  18  22
ENDBRANCH   4  14
BRANCH   8  24
HETATM   24  O17         0      27.910  36.273  40.327  1.00  0.00    -0.359 OA
HETATM   25  H17         0      27.162  35.688  40.317  1.00  0.00     0.218 HD
ENDBRANCH   8  24
TORSDOF 5
ENDMDL
MODEL 6
REMARK VINA RESULT:      -4.1      2.745      3.809
REMARK  5 active torsions:
REMARK  status: ('A' for Active; 'I' for Inactive)
REMARK    1  A    between atoms: C4_4  and  C5_5 
REMARK    2  A    between atoms: C8_8  and  O9_9 
REMARK    3  A    between atoms: C10_11  and  O11_12 
REMARK    4  A    between atoms: C16_18  and  O17_19 
REMARK    5  A    between atoms: C19_22  and  O20_23 
ROOT
HETATM    1  O1          0      29.309  37.065  38.134  1.00  0.00    -0.286 OA
HETATM    2  C2          0      28.100  37.286  38.419  1.00  0.00     0.201 C 
HETATM    3  C3          0      27.113  37.412  37.457  1.00  0.00     0.067 C 
HETATM    4  C4          0      25.809  37.758  37.792  1.00  0.00     0.103 C 
HETATM    5  O13         0      25.510  37.948  39.065  1.00  0.00    -0.307 OA
HETATM    6  C14         0      26.417  37.877  40.015  1.00  0.00     0.107 C 
HETATM    7  C15         0      26.217  38.453  41.261  1.00  0.00     0.049 C 
HETATM    8  C16         0      27.263  38.598  42.165  1.00  0.00     0.093 C 
HETATM    9  C18         0      28.314  37.705  41.995  1.00  0.00     0.048 C 
HETATM   10  C19         0      28.515  37.076  40.774  1.00  0.00     0.096 C 
HETATM   11  C21         0      27.662  37.324  39.734  1.00  0.00     0.084 C 
ENDROOT
BRANCH  10  12
HETATM   12  O20         0      29.769  36.549  40.479  1.00  0.00    -0.359 OA
HETATM   13  H20         0      30.330  37.039  39.889  1.00  0.00     0.218 HD
ENDBRANCH  10  12
BRANCH   4  14
HETATM   14  C5          0      25.014  38.443  36.772  1.00  0.00     0.025 C 
HETATM   15  C6          0      25.427  38.564  35.453  1.00  0.00     0.004 C 
HETATM   16  C7          0      24.458  38.449  34.461  1.00  0.00     0.026 C 
HETATM   17  C8          0      23.105  38.352  34.770  1.00  0.00     0.112 C 
HETATM   18  C10         0      22.756  38.867  36.012  1.00  0.00     0.112 C 
HETATM   19  C12         0      23.721  38.891  37.012  1.00  0.00     0.028 C 
BRANCH  17  20
HETATM   20  O9          0      22.249  37.608  33.978  1.00  0.00    -0.357 OA
HETATM   21  H9          0      21.350  37.408  34.216  1.00  0.00     0.218 HD
ENDBRANCH  17  20
BRANCH  18  22
HETATM   22  O11         0      21.401  38.967  36.292  1.00  0.00    -0.357 OA
HETATM   23  H11         0      21.075  39.825  36.539  1.00  0.00     0.218 HD
ENDBRANCH  18  22
ENDBRANCH   4  14
BRANCH   8  24
HETATM   24  O17         0      27.397  39.752  42.946  1.00  0.00    -0.359 OA
HETATM   25  H17         0      26.645  40.173  43.346  1.00  0.00     0.218 HD
ENDBRANCH   8  24
TORSDOF 5
ENDMDL
MODEL 7
REMARK VINA RESULT:      -3.9      2.269      6.540
REMARK  5 active torsions:
REMARK  status: ('A' for Active; 'I' for Inactive)
REMARK    1  A    between atoms: C4_4  and  C5_5 
REMARK    2  A    between atoms: C8_8  and  O9_9 
REMARK    3  A    between atoms: C10_11  and  O11_12 
REMARK    4  A    between atoms: C16_18  and  O17_19 
REMARK    5  A    between atoms: C19_22  and  O20_23 
ROOT
HETATM    1  O1          0      25.155  42.589  36.316  1.00  0.00    -0.286 OA
HETATM    2  C2          0      24.852  41.370  36.198  1.00  0.00     0.201 C 
HETATM    3  C3          0      25.067  40.443  37.203  1.00  0.00     0.067 C 
HETATM    4  C4          0      24.819  39.088  37.011  1.00  0.00     0.103 C 
HETATM    5  O13         0      24.348  38.689  35.842  1.00  0.00    -0.307 OA
HETATM    6  C14         0      24.161  39.523  34.842  1.00  0.00     0.107 C 
HETATM    7  C15         0      24.059  39.080  33.531  1.00  0.00     0.049 C 
HETATM    8  C16         0      24.119  39.967  32.463  1.00  0.00     0.093 C 
HETATM    9  C18         0      23.752  41.273  32.764  1.00  0.00     0.048 C 
HETATM   10  C19         0      23.797  41.735  34.073  1.00  0.00     0.096 C 
HETATM   11  C21         0      24.190  40.893  35.077  1.00  0.00     0.084 C 
ENDROOT
BRANCH  10  12
HETATM   12  O20         0      23.858  43.105  34.308  1.00  0.00    -0.359 OA
HETATM   13  H20         0      23.041  43.573  34.433  1.00  0.00     0.218 HD
ENDBRANCH  10  12
BRANCH   4  14
HETATM   14  C5          0      25.594  38.144  37.818  1.00  0.00     0.025 C 
HETATM   15  C6          0      26.642  37.397  37.301  1.00  0.00     0.004 C 
HETATM   16  C7          0      27.755  37.200  38.113  1.00  0.00     0.026 C 
HETATM   17  C8          0      27.771  37.614  39.441  1.00  0.00     0.112 C 
HETATM   18  C10         0      26.517  37.755  40.020  1.00  0.00     0.112 C 
HETATM   19  C12         0      25.436  38.036  39.193  1.00  0.00     0.028 C 
BRANCH  17  20
HETATM   20  O9          0      28.944  38.046  40.033  1.00  0.00    -0.357 OA
HETATM   21  H9          0      29.032  38.225  40.963  1.00  0.00     0.218 HD
ENDBRANCH  17  20
BRANCH  18  22
HETATM   22  O11         0      26.479  37.981  41.388  1.00  0.00    -0.357 OA
HETATM   23  H11         0      25.663  38.310  41.747  1.00  0.00     0.218 HD
ENDBRANCH  18  22
ENDBRANCH   4  14
BRANCH   8  24
HETATM   24  O17         0      24.809  39.649  31.289  1.00  0.00    -0.359 OA
HETATM   25  H17         0      24.408  39.133  30.599  1.00  0.00     0.218 HD
ENDBRANCH   8  24
TORSDOF 5
ENDMDL
MODEL 8
REMARK VINA RESULT:      -3.9      5.294      7.790
REMARK  5 active torsions:
REMARK  status: ('A' for Active; 'I' for Inactive)
REMARK    1  A    between atoms: C4_4  and  C5_5 
REMARK    2  A    between atoms: C8_8  and  O9_9 
REMARK    3  A    between atoms: C10_11  and  O11_12 
REMARK    4  A    between atoms: C16_18  and  O17_19 
REMARK    5  A    between atoms: C19_22  and  O20_23 
ROOT
HETATM    1  O1          0      22.687  37.113  41.812  1.00  0.00    -0.286 OA
HETATM    2  C2          0      23.932  36.931  41.715  1.00  0.00     0.201 C 
HETATM    3  C3          0      24.712  37.572  40.767  1.00  0.00     0.067 C 
HETATM    4  C4          0      26.062  37.276  40.615  1.00  0.00     0.103 C 
HETATM    5  O13         0      26.609  36.375  41.412  1.00  0.00    -0.307 OA
HETATM    6  C14         0      25.905  35.711  42.302  1.00  0.00     0.107 C 
HETATM    7  C15         0      26.356  34.517  42.847  1.00  0.00     0.049 C 
HETATM    8  C16         0      25.511  33.696  43.584  1.00  0.00     0.093 C 
HETATM    9  C18         0      24.434  34.343  44.177  1.00  0.00     0.048 C 
HETATM   10  C19         0      23.986  35.563  43.686  1.00  0.00     0.096 C 
HETATM   11  C21         0      24.621  36.140  42.621  1.00  0.00     0.084 C 
ENDROOT
BRANCH  10  12
HETATM   12  O20         0      22.691  35.979  43.978  1.00  0.00    -0.359 OA
HETATM   13  H20         0      22.575  36.841  44.358  1.00  0.00     0.218 HD
ENDBRANCH  10  12
BRANCH   4  14
HETATM   14  C5          0      26.651  37.498  39.292  1.00  0.00     0.025 C 
HETATM   15  C6          0      26.031  38.258  38.311  1.00  0.00     0.004 C 
HETATM   16  C7          0      26.838  39.066  37.517  1.00  0.00     0.026 C 
HETATM   17  C8          0      28.225  39.022  37.603  1.00  0.00     0.112 C 
HETATM   18  C10         0      28.737  37.837  38.114  1.00  0.00     0.112 C 
HETATM   19  C12         0      27.940  37.090  38.974  1.00  0.00     0.028 C 
BRANCH  17  20
HETATM   20  O9          0      28.986  40.158  37.391  1.00  0.00    -0.357 OA
HETATM   21  H9          0      29.905  40.228  37.619  1.00  0.00     0.218 HD
ENDBRANCH  17  20
BRANCH  18  22
HETATM   22  O11         0      30.112  37.665  38.047  1.00  0.00    -0.357 OA
HETATM   23  H11         0      30.448  37.170  37.308  1.00  0.00     0.218 HD
ENDBRANCH  18  22
ENDBRANCH   4  14
BRANCH   8  24
HETATM   24  O17         0      25.552  32.303  43.455  1.00  0.00    -0.359 OA
HETATM   25  H17         0      26.153  31.875  42.856  1.00  0.00     0.218 HD
ENDBRANCH   8  24
TORSDOF 5
ENDMDL
MODEL 9
REMARK VINA RESULT:      -3.9      1.626      3.045
REMARK  5 active torsions:
REMARK  status: ('A' for Active; 'I' for Inactive)
REMARK    1  A    between atoms: C4_4  and  C5_5 
REMARK    2  A    between atoms: C8_8  and  O9_9 
REMARK    3  A    between atoms: C10_11  and  O11_12 
REMARK    4  A    between atoms: C16_18  and  O17_19 
REMARK    5  A    between atoms: C19_22  and  O20_23 
ROOT
HETATM    1  O1          0      25.174  41.801  37.201  1.00  0.00    -0.286 OA
HETATM    2  C2          0      25.113  40.751  36.504  1.00  0.00     0.201 C 
HETATM    3  C3          0      24.165  40.563  35.512  1.00  0.00     0.067 C 
HETATM    4  C4          0      24.055  39.357  34.830  1.00  0.00     0.103 C 
HETATM    5  O13         0      24.893  38.379  35.128  1.00  0.00    -0.307 OA
HETATM    6  C14         0      25.786  38.493  36.086  1.00  0.00     0.107 C 
HETATM    7  C15         0      26.379  37.381  36.668  1.00  0.00     0.049 C 
HETATM    8  C16         0      27.120  37.489  37.838  1.00  0.00     0.093 C 
HETATM    9  C18         0      27.666  38.744  38.074  1.00  0.00     0.048 C 
HETATM   10  C19         0      27.127  39.873  37.471  1.00  0.00     0.096 C 
HETATM   11  C21         0      26.060  39.745  36.624  1.00  0.00     0.084 C 
ENDROOT
BRANCH  10  12
HETATM   12  O20         0      27.374  41.124  38.026  1.00  0.00    -0.359 OA
HETATM   13  H20         0      28.000  41.180  38.738  1.00  0.00     0.218 HD
ENDBRANCH  10  12
BRANCH   4  14
HETATM   14  C5          0      22.741  39.016  34.280  1.00  0.00     0.025 C 
HETATM   15  C6          0      22.170  39.701  33.218  1.00  0.00     0.004 C 
HETATM   16  C7          0      21.457  38.959  32.281  1.00  0.00     0.026 C 
HETATM   17  C8          0      21.205  37.603  32.463  1.00  0.00     0.112 C 
HETATM   18  C10         0      21.248  37.178  33.784  1.00  0.00     0.112 C 
HETATM   19  C12         0      22.036  37.888  34.682  1.00  0.00     0.028 C 
BRANCH  17  20
HETATM   20  O9          0      21.135  36.744  31.381  1.00  0.00    -0.357 OA
HETATM   21  H9          0      21.070  37.035  30.479  1.00  0.00     0.218 HD
ENDBRANCH  17  20
BRANCH  18  22
HETATM   22  O11         0      20.821  35.883  34.042  1.00  0.00    -0.357 OA
HETATM   23  H11         0      20.539  35.367  33.295  1.00  0.00     0.218 HD
ENDBRANCH  18  22
ENDBRANCH   4  14
BRANCH   8  24
HETATM   24  O17         0      27.035  36.522  38.847  1.00  0.00    -0.359 OA
HETATM   25  H17         0      26.644  35.671  38.691  1.00  0.00     0.218 HD
ENDBRANCH   8  24
TORSDOF 5
ENDMDL
