MODEL 1
REMARK VINA RESULT:      -4.7      0.000      0.000
REMARK  5 active torsions:
REMARK  status: ('A' for Active; 'I' for Inactive)
REMARK    1  A    between atoms: C4_4  and  C5_5 
REMARK    2  A    between atoms: C8_8  and  O9_9 
REMARK    3  A    between atoms: C10_11  and  O11_12 
REMARK    4  A    between atoms: C16_18  and  O17_19 
REMARK    5  A    between atoms: C19_22  and  O20_23 
ROOT
HETATM    1  O1          0      19.325  33.337  -4.138  1.00  0.00    -0.286 OA
HETATM    2  C2          0      19.585  33.189  -2.912  1.00  0.00     0.201 C 
HETATM    3  C3          0      20.862  32.934  -2.442  1.00  0.00     0.067 C 
HETATM    4  C4          0      21.105  32.673  -1.098  1.00  0.00     0.103 C 
HETATM    5  O13         0      20.089  32.692  -0.254  1.00  0.00    -0.307 OA
HETATM    6  C14         0      18.852  32.892  -0.654  1.00  0.00     0.107 C 
HETATM    7  C15         0      17.764  32.525   0.125  1.00  0.00     0.049 C 
HETATM    8  C16         0      16.477  32.501  -0.399  1.00  0.00     0.093 C 
HETATM    9  C18         0      16.273  33.334  -1.492  1.00  0.00     0.048 C 
HETATM   10  C19         0      17.345  33.759  -2.265  1.00  0.00     0.096 C 
HETATM   11  C21         0      18.615  33.368  -1.939  1.00  0.00     0.084 C 
ENDROOT
BRANCH  10  12
HETATM   12  O20         0      17.113  34.205  -3.563  1.00  0.00    -0.359 OA
HETATM   13  H20         0      17.865  34.426  -4.099  1.00  0.00     0.218 HD
ENDBRANCH  10  12
BRANCH   4  14
HETATM   14  C5          0      22.274  31.853  -0.776  1.00  0.00     0.025 C 
HETATM   15  C6          0      22.318  30.485  -1.002  1.00  0.00     0.004 C 
HETATM   16  C7          0      23.519  29.944  -1.450  1.00  0.00     0.026 C 
HETATM   17  C8          0      24.676  30.711  -1.540  1.00  0.00     0.112 C 
HETATM   18  C10         0      24.693  31.833  -0.722  1.00  0.00     0.112 C 
HETATM   19  C12         0      23.479  32.404  -0.360  1.00  0.00     0.028 C 
BRANCH  17  20
HETATM   20  O9          0      25.614  30.465  -2.527  1.00  0.00    -0.357 OA
HETATM   21  H9          0      26.249  29.759  -2.488  1.00  0.00     0.218 HD
ENDBRANCH  17  20
BRANCH  18  22
HETATM   22  O11         0      25.891  32.526  -0.632  1.00  0.00    -0.357 OA
HETATM   23  H11         0      26.036  33.219  -1.266  1.00  0.00     0.218 HD
ENDBRANCH  18  22
ENDBRANCH   4  14
BRANCH   8  24
HETATM   24  O17         0      15.575  31.483  -0.071  1.00  0.00    -0.359 OA
HETATM   25  H17         0      14.795  31.653   0.444  1.00  0.00     0.218 HD
ENDBRANCH   8  24
TORSDOF 5
ENDMDL
MODEL 2
REMARK VINA RESULT:      -4.7      3.622      6.065
REMARK  5 active torsions:
REMARK  status: ('A' for Active; 'I' for Inactive)
REMARK    1  A    between atoms: C4_4  and  C5_5 
REMARK    2  A    between atoms: C8_8  and  O9_9 
REMARK    3  A    between atoms: C10_11  and  O11_12 
REMARK    4  A    between atoms: C16_18  and  O17_19 
REMARK    5  A    between atoms: C19_22  and  O20_23 
ROOT
HETATM    1  O1          0      25.173  31.365  -0.737  1.00  0.00    -0.286 OA
HETATM    2  C2          0      24.692  31.198  -1.892  1.00  0.00     0.201 C 
HETATM    3  C3          0      25.376  30.543  -2.902  1.00  0.00     0.067 C 
HETATM    4  C4          0      24.867  30.463  -4.193  1.00  0.00     0.103 C 
HETATM    5  O13         0      23.693  31.013  -4.448  1.00  0.00    -0.307 OA
HETATM    6  C14         0      23.020  31.679  -3.535  1.00  0.00     0.107 C 
HETATM    7  C15         0      22.019  32.577  -3.875  1.00  0.00     0.049 C 
HETATM    8  C16         0      21.491  33.459  -2.939  1.00  0.00     0.093 C 
HETATM    9  C18         0      21.609  33.050  -1.616  1.00  0.00     0.048 C 
HETATM   10  C19         0      22.570  32.118  -1.249  1.00  0.00     0.096 C 
HETATM   11  C21         0      23.397  31.584  -2.200  1.00  0.00     0.084 C 
ENDROOT
BRANCH  10  12
HETATM   12  O20         0      22.971  32.043   0.081  1.00  0.00    -0.359 OA
HETATM   13  H20         0      22.398  31.598   0.695  1.00  0.00     0.218 HD
ENDBRANCH  10  12
BRANCH   4  14
HETATM   14  C5          0      25.832  30.325  -5.286  1.00  0.00     0.025 C 
HETATM   15  C6          0      25.577  30.769  -6.575  1.00  0.00     0.004 C 
HETATM   16  C7          0      26.630  31.345  -7.278  1.00  0.00     0.026 C 
HETATM   17  C8          0      27.925  31.359  -6.770  1.00  0.00     0.112 C 
HETATM   18  C10         0      28.189  30.374  -5.829  1.00  0.00     0.112 C 
HETATM   19  C12         0      27.130  29.875  -5.080  1.00  0.00     0.028 C 
BRANCH  17  20
HETATM   20  O9          0      28.782  32.411  -7.044  1.00  0.00    -0.357 OA
HETATM   21  H9          0      29.527  32.640  -6.500  1.00  0.00     0.218 HD
ENDBRANCH  17  20
BRANCH  18  22
HETATM   22  O11         0      29.510  30.223  -5.431  1.00  0.00    -0.357 OA
HETATM   23  H11         0      30.036  31.012  -5.378  1.00  0.00     0.218 HD
ENDBRANCH  18  22
ENDBRANCH   4  14
BRANCH   8  24
HETATM   24  O17         0      21.184  34.782  -3.276  1.00  0.00    -0.359 OA
HETATM   25  H17         0      21.862  35.431  -3.421  1.00  0.00     0.218 HD
ENDBRANCH   8  24
TORSDOF 5
ENDMDL
MODEL 3
REMARK VINA RESULT:      -4.5      3.984      7.781
REMARK  5 active torsions:
REMARK  status: ('A' for Active; 'I' for Inactive)
REMARK    1  A    between atoms: C4_4  and  C5_5 
REMARK    2  A    between atoms: C8_8  and  O9_9 
REMARK    3  A    between atoms: C10_11  and  O11_12 
REMARK    4  A    between atoms: C16_18  and  O17_19 
REMARK    5  A    between atoms: C19_22  and  O20_23 
ROOT
HETATM    1  O1          0      23.007  30.855  -6.563  1.00  0.00    -0.286 OA
HETATM    2  C2          0      23.860  30.491  -5.708  1.00  0.00     0.201 C 
HETATM    3  C3          0      23.545  30.284  -4.376  1.00  0.00     0.067 C 
HETATM    4  C4          0      24.523  29.984  -3.434  1.00  0.00     0.103 C 
HETATM    5  O13         0      25.778  29.876  -3.835  1.00  0.00    -0.307 OA
HETATM    6  C14         0      26.136  30.099  -5.081  1.00  0.00     0.107 C 
HETATM    7  C15         0      27.450  30.380  -5.424  1.00  0.00     0.049 C 
HETATM    8  C16         0      27.779  30.863  -6.685  1.00  0.00     0.093 C 
HETATM    9  C18         0      26.873  30.544  -7.690  1.00  0.00     0.048 C 
HETATM   10  C19         0      25.562  30.212  -7.378  1.00  0.00     0.096 C 
HETATM   11  C21         0      25.162  30.182  -6.070  1.00  0.00     0.084 C 
ENDROOT
BRANCH  10  12
HETATM   12  O20         0      24.580  30.325  -8.358  1.00  0.00    -0.359 OA
HETATM   13  H20         0      24.849  30.259  -9.266  1.00  0.00     0.218 HD
ENDBRANCH  10  12
BRANCH   4  14
HETATM   14  C5          0      24.257  30.366  -2.047  1.00  0.00     0.025 C 
HETATM   15  C6          0      25.156  31.096  -1.282  1.00  0.00     0.004 C 
HETATM   16  C7          0      24.637  32.055  -0.418  1.00  0.00     0.026 C 
HETATM   17  C8          0      23.268  32.194  -0.220  1.00  0.00     0.112 C 
HETATM   18  C10         0      22.522  31.059  -0.509  1.00  0.00     0.112 C 
HETATM   19  C12         0      23.025  30.158  -1.440  1.00  0.00     0.028 C 
BRANCH  17  20
HETATM   20  O9          0      22.711  33.434   0.037  1.00  0.00    -0.357 OA
HETATM   21  H9          0      23.084  34.254  -0.267  1.00  0.00     0.218 HD
ENDBRANCH  17  20
BRANCH  18  22
HETATM   22  O11         0      21.182  31.080  -0.152  1.00  0.00    -0.357 OA
HETATM   23  H11         0      20.810  30.268   0.173  1.00  0.00     0.218 HD
ENDBRANCH  18  22
ENDBRANCH   4  14
BRANCH   8  24
HETATM   24  O17         0      28.747  31.859  -6.856  1.00  0.00    -0.359 OA
HETATM   25  H17         0      28.673  32.514  -7.539  1.00  0.00     0.218 HD
ENDBRANCH   8  24
TORSDOF 5
ENDMDL
MODEL 4
REMARK VINA RESULT:      -4.5      2.401      6.815
REMARK  5 active torsions:
REMARK  status: ('A' for Active; 'I' for Inactive)
REMARK    1  A    between atoms: C4_4  and  C5_5 
REMARK    2  A    between atoms: C8_8  and  O9_9 
REMARK    3  A    between atoms: C10_11  and  O11_12 
REMARK    4  A    between atoms: C16_18  and  O17_19 
REMARK    5  A    between atoms: C19_22  and  O20_23 
ROOT
HETATM    1  O1          0      24.255  30.177  -4.925  1.00  0.00    -0.286 OA
HETATM    2  C2          0      23.353  30.149  -4.043  1.00  0.00     0.201 C 
HETATM    3  C3          0      22.027  29.875  -4.333  1.00  0.00     0.067 C 
HETATM    4  C4          0      21.037  29.952  -3.360  1.00  0.00     0.103 C 
HETATM    5  O13         0      21.383  30.276  -2.127  1.00  0.00    -0.307 OA
HETATM    6  C14         0      22.621  30.582  -1.806  1.00  0.00     0.107 C 
HETATM    7  C15         0      22.923  31.293  -0.653  1.00  0.00     0.049 C 
HETATM    8  C16         0      24.187  31.832  -0.448  1.00  0.00     0.093 C 
HETATM    9  C18         0      25.214  31.199  -1.137  1.00  0.00     0.048 C 
HETATM   10  C19         0      24.942  30.440  -2.267  1.00  0.00     0.096 C 
HETATM   11  C21         0      23.651  30.301  -2.697  1.00  0.00     0.084 C 
ENDROOT
BRANCH  10  12
HETATM   12  O20         0      25.964  30.185  -3.177  1.00  0.00    -0.359 OA
HETATM   13  H20         0      25.805  29.540  -3.855  1.00  0.00     0.218 HD
ENDBRANCH  10  12
BRANCH   4  14
HETATM   14  C5          0      19.677  30.248  -3.811  1.00  0.00     0.025 C 
HETATM   15  C6          0      18.552  29.942  -3.059  1.00  0.00     0.004 C 
HETATM   16  C7          0      17.502  30.855  -3.069  1.00  0.00     0.026 C 
HETATM   17  C8          0      17.511  31.969  -3.902  1.00  0.00     0.112 C 
HETATM   18  C10         0      18.324  31.849  -5.021  1.00  0.00     0.112 C 
HETATM   19  C12         0      19.417  30.993  -4.955  1.00  0.00     0.028 C 
BRANCH  17  20
HETATM   20  O9          0      16.919  33.155  -3.506  1.00  0.00    -0.357 OA
HETATM   21  H9          0      17.263  34.014  -3.720  1.00  0.00     0.218 HD
ENDBRANCH  17  20
BRANCH  18  22
HETATM   22  O11         0      18.226  32.848  -5.978  1.00  0.00    -0.357 OA
HETATM   23  H11         0      17.376  32.976  -6.382  1.00  0.00     0.218 HD
ENDBRANCH  18  22
ENDBRANCH   4  14
BRANCH   8  24
HETATM   24  O17         0      24.356  33.098   0.124  1.00  0.00    -0.359 OA
HETATM   25  H17         0      24.637  33.845  -0.391  1.00  0.00     0.218 HD
ENDBRANCH   8  24
TORSDOF 5
ENDMDL
MODEL 5
REMARK VINA RESULT:      -4.5      3.813      6.145
REMARK  5 active torsions:
REMARK  status: ('A' for Active; 'I' for Inactive)
REMARK    1  A    between atoms: C4_4  and  C5_5 
REMARK    2  A    between atoms: C8_8  and  O9_9 
REMARK    3  A    between atoms: C10_11  and  O11_12 
REMARK    4  A    between atoms: C16_18  and  O17_19 
REMARK    5  A    between atoms: C19_22  and  O20_23 
ROOT
HETATM    1  O1          0      19.829  31.578  -2.667  1.00  0.00    -0.286 OA
HETATM    2  C2          0      20.916  32.183  -2.875  1.00  0.00     0.201 C 
HETATM    3  C3          0      21.127  32.991  -3.979  1.00  0.00     0.067 C 
HETATM    4  C4          0      22.367  33.564  -4.237  1.00  0.00     0.103 C 
HETATM    5  O13         0      23.357  33.342  -3.391  1.00  0.00    -0.307 OA
HETATM    6  C14         0      23.222  32.553  -2.348  1.00  0.00     0.107 C 
HETATM    7  C15         0      24.318  32.002  -1.701  1.00  0.00     0.049 C 
HETATM    8  C16         0      24.169  30.979  -0.772  1.00  0.00     0.093 C 
HETATM    9  C18         0      22.925  30.921  -0.157  1.00  0.00     0.048 C 
HETATM   10  C19         0      21.815  31.503  -0.755  1.00  0.00     0.096 C 
HETATM   11  C21         0      21.950  32.152  -1.951  1.00  0.00     0.084 C 
ENDROOT
BRANCH  10  12
HETATM   12  O20         0      20.542  31.081  -0.382  1.00  0.00    -0.359 OA
HETATM   13  H20         0      19.799  31.437  -0.854  1.00  0.00     0.218 HD
ENDBRANCH  10  12
BRANCH   4  14
HETATM   14  C5          0      22.687  33.866  -5.634  1.00  0.00     0.025 C 
HETATM   15  C6          0      21.870  34.643  -6.442  1.00  0.00     0.004 C 
HETATM   16  C7          0      22.486  35.517  -7.331  1.00  0.00     0.026 C 
HETATM   17  C8          0      23.865  35.525  -7.509  1.00  0.00     0.112 C 
HETATM   18  C10         0      24.500  34.339  -7.164  1.00  0.00     0.112 C 
HETATM   19  C12         0      23.904  33.524  -6.209  1.00  0.00     0.028 C 
BRANCH  17  20
HETATM   20  O9          0      24.535  36.699  -7.803  1.00  0.00    -0.357 OA
HETATM   21  H9          0      24.438  37.501  -7.303  1.00  0.00     0.218 HD
ENDBRANCH  17  20
BRANCH  18  22
HETATM   22  O11         0      25.843  34.226  -7.497  1.00  0.00    -0.357 OA
HETATM   23  H11         0      26.079  33.529  -8.099  1.00  0.00     0.218 HD
ENDBRANCH  18  22
ENDBRANCH   4  14
BRANCH   8  24
HETATM   24  O17         0      25.068  29.908  -0.717  1.00  0.00    -0.359 OA
HETATM   25  H17         0      24.928  29.169  -0.137  1.00  0.00     0.218 HD
ENDBRANCH   8  24
TORSDOF 5
ENDMDL
MODEL 6
REMARK VINA RESULT:      -4.5      1.749      6.591
REMARK  5 active torsions:
REMARK  status: ('A' for Active; 'I' for Inactive)
REMARK    1  A    between atoms: C4_4  and  C5_5 
REMARK    2  A    between atoms: C8_8  and  O9_9 
REMARK    3  A    between atoms: C10_11  and  O11_12 
REMARK    4  A    between atoms: C16_18  and  O17_19 
REMARK    5  A    between atoms: C19_22  and  O20_23 
ROOT
HETATM    1  O1          0      22.190  30.564  -4.745  1.00  0.00    -0.286 OA
HETATM    2  C2          0      21.903  30.655  -3.519  1.00  0.00     0.201 C 
HETATM    3  C3          0      20.604  30.782  -3.060  1.00  0.00     0.067 C 
HETATM    4  C4          0      20.323  30.984  -1.713  1.00  0.00     0.103 C 
HETATM    5  O13         0      21.328  31.034  -0.856  1.00  0.00    -0.307 OA
HETATM    6  C14         0      22.582  30.956  -1.244  1.00  0.00     0.107 C 
HETATM    7  C15         0      23.624  31.399  -0.442  1.00  0.00     0.049 C 
HETATM    8  C16         0      24.909  31.552  -0.948  1.00  0.00     0.093 C 
HETATM    9  C18         0      25.200  30.770  -2.059  1.00  0.00     0.048 C 
HETATM   10  C19         0      24.179  30.271  -2.857  1.00  0.00     0.096 C 
HETATM   11  C21         0      22.876  30.538  -2.538  1.00  0.00     0.084 C 
ENDROOT
BRANCH  10  12
HETATM   12  O20         0      24.464  29.882  -4.162  1.00  0.00    -0.359 OA
HETATM   13  H20         0      25.039  29.137  -4.289  1.00  0.00     0.218 HD
ENDBRANCH  10  12
BRANCH   4  14
HETATM   14  C5          0      19.082  31.687  -1.385  1.00  0.00     0.025 C 
HETATM   15  C6          0      18.724  32.015  -0.085  1.00  0.00     0.004 C 
HETATM   16  C7          0      18.102  33.242   0.122  1.00  0.00     0.026 C 
HETATM   17  C8          0      17.725  34.057  -0.940  1.00  0.00     0.112 C 
HETATM   18  C10         0      17.543  33.393  -2.146  1.00  0.00     0.112 C 
HETATM   19  C12         0      18.244  32.211  -2.361  1.00  0.00     0.028 C 
BRANCH  17  20
HETATM   20  O9          0      17.749  35.435  -0.819  1.00  0.00    -0.357 OA
HETATM   21  H9          0      18.184  36.012  -1.436  1.00  0.00     0.218 HD
ENDBRANCH  17  20
BRANCH  18  22
HETATM   22  O11         0      16.987  34.121  -3.187  1.00  0.00    -0.357 OA
HETATM   23  H11         0      17.520  34.231  -3.967  1.00  0.00     0.218 HD
ENDBRANCH  18  22
ENDBRANCH   4  14
BRANCH   8  24
HETATM   24  O17         0      25.712  32.638  -0.582  1.00  0.00    -0.359 OA
HETATM   25  H17         0      26.651  32.549  -0.468  1.00  0.00     0.218 HD
ENDBRANCH   8  24
TORSDOF 5
ENDMDL
MODEL 7
REMARK VINA RESULT:      -4.4      4.505      7.461
REMARK  5 active torsions:
REMARK  status: ('A' for Active; 'I' for Inactive)
REMARK    1  A    between atoms: C4_4  and  C5_5 
REMARK    2  A    between atoms: C8_8  and  O9_9 
REMARK    3  A    between atoms: C10_11  and  O11_12 
REMARK    4  A    between atoms: C16_18  and  O17_19 
REMARK    5  A    between atoms: C19_22  and  O20_23 
ROOT
HETATM    1  O1          0      22.100  32.239  -7.064  1.00  0.00    -0.286 OA
HETATM    2  C2          0      23.120  31.706  -6.546  1.00  0.00     0.201 C 
HETATM    3  C3          0      23.060  30.922  -5.407  1.00  0.00     0.067 C 
HETATM    4  C4          0      24.210  30.432  -4.799  1.00  0.00     0.103 C 
HETATM    5  O13         0      25.383  30.711  -5.340  1.00  0.00    -0.307 OA
HETATM    6  C14         0      25.498  31.482  -6.400  1.00  0.00     0.107 C 
HETATM    7  C15         0      26.697  32.097  -6.729  1.00  0.00     0.049 C 
HETATM    8  C16         0      26.753  33.101  -7.688  1.00  0.00     0.093 C 
HETATM    9  C18         0      25.729  33.074  -8.627  1.00  0.00     0.048 C 
HETATM   10  C19         0      24.533  32.427  -8.348  1.00  0.00     0.096 C 
HETATM   11  C21         0      24.367  31.797  -7.145  1.00  0.00     0.084 C 
ENDROOT
BRANCH  10  12
HETATM   12  O20         0      23.393  32.763  -9.071  1.00  0.00    -0.359 OA
HETATM   13  H20         0      23.407  32.631 -10.012  1.00  0.00     0.218 HD
ENDBRANCH  10  12
BRANCH   4  14
HETATM   14  C5          0      24.145  30.162  -3.361  1.00  0.00     0.025 C 
HETATM   15  C6          0      25.260  30.201  -2.537  1.00  0.00     0.004 C 
HETATM   16  C7          0      25.098  30.729  -1.260  1.00  0.00     0.026 C 
HETATM   17  C8          0      23.846  31.081  -0.769  1.00  0.00     0.112 C 
HETATM   18  C10         0      22.780  30.436  -1.382  1.00  0.00     0.112 C 
HETATM   19  C12         0      22.940  29.994  -2.690  1.00  0.00     0.028 C 
BRANCH  17  20
HETATM   20  O9          0      23.700  32.143   0.106  1.00  0.00    -0.357 OA
HETATM   21  H9          0      22.861  32.444   0.436  1.00  0.00     0.218 HD
ENDBRANCH  17  20
BRANCH  18  22
HETATM   22  O11         0      21.528  30.606  -0.809  1.00  0.00    -0.357 OA
HETATM   23  H11         0      21.365  31.432  -0.369  1.00  0.00     0.218 HD
ENDBRANCH  18  22
ENDBRANCH   4  14
BRANCH   8  24
HETATM   24  O17         0      27.566  34.228  -7.517  1.00  0.00    -0.359 OA
HETATM   25  H17         0      28.496  34.151  -7.341  1.00  0.00     0.218 HD
ENDBRANCH   8  24
TORSDOF 5
ENDMDL
MODEL 8
REMARK VINA RESULT:      -4.3      2.779      4.483
REMARK  5 active torsions:
REMARK  status: ('A' for Active; 'I' for Inactive)
REMARK    1  A    between atoms: C4_4  and  C5_5 
REMARK    2  A    between atoms: C8_8  and  O9_9 
REMARK    3  A    between atoms: C10_11  and  O11_12 
REMARK    4  A    between atoms: C16_18  and  O17_19 
REMARK    5  A    between atoms: C19_22  and  O20_23 
ROOT
HETATM    1  O1          0      19.548  36.192  -2.510  1.00  0.00    -0.286 OA
HETATM    2  C2          0      20.164  35.178  -2.939  1.00  0.00     0.201 C 
HETATM    3  C3          0      20.523  34.118  -2.124  1.00  0.00     0.067 C 
HETATM    4  C4          0      21.291  33.061  -2.599  1.00  0.00     0.103 C 
HETATM    5  O13         0      21.664  33.067  -3.867  1.00  0.00    -0.307 OA
HETATM    6  C14         0      21.382  34.067  -4.674  1.00  0.00     0.107 C 
HETATM    7  C15         0      22.085  34.277  -5.851  1.00  0.00     0.049 C 
HETATM    8  C16         0      21.960  35.463  -6.564  1.00  0.00     0.093 C 
HETATM    9  C18         0      20.768  36.148  -6.360  1.00  0.00     0.048 C 
HETATM   10  C19         0      20.015  35.927  -5.215  1.00  0.00     0.096 C 
HETATM   11  C21         0      20.441  35.016  -4.287  1.00  0.00     0.084 C 
ENDROOT
BRANCH  10  12
HETATM   12  O20         0      19.096  36.890  -4.809  1.00  0.00    -0.359 OA
HETATM   13  H20         0      18.669  36.771  -3.969  1.00  0.00     0.218 HD
ENDBRANCH  10  12
BRANCH   4  14
HETATM   14  C5          0      22.113  32.339  -1.626  1.00  0.00     0.025 C 
HETATM   15  C6          0      21.869  31.021  -1.267  1.00  0.00     0.004 C 
HETATM   16  C7          0      22.969  30.196  -1.058  1.00  0.00     0.026 C 
HETATM   17  C8          0      24.268  30.694  -1.073  1.00  0.00     0.112 C 
HETATM   18  C10         0      24.371  32.053  -0.806  1.00  0.00     0.112 C 
HETATM   19  C12         0      23.286  32.868  -1.104  1.00  0.00     0.028 C 
BRANCH  17  20
HETATM   20  O9          0      25.319  29.919  -1.529  1.00  0.00    -0.357 OA
HETATM   21  H9          0      26.212  30.004  -1.216  1.00  0.00     0.218 HD
ENDBRANCH  17  20
BRANCH  18  22
HETATM   22  O11         0      25.648  32.562  -0.622  1.00  0.00    -0.357 OA
HETATM   23  H11         0      25.714  33.440  -0.265  1.00  0.00     0.218 HD
ENDBRANCH  18  22
ENDBRANCH   4  14
BRANCH   8  24
HETATM   24  O17         0      23.068  36.076  -7.161  1.00  0.00    -0.359 OA
HETATM   25  H17         0      23.348  36.949  -6.915  1.00  0.00     0.218 HD
ENDBRANCH   8  24
TORSDOF 5
ENDMDL
MODEL 9
REMARK VINA RESULT:      -4.2      5.402      8.667
REMARK  5 active torsions:
REMARK  status: ('A' for Active; 'I' for Inactive)
REMARK    1  A    between atoms: C4_4  and  C5_5 
REMARK    2  A    between atoms: C8_8  and  O9_9 
REMARK    3  A    between atoms: C10_11  and  O11_12 
REMARK    4  A    between atoms: C16_18  and  O17_19 
REMARK    5  A    between atoms: C19_22  and  O20_23 
ROOT
HETATM    1  O1          0      24.039  33.218  -8.515  1.00  0.00    -0.286 OA
HETATM    2  C2          0      24.665  32.458  -7.725  1.00  0.00     0.201 C 
HETATM    3  C3          0      24.096  31.938  -6.575  1.00  0.00     0.067 C 
HETATM    4  C4          0      24.838  31.188  -5.670  1.00  0.00     0.103 C 
HETATM    5  O13         0      26.111  30.953  -5.933  1.00  0.00    -0.307 OA
HETATM    6  C14         0      26.710  31.454  -6.992  1.00  0.00     0.107 C 
HETATM    7  C15         0      28.091  31.555  -7.070  1.00  0.00     0.049 C 
HETATM    8  C16         0      28.704  32.308  -8.065  1.00  0.00     0.093 C 
HETATM    9  C18         0      27.949  32.483  -9.218  1.00  0.00     0.048 C 
HETATM   10  C19         0      26.568  32.344  -9.184  1.00  0.00     0.096 C 
HETATM   11  C21         0      25.947  32.013  -8.011  1.00  0.00     0.084 C 
ENDROOT
BRANCH  10  12
HETATM   12  O20         0      25.800  32.930 -10.186  1.00  0.00    -0.359 OA
HETATM   13  H20         0      25.449  32.367 -10.865  1.00  0.00     0.218 HD
ENDBRANCH  10  12
BRANCH   4  14
HETATM   14  C5          0      24.396  31.194  -4.274  1.00  0.00     0.025 C 
HETATM   15  C6          0      24.811  30.247  -3.350  1.00  0.00     0.004 C 
HETATM   16  C7          0      25.063  30.679  -2.051  1.00  0.00     0.026 C 
HETATM   17  C8          0      24.783  31.981  -1.649  1.00  0.00     0.112 C 
HETATM   18  C10         0      23.822  32.630  -2.413  1.00  0.00     0.112 C 
HETATM   19  C12         0      23.650  32.234  -3.734  1.00  0.00     0.028 C 
BRANCH  17  20
HETATM   20  O9          0      25.568  32.614  -0.702  1.00  0.00    -0.357 OA
HETATM   21  H9          0      26.018  33.437  -0.855  1.00  0.00     0.218 HD
ENDBRANCH  17  20
BRANCH  18  22
HETATM   22  O11         0      23.369  33.855  -1.944  1.00  0.00    -0.357 OA
HETATM   23  H11         0      23.205  33.925  -1.011  1.00  0.00     0.218 HD
ENDBRANCH  18  22
ENDBRANCH   4  14
BRANCH   8  24
HETATM   24  O17         0      29.828  33.097  -7.794  1.00  0.00    -0.359 OA
HETATM   25  H17         0      29.967  33.491  -6.941  1.00  0.00     0.218 HD
ENDBRANCH   8  24
TORSDOF 5
ENDMDL
