MODEL 1
REMARK VINA RESULT:      -6.9      0.000      0.000
REMARK  5 active torsions:
REMARK  status: ('A' for Active; 'I' for Inactive)
REMARK    1  A    between atoms: C4_4  and  C5_5 
REMARK    2  A    between atoms: C8_8  and  O9_9 
REMARK    3  A    between atoms: C10_11  and  O11_12 
REMARK    4  A    between atoms: C16_18  and  O17_19 
REMARK    5  A    between atoms: C19_22  and  O20_23 
ROOT
HETATM    1  O1          0       6.535  77.458 -17.104  1.00  0.00    -0.286 OA
HETATM    2  C2          0       5.387  77.896 -16.815  1.00  0.00     0.201 C 
HETATM    3  C3          0       4.851  77.812 -15.542  1.00  0.00     0.067 C 
HETATM    4  C4          0       3.545  78.209 -15.274  1.00  0.00     0.103 C 
HETATM    5  O13         0       2.814  78.695 -16.261  1.00  0.00    -0.307 OA
HETATM    6  C14         0       3.262  78.761 -17.496  1.00  0.00     0.107 C 
HETATM    7  C15         0       2.404  78.882 -18.579  1.00  0.00     0.049 C 
HETATM    8  C16         0       2.854  78.695 -19.881  1.00  0.00     0.093 C 
HETATM    9  C18         0       4.213  78.917 -20.069  1.00  0.00     0.048 C 
HETATM   10  C19         0       5.094  78.851 -18.998  1.00  0.00     0.096 C 
HETATM   11  C21         0       4.618  78.580 -17.744  1.00  0.00     0.084 C 
ENDROOT
BRANCH  10  12
HETATM   12  O20         0       6.447  78.638 -19.243  1.00  0.00    -0.359 OA
HETATM   13  H20         0       6.755  77.742 -19.293  1.00  0.00     0.218 HD
ENDBRANCH  10  12
BRANCH   4  14
HETATM   14  C5          0       2.869  77.567 -14.145  1.00  0.00     0.025 C 
HETATM   15  C6          0       3.269  76.345 -13.625  1.00  0.00     0.004 C 
HETATM   16  C7          0       3.208  76.181 -12.245  1.00  0.00     0.026 C 
HETATM   17  C8          0       2.644  77.147 -11.420  1.00  0.00     0.112 C 
HETATM   18  C10         0       1.737  77.989 -12.049  1.00  0.00     0.112 C 
HETATM   19  C12         0       1.872  78.202 -13.416  1.00  0.00     0.028 C 
BRANCH  17  20
HETATM   20  O9          0       3.128  77.358 -10.141  1.00  0.00    -0.357 OA
HETATM   21  H9          0       2.689  77.058  -9.354  1.00  0.00     0.218 HD
ENDBRANCH  17  20
BRANCH  18  22
HETATM   22  O11         0       1.006  78.845 -11.237  1.00  0.00    -0.357 OA
HETATM   23  H11         0       0.296  78.460 -10.736  1.00  0.00     0.218 HD
ENDBRANCH  18  22
ENDBRANCH   4  14
BRANCH   8  24
HETATM   24  O17         0       2.080  78.018 -20.830  1.00  0.00    -0.359 OA
HETATM   25  H17         0       2.438  77.309 -21.351  1.00  0.00     0.218 HD
ENDBRANCH   8  24
TORSDOF 5
ENDMDL
MODEL 2
REMARK VINA RESULT:      -6.8      3.337      5.052
REMARK  5 active torsions:
REMARK  status: ('A' for Active; 'I' for Inactive)
REMARK    1  A    between atoms: C4_4  and  C5_5 
REMARK    2  A    between atoms: C8_8  and  O9_9 
REMARK    3  A    between atoms: C10_11  and  O11_12 
REMARK    4  A    between atoms: C16_18  and  O17_19 
REMARK    5  A    between atoms: C19_22  and  O20_23 
ROOT
HETATM    1  O1          0       1.408  78.928 -16.267  1.00  0.00    -0.286 OA
HETATM    2  C2          0       2.134  78.590 -15.293  1.00  0.00     0.201 C 
HETATM    3  C3          0       2.186  77.293 -14.810  1.00  0.00     0.067 C 
HETATM    4  C4          0       2.915  76.968 -13.672  1.00  0.00     0.103 C 
HETATM    5  O13         0       3.588  77.923 -13.055  1.00  0.00    -0.307 OA
HETATM    6  C14         0       3.544  79.176 -13.450  1.00  0.00     0.107 C 
HETATM    7  C15         0       3.900  80.221 -12.609  1.00  0.00     0.049 C 
HETATM    8  C16         0       3.613  81.540 -12.935  1.00  0.00     0.093 C 
HETATM    9  C18         0       3.464  81.790 -14.294  1.00  0.00     0.048 C 
HETATM   10  C19         0       3.154  80.760 -15.171  1.00  0.00     0.096 C 
HETATM   11  C21         0       3.009  79.485 -14.696  1.00  0.00     0.084 C 
ENDROOT
BRANCH  10  12
HETATM   12  O20         0       2.589  81.064 -16.406  1.00  0.00    -0.359 OA
HETATM   13  H20         0       2.307  81.958 -16.558  1.00  0.00     0.218 HD
ENDBRANCH  10  12
BRANCH   4  14
HETATM   14  C5          0       2.467  75.809 -12.898  1.00  0.00     0.025 C 
HETATM   15  C6          0       1.312  75.102 -13.202  1.00  0.00     0.004 C 
HETATM   16  C7          0       1.345  73.719 -13.053  1.00  0.00     0.026 C 
HETATM   17  C8          0       2.441  73.071 -12.493  1.00  0.00     0.112 C 
HETATM   18  C10         0       3.226  73.867 -11.670  1.00  0.00     0.112 C 
HETATM   19  C12         0       3.241  75.239 -11.896  1.00  0.00     0.028 C 
BRANCH  17  20
HETATM   20  O9          0       2.806  71.805 -12.913  1.00  0.00    -0.357 OA
HETATM   21  H9          0       2.601  71.010 -12.434  1.00  0.00     0.218 HD
ENDBRANCH  17  20
BRANCH  18  22
HETATM   22  O11         0       4.218  73.229 -10.939  1.00  0.00    -0.357 OA
HETATM   23  H11         0       4.496  72.373 -11.247  1.00  0.00     0.218 HD
ENDBRANCH  18  22
ENDBRANCH   4  14
BRANCH   8  24
HETATM   24  O17         0       3.177  82.452 -11.968  1.00  0.00    -0.359 OA
HETATM   25  H17         0       2.460  83.053 -12.135  1.00  0.00     0.218 HD
ENDBRANCH   8  24
TORSDOF 5
ENDMDL
MODEL 3
REMARK VINA RESULT:      -6.7      2.645      4.279
REMARK  5 active torsions:
REMARK  status: ('A' for Active; 'I' for Inactive)
REMARK    1  A    between atoms: C4_4  and  C5_5 
REMARK    2  A    between atoms: C8_8  and  O9_9 
REMARK    3  A    between atoms: C10_11  and  O11_12 
REMARK    4  A    between atoms: C16_18  and  O17_19 
REMARK    5  A    between atoms: C19_22  and  O20_23 
ROOT
HETATM    1  O1          0       3.530  79.870 -12.493  1.00  0.00    -0.286 OA
HETATM    2  C2          0       3.147  78.894 -13.195  1.00  0.00     0.201 C 
HETATM    3  C3          0       2.464  77.812 -12.667  1.00  0.00     0.067 C 
HETATM    4  C4          0       2.144  76.703 -13.442  1.00  0.00     0.103 C 
HETATM    5  O13         0       2.488  76.700 -14.718  1.00  0.00    -0.307 OA
HETATM    6  C14         0       3.171  77.685 -15.260  1.00  0.00     0.107 C 
HETATM    7  C15         0       3.869  77.523 -16.448  1.00  0.00     0.049 C 
HETATM    8  C16         0       4.786  78.473 -16.881  1.00  0.00     0.093 C 
HETATM    9  C18         0       4.577  79.757 -16.392  1.00  0.00     0.048 C 
HETATM   10  C19         0       3.842  79.959 -15.231  1.00  0.00     0.096 C 
HETATM   11  C21         0       3.306  78.886 -14.572  1.00  0.00     0.084 C 
ENDROOT
BRANCH  10  12
HETATM   12  O20         0       4.000  81.147 -14.524  1.00  0.00    -0.359 OA
HETATM   13  H20         0       4.408  81.879 -14.970  1.00  0.00     0.218 HD
ENDBRANCH  10  12
BRANCH   4  14
HETATM   14  C5          0       1.996  75.422 -12.750  1.00  0.00     0.025 C 
HETATM   15  C6          0       1.036  74.484 -13.101  1.00  0.00     0.004 C 
HETATM   16  C7          0       1.397  73.141 -13.048  1.00  0.00     0.026 C 
HETATM   17  C8          0       2.624  72.736 -12.534  1.00  0.00     0.112 C 
HETATM   18  C10         0       3.213  73.638 -11.658  1.00  0.00     0.112 C 
HETATM   19  C12         0       2.899  74.986 -11.789  1.00  0.00     0.028 C 
BRANCH  17  20
HETATM   20  O9          0       3.272  71.623 -13.040  1.00  0.00    -0.357 OA
HETATM   21  H9          0       3.946  71.145 -12.571  1.00  0.00     0.218 HD
ENDBRANCH  17  20
BRANCH  18  22
HETATM   22  O11         0       4.340  73.206 -10.974  1.00  0.00    -0.357 OA
HETATM   23  H11         0       4.230  72.996 -10.053  1.00  0.00     0.218 HD
ENDBRANCH  18  22
ENDBRANCH   4  14
BRANCH   8  24
HETATM   24  O17         0       5.997  78.101 -17.474  1.00  0.00    -0.359 OA
HETATM   25  H17         0       6.602  77.507 -17.044  1.00  0.00     0.218 HD
ENDBRANCH   8  24
TORSDOF 5
ENDMDL
MODEL 4
REMARK VINA RESULT:      -6.5      2.503      7.316
REMARK  5 active torsions:
REMARK  status: ('A' for Active; 'I' for Inactive)
REMARK    1  A    between atoms: C4_4  and  C5_5 
REMARK    2  A    between atoms: C8_8  and  O9_9 
REMARK    3  A    between atoms: C10_11  and  O11_12 
REMARK    4  A    between atoms: C16_18  and  O17_19 
REMARK    5  A    between atoms: C19_22  and  O20_23 
ROOT
HETATM    1  O1          0       2.733  81.428 -17.683  1.00  0.00    -0.286 OA
HETATM    2  C2          0       3.641  80.563 -17.824  1.00  0.00     0.201 C 
HETATM    3  C3          0       4.273  80.329 -19.033  1.00  0.00     0.067 C 
HETATM    4  C4          0       5.197  79.301 -19.185  1.00  0.00     0.103 C 
HETATM    5  O13         0       5.486  78.548 -18.138  1.00  0.00    -0.307 OA
HETATM    6  C14         0       4.887  78.704 -16.978  1.00  0.00     0.107 C 
HETATM    7  C15         0       4.879  77.701 -16.019  1.00  0.00     0.049 C 
HETATM    8  C16         0       4.041  77.768 -14.913  1.00  0.00     0.093 C 
HETATM    9  C18         0       3.649  79.051 -14.550  1.00  0.00     0.048 C 
HETATM   10  C19         0       3.690  80.088 -15.471  1.00  0.00     0.096 C 
HETATM   11  C21         0       4.134  79.849 -16.743  1.00  0.00     0.084 C 
ENDROOT
BRANCH  10  12
HETATM   12  O20         0       2.913  81.222 -15.254  1.00  0.00    -0.359 OA
HETATM   13  H20         0       2.656  81.737 -16.009  1.00  0.00     0.218 HD
ENDBRANCH  10  12
BRANCH   4  14
HETATM   14  C5          0       5.354  78.734 -20.526  1.00  0.00     0.025 C 
HETATM   15  C6          0       6.335  79.158 -21.411  1.00  0.00     0.004 C 
HETATM   16  C7          0       6.950  78.193 -22.201  1.00  0.00     0.026 C 
HETATM   17  C8          0       6.514  76.872 -22.212  1.00  0.00     0.112 C 
HETATM   18  C10         0       5.195  76.694 -21.816  1.00  0.00     0.112 C 
HETATM   19  C12         0       4.631  77.629 -20.957  1.00  0.00     0.028 C 
BRANCH  17  20
HETATM   20  O9          0       7.408  75.832 -22.398  1.00  0.00    -0.357 OA
HETATM   21  H9          0       7.194  74.919 -22.245  1.00  0.00     0.218 HD
ENDBRANCH  17  20
BRANCH  18  22
HETATM   22  O11         0       4.654  75.428 -21.987  1.00  0.00    -0.357 OA
HETATM   23  H11         0       4.528  75.131 -22.881  1.00  0.00     0.218 HD
ENDBRANCH  18  22
ENDBRANCH   4  14
BRANCH   8  24
HETATM   24  O17         0       3.384  76.632 -14.426  1.00  0.00    -0.359 OA
HETATM   25  H17         0       3.234  75.870 -14.972  1.00  0.00     0.218 HD
ENDBRANCH   8  24
TORSDOF 5
ENDMDL
MODEL 5
REMARK VINA RESULT:      -6.4      2.730      4.493
REMARK  5 active torsions:
REMARK  status: ('A' for Active; 'I' for Inactive)
REMARK    1  A    between atoms: C4_4  and  C5_5 
REMARK    2  A    between atoms: C8_8  and  O9_9 
REMARK    3  A    between atoms: C10_11  and  O11_12 
REMARK    4  A    between atoms: C16_18  and  O17_19 
REMARK    5  A    between atoms: C19_22  and  O20_23 
ROOT
HETATM    1  O1          0       7.646  78.515 -21.447  1.00  0.00    -0.286 OA
HETATM    2  C2          0       6.450  78.317 -21.097  1.00  0.00     0.201 C 
HETATM    3  C3          0       6.011  78.487 -19.795  1.00  0.00     0.067 C 
HETATM    4  C4          0       4.713  78.163 -19.415  1.00  0.00     0.103 C 
HETATM    5  O13         0       3.881  77.702 -20.331  1.00  0.00    -0.307 OA
HETATM    6  C14         0       4.257  77.486 -21.573  1.00  0.00     0.107 C 
HETATM    7  C15         0       3.542  76.650 -22.419  1.00  0.00     0.049 C 
HETATM    8  C16         0       4.072  76.226 -23.631  1.00  0.00     0.093 C 
HETATM    9  C18         0       5.043  77.059 -24.171  1.00  0.00     0.048 C 
HETATM   10  C19         0       5.745  77.941 -23.361  1.00  0.00     0.096 C 
HETATM   11  C21         0       5.467  78.003 -22.023  1.00  0.00     0.084 C 
ENDROOT
BRANCH  10  12
HETATM   12  O20         0       6.972  78.435 -23.795  1.00  0.00    -0.359 OA
HETATM   13  H20         0       7.714  77.842 -23.800  1.00  0.00     0.218 HD
ENDBRANCH  10  12
BRANCH   4  14
HETATM   14  C5          0       4.498  77.792 -18.016  1.00  0.00     0.025 C 
HETATM   15  C6          0       5.524  77.744 -17.084  1.00  0.00     0.004 C 
HETATM   16  C7          0       5.244  78.182 -15.793  1.00  0.00     0.026 C 
HETATM   17  C8          0       3.955  78.530 -15.405  1.00  0.00     0.112 C 
HETATM   18  C10         0       2.945  77.957 -16.167  1.00  0.00     0.112 C 
HETATM   19  C12         0       3.229  77.607 -17.482  1.00  0.00     0.028 C 
BRANCH  17  20
HETATM   20  O9          0       3.741  79.530 -14.473  1.00  0.00    -0.357 OA
HETATM   21  H9          0       3.034  79.517 -13.838  1.00  0.00     0.218 HD
ENDBRANCH  17  20
BRANCH  18  22
HETATM   22  O11         0       1.645  78.117 -15.710  1.00  0.00    -0.357 OA
HETATM   23  H11         0       0.959  77.687 -16.206  1.00  0.00     0.218 HD
ENDBRANCH  18  22
ENDBRANCH   4  14
BRANCH   8  24
HETATM   24  O17         0       3.890  74.915 -24.087  1.00  0.00    -0.359 OA
HETATM   25  H17         0       3.141  74.394 -23.824  1.00  0.00     0.218 HD
ENDBRANCH   8  24
TORSDOF 5
ENDMDL
MODEL 6
REMARK VINA RESULT:      -6.3      5.733      9.119
REMARK  5 active torsions:
REMARK  status: ('A' for Active; 'I' for Inactive)
REMARK    1  A    between atoms: C4_4  and  C5_5 
REMARK    2  A    between atoms: C8_8  and  O9_9 
REMARK    3  A    between atoms: C10_11  and  O11_12 
REMARK    4  A    between atoms: C16_18  and  O17_19 
REMARK    5  A    between atoms: C19_22  and  O20_23 
ROOT
HETATM    1  O1          0       8.825  76.635 -25.323  1.00  0.00    -0.286 OA
HETATM    2  C2          0       8.827  77.425 -24.339  1.00  0.00     0.201 C 
HETATM    3  C3          0       7.877  77.375 -23.334  1.00  0.00     0.067 C 
HETATM    4  C4          0       7.842  78.322 -22.316  1.00  0.00     0.103 C 
HETATM    5  O13         0       8.756  79.276 -22.306  1.00  0.00    -0.307 OA
HETATM    6  C14         0       9.657  79.392 -23.256  1.00  0.00     0.107 C 
HETATM    7  C15         0      10.342  80.579 -23.475  1.00  0.00     0.049 C 
HETATM    8  C16         0      11.096  80.775 -24.625  1.00  0.00     0.093 C 
HETATM    9  C18         0      11.552  79.613 -25.234  1.00  0.00     0.048 C 
HETATM   10  C19         0      10.920  78.399 -25.001  1.00  0.00     0.096 C 
HETATM   11  C21         0       9.848  78.344 -24.151  1.00  0.00     0.084 C 
ENDROOT
BRANCH  10  12
HETATM   12  O20         0      11.084  77.360 -25.911  1.00  0.00    -0.359 OA
HETATM   13  H20         0      11.915  76.900 -25.916  1.00  0.00     0.218 HD
ENDBRANCH  10  12
BRANCH   4  14
HETATM   14  C5          0       6.547  78.579 -21.684  1.00  0.00     0.025 C 
HETATM   15  C6          0       5.573  79.379 -22.264  1.00  0.00     0.004 C 
HETATM   16  C7          0       4.247  78.983 -22.125  1.00  0.00     0.026 C 
HETATM   17  C8          0       3.888  77.903 -21.326  1.00  0.00     0.112 C 
HETATM   18  C10         0       4.803  77.590 -20.330  1.00  0.00     0.112 C 
HETATM   19  C12         0       6.138  77.921 -20.531  1.00  0.00     0.028 C 
BRANCH  17  20
HETATM   20  O9          0       2.810  77.102 -21.659  1.00  0.00    -0.357 OA
HETATM   21  H9          0       2.583  76.866 -22.551  1.00  0.00     0.218 HD
ENDBRANCH  17  20
BRANCH  18  22
HETATM   22  O11         0       4.410  76.648 -19.389  1.00  0.00    -0.357 OA
HETATM   23  H11         0       4.341  76.943 -18.489  1.00  0.00     0.218 HD
ENDBRANCH  18  22
ENDBRANCH   4  14
BRANCH   8  24
HETATM   24  O17         0      11.103  82.006 -25.291  1.00  0.00    -0.359 OA
HETATM   25  H17         0      11.659  82.163 -26.044  1.00  0.00     0.218 HD
ENDBRANCH   8  24
TORSDOF 5
ENDMDL
MODEL 7
REMARK VINA RESULT:      -6.3      2.403      7.023
REMARK  5 active torsions:
REMARK  status: ('A' for Active; 'I' for Inactive)
REMARK    1  A    between atoms: C4_4  and  C5_5 
REMARK    2  A    between atoms: C8_8  and  O9_9 
REMARK    3  A    between atoms: C10_11  and  O11_12 
REMARK    4  A    between atoms: C16_18  and  O17_19 
REMARK    5  A    between atoms: C19_22  and  O20_23 
ROOT
HETATM    1  O1          0       5.859  78.542 -15.400  1.00  0.00    -0.286 OA
HETATM    2  C2          0       5.066  78.111 -16.281  1.00  0.00     0.201 C 
HETATM    3  C3          0       5.473  77.796 -17.567  1.00  0.00     0.067 C 
HETATM    4  C4          0       4.561  77.422 -18.548  1.00  0.00     0.103 C 
HETATM    5  O13         0       3.281  77.348 -18.230  1.00  0.00    -0.307 OA
HETATM    6  C14         0       2.838  77.671 -17.035  1.00  0.00     0.107 C 
HETATM    7  C15         0       1.504  77.981 -16.809  1.00  0.00     0.049 C 
HETATM    8  C16         0       1.090  78.564 -15.618  1.00  0.00     0.093 C 
HETATM    9  C18         0       1.921  78.328 -14.529  1.00  0.00     0.048 C 
HETATM   10  C19         0       3.249  77.970 -14.719  1.00  0.00     0.096 C 
HETATM   11  C21         0       3.740  77.833 -15.989  1.00  0.00     0.084 C 
ENDROOT
BRANCH  10  12
HETATM   12  O20         0       4.160  78.160 -13.684  1.00  0.00    -0.359 OA
HETATM   13  H20         0       4.998  77.717 -13.742  1.00  0.00     0.218 HD
ENDBRANCH  10  12
BRANCH   4  14
HETATM   14  C5          0       4.927  77.690 -19.940  1.00  0.00     0.025 C 
HETATM   15  C6          0       5.908  78.604 -20.296  1.00  0.00     0.004 C 
HETATM   16  C7          0       6.736  78.277 -21.366  1.00  0.00     0.026 C 
HETATM   17  C8          0       6.513  77.144 -22.141  1.00  0.00     0.112 C 
HETATM   18  C10         0       5.207  76.674 -22.118  1.00  0.00     0.112 C 
HETATM   19  C12         0       4.428  76.942 -20.998  1.00  0.00     0.028 C 
BRANCH  17  20
HETATM   20  O9          0       7.570  76.449 -22.701  1.00  0.00    -0.357 OA
HETATM   21  H9          0       8.190  75.935 -22.196  1.00  0.00     0.218 HD
ENDBRANCH  17  20
BRANCH  18  22
HETATM   22  O11         0       4.886  75.665 -23.015  1.00  0.00    -0.357 OA
HETATM   23  H11         0       4.957  74.771 -22.701  1.00  0.00     0.218 HD
ENDBRANCH  18  22
ENDBRANCH   4  14
BRANCH   8  24
HETATM   24  O17         0       0.120  79.572 -15.597  1.00  0.00    -0.359 OA
HETATM   25  H17         0      -0.067  80.069 -14.810  1.00  0.00     0.218 HD
ENDBRANCH   8  24
TORSDOF 5
ENDMDL
MODEL 8
REMARK VINA RESULT:      -6.3      1.682      2.192
REMARK  5 active torsions:
REMARK  status: ('A' for Active; 'I' for Inactive)
REMARK    1  A    between atoms: C4_4  and  C5_5 
REMARK    2  A    between atoms: C8_8  and  O9_9 
REMARK    3  A    between atoms: C10_11  and  O11_12 
REMARK    4  A    between atoms: C16_18  and  O17_19 
REMARK    5  A    between atoms: C19_22  and  O20_23 
ROOT
HETATM    1  O1          0       6.551  77.758 -17.865  1.00  0.00    -0.286 OA
HETATM    2  C2          0       5.507  78.467 -17.879  1.00  0.00     0.201 C 
HETATM    3  C3          0       5.002  79.081 -16.745  1.00  0.00     0.067 C 
HETATM    4  C4          0       3.795  79.771 -16.767  1.00  0.00     0.103 C 
HETATM    5  O13         0       3.132  79.854 -17.907  1.00  0.00    -0.307 OA
HETATM    6  C14         0       3.548  79.258 -19.003  1.00  0.00     0.107 C 
HETATM    7  C15         0       2.693  79.001 -20.065  1.00  0.00     0.049 C 
HETATM    8  C16         0       3.065  78.155 -21.103  1.00  0.00     0.093 C 
HETATM    9  C18         0       4.436  78.030 -21.295  1.00  0.00     0.048 C 
HETATM   10  C19         0       5.322  78.324 -20.268  1.00  0.00     0.096 C 
HETATM   11  C21         0       4.844  78.757 -19.061  1.00  0.00     0.084 C 
ENDROOT
BRANCH  10  12
HETATM   12  O20         0       6.609  77.797 -20.309  1.00  0.00    -0.359 OA
HETATM   13  H20         0       7.294  78.258 -19.839  1.00  0.00     0.218 HD
ENDBRANCH  10  12
BRANCH   4  14
HETATM   14  C5          0       3.049  79.856 -15.510  1.00  0.00     0.025 C 
HETATM   15  C6          0       2.042  78.964 -15.172  1.00  0.00     0.004 C 
HETATM   16  C7          0       1.954  78.565 -13.842  1.00  0.00     0.026 C 
HETATM   17  C8          0       2.752  79.134 -12.855  1.00  0.00     0.112 C 
HETATM   18  C10         0       3.237  80.399 -13.160  1.00  0.00     0.112 C 
HETATM   19  C12         0       3.395  80.741 -14.498  1.00  0.00     0.028 C 
BRANCH  17  20
HETATM   20  O9          0       3.180  78.388 -11.772  1.00  0.00    -0.357 OA
HETATM   21  H9          0       2.663  78.254 -10.986  1.00  0.00     0.218 HD
ENDBRANCH  17  20
BRANCH  18  22
HETATM   22  O11         0       3.878  81.088 -12.141  1.00  0.00    -0.357 OA
HETATM   23  H11         0       3.545  80.962 -11.260  1.00  0.00     0.218 HD
ENDBRANCH  18  22
ENDBRANCH   4  14
BRANCH   8  24
HETATM   24  O17         0       2.157  77.254 -21.670  1.00  0.00    -0.359 OA
HETATM   25  H17         0       2.436  76.411 -22.007  1.00  0.00     0.218 HD
ENDBRANCH   8  24
TORSDOF 5
ENDMDL
MODEL 9
REMARK VINA RESULT:      -6.2      1.761      2.369
REMARK  5 active torsions:
REMARK  status: ('A' for Active; 'I' for Inactive)
REMARK    1  A    between atoms: C4_4  and  C5_5 
REMARK    2  A    between atoms: C8_8  and  O9_9 
REMARK    3  A    between atoms: C10_11  and  O11_12 
REMARK    4  A    between atoms: C16_18  and  O17_19 
REMARK    5  A    between atoms: C19_22  and  O20_23 
ROOT
HETATM    1  O1          0       4.335  81.518 -17.165  1.00  0.00    -0.286 OA
HETATM    2  C2          0       3.989  80.305 -17.179  1.00  0.00     0.201 C 
HETATM    3  C3          0       3.427  79.673 -16.083  1.00  0.00     0.067 C 
HETATM    4  C4          0       3.150  78.310 -16.091  1.00  0.00     0.103 C 
HETATM    5  O13         0       3.414  77.615 -17.184  1.00  0.00    -0.307 OA
HETATM    6  C14         0       3.981  78.159 -18.238  1.00  0.00     0.107 C 
HETATM    7  C15         0       4.616  77.391 -19.204  1.00  0.00     0.049 C 
HETATM    8  C16         0       5.427  77.974 -20.171  1.00  0.00     0.093 C 
HETATM    9  C18         0       5.146  79.307 -20.446  1.00  0.00     0.048 C 
HETATM   10  C19         0       4.471  80.091 -19.521  1.00  0.00     0.096 C 
HETATM   11  C21         0       4.064  79.544 -18.335  1.00  0.00     0.084 C 
ENDROOT
BRANCH  10  12
HETATM   12  O20         0       4.578  81.477 -19.598  1.00  0.00    -0.359 OA
HETATM   13  H20         0       4.959  81.851 -20.383  1.00  0.00     0.218 HD
ENDBRANCH  10  12
BRANCH   4  14
HETATM   14  C5          0       3.146  77.620 -14.800  1.00  0.00     0.025 C 
HETATM   15  C6          0       4.101  77.852 -13.821  1.00  0.00     0.004 C 
HETATM   16  C7          0       3.675  77.863 -12.496  1.00  0.00     0.026 C 
HETATM   17  C8          0       2.373  77.523 -12.145  1.00  0.00     0.112 C 
HETATM   18  C10         0       1.714  76.723 -13.068  1.00  0.00     0.112 C 
HETATM   19  C12         0       2.103  76.794 -14.401  1.00  0.00     0.028 C 
BRANCH  17  20
HETATM   20  O9          0       1.750  78.125 -11.066  1.00  0.00    -0.357 OA
HETATM   21  H9          0       1.516  77.666 -10.268  1.00  0.00     0.218 HD
ENDBRANCH  17  20
BRANCH  18  22
HETATM   22  O11         0       0.488  76.200 -12.685  1.00  0.00    -0.357 OA
HETATM   23  H11         0      -0.281  76.729 -12.866  1.00  0.00     0.218 HD
ENDBRANCH  18  22
ENDBRANCH   4  14
BRANCH   8  24
HETATM   24  O17         0       6.625  77.375 -20.575  1.00  0.00    -0.359 OA
HETATM   25  H17         0       7.443  77.541 -20.122  1.00  0.00     0.218 HD
ENDBRANCH   8  24
TORSDOF 5
ENDMDL
