MODEL 1
REMARK VINA RESULT:      -0.2      0.000      0.000
REMARK  5 active torsions:
REMARK  status: ('A' for Active; 'I' for Inactive)
REMARK    1  A    between atoms: C4_4  and  C5_5 
REMARK    2  A    between atoms: C8_8  and  O9_9 
REMARK    3  A    between atoms: C10_11  and  O11_12 
REMARK    4  A    between atoms: C16_18  and  O17_19 
REMARK    5  A    between atoms: C19_22  and  O20_23 
ROOT
HETATM    1  O1          0      47.870  11.186 -25.307  1.00  0.00    -0.286 OA
HETATM    2  C2          0      47.276  10.724 -24.294  1.00  0.00     0.201 C 
HETATM    3  C3          0      45.896  10.683 -24.188  1.00  0.00     0.067 C 
HETATM    4  C4          0      45.267  10.265 -23.021  1.00  0.00     0.103 C 
HETATM    5  O13         0      46.014   9.880 -22.001  1.00  0.00    -0.307 OA
HETATM    6  C14         0      47.327   9.934 -22.036  1.00  0.00     0.107 C 
HETATM    7  C15         0      48.090   9.922 -20.877  1.00  0.00     0.049 C 
HETATM    8  C16         0      49.444  10.235 -20.902  1.00  0.00     0.093 C 
HETATM    9  C18         0      50.072  10.029 -22.124  1.00  0.00     0.048 C 
HETATM   10  C19         0      49.333   9.989 -23.299  1.00  0.00     0.096 C 
HETATM   11  C21         0      47.973  10.135 -23.251  1.00  0.00     0.084 C 
ENDROOT
BRANCH  10  12
HETATM   12  O20         0      49.971  10.221 -24.513  1.00  0.00    -0.359 OA
HETATM   13  H20         0      49.630  10.910 -25.071  1.00  0.00     0.218 HD
ENDBRANCH  10  12
BRANCH   4  14
HETATM   14  C5          0      43.928  10.794 -22.754  1.00  0.00     0.025 C 
HETATM   15  C6          0      43.460  11.043 -21.472  1.00  0.00     0.004 C 
HETATM   16  C7          0      42.672  12.174 -21.282  1.00  0.00     0.026 C 
HETATM   17  C8          0      42.252  12.958 -22.351  1.00  0.00     0.112 C 
HETATM   18  C10         0      42.225  12.303 -23.575  1.00  0.00     0.112 C 
HETATM   19  C12         0      43.084  11.228 -23.768  1.00  0.00     0.028 C 
BRANCH  17  20
HETATM   20  O9          0      42.090  14.325 -22.207  1.00  0.00    -0.357 OA
HETATM   21  H9          0      42.770  14.960 -22.397  1.00  0.00     0.218 HD
ENDBRANCH  17  20
BRANCH  18  22
HETATM   22  O11         0      41.637  12.978 -24.636  1.00  0.00    -0.357 OA
HETATM   23  H11         0      40.874  12.574 -25.032  1.00  0.00     0.218 HD
ENDBRANCH  18  22
ENDBRANCH   4  14
BRANCH   8  24
HETATM   24  O17         0      50.034  11.004 -19.892  1.00  0.00    -0.359 OA
HETATM   25  H17         0      49.517  11.565 -19.326  1.00  0.00     0.218 HD
ENDBRANCH   8  24
TORSDOF 5
ENDMDL
MODEL 2
REMARK VINA RESULT:      -0.2      1.112      1.319
REMARK  5 active torsions:
REMARK  status: ('A' for Active; 'I' for Inactive)
REMARK    1  A    between atoms: C4_4  and  C5_5 
REMARK    2  A    between atoms: C8_8  and  O9_9 
REMARK    3  A    between atoms: C10_11  and  O11_12 
REMARK    4  A    between atoms: C16_18  and  O17_19 
REMARK    5  A    between atoms: C19_22  and  O20_23 
ROOT
HETATM    1  O1          0      46.881  10.912 -24.635  1.00  0.00    -0.286 OA
HETATM    2  C2          0      46.487  10.792 -23.443  1.00  0.00     0.201 C 
HETATM    3  C3          0      45.157  10.914 -23.076  1.00  0.00     0.067 C 
HETATM    4  C4          0      44.763  10.880 -21.743  1.00  0.00     0.103 C 
HETATM    5  O13         0      45.685  10.706 -20.813  1.00  0.00    -0.307 OA
HETATM    6  C14         0      46.965  10.623 -21.104  1.00  0.00     0.107 C 
HETATM    7  C15         0      47.947  10.842 -20.149  1.00  0.00     0.049 C 
HETATM    8  C16         0      49.280  11.005 -20.509  1.00  0.00     0.093 C 
HETATM    9  C18         0      49.635  10.426 -21.721  1.00  0.00     0.048 C 
HETATM   10  C19         0      48.671  10.149 -22.680  1.00  0.00     0.096 C 
HETATM   11  C21         0      47.357  10.434 -22.424  1.00  0.00     0.084 C 
ENDROOT
BRANCH  10  12
HETATM   12  O20         0      49.057   9.992 -24.008  1.00  0.00    -0.359 OA
HETATM   13  H20         0      49.304  10.768 -24.495  1.00  0.00     0.218 HD
ENDBRANCH  10  12
BRANCH   4  14
HETATM   14  C5          0      43.531  11.588 -21.391  1.00  0.00     0.025 C 
HETATM   15  C6          0      43.364  12.253 -20.185  1.00  0.00     0.004 C 
HETATM   16  C7          0      42.668  13.458 -20.205  1.00  0.00     0.026 C 
HETATM   17  C8          0      42.041  13.920 -21.357  1.00  0.00     0.112 C 
HETATM   18  C10         0      41.727  12.932 -22.282  1.00  0.00     0.112 C 
HETATM   19  C12         0      42.494  11.773 -22.297  1.00  0.00     0.028 C 
BRANCH  17  20
HETATM   20  O9          0      41.950  15.275 -21.620  1.00  0.00    -0.357 OA
HETATM   21  H9          0      42.613  15.907 -21.367  1.00  0.00     0.218 HD
ENDBRANCH  17  20
BRANCH  18  22
HETATM   22  O11         0      40.936  13.308 -23.358  1.00  0.00    -0.357 OA
HETATM   23  H11         0      39.998  13.338 -23.213  1.00  0.00     0.218 HD
ENDBRANCH  18  22
ENDBRANCH   4  14
BRANCH   8  24
HETATM   24  O17         0      50.095  11.951 -19.878  1.00  0.00    -0.359 OA
HETATM   25  H17         0      50.963  12.157 -20.203  1.00  0.00     0.218 HD
ENDBRANCH   8  24
TORSDOF 5
ENDMDL
MODEL 3
REMARK VINA RESULT:      -0.2      4.642      6.010
REMARK  5 active torsions:
REMARK  status: ('A' for Active; 'I' for Inactive)
REMARK    1  A    between atoms: C4_4  and  C5_5 
REMARK    2  A    between atoms: C8_8  and  O9_9 
REMARK    3  A    between atoms: C10_11  and  O11_12 
REMARK    4  A    between atoms: C16_18  and  O17_19 
REMARK    5  A    between atoms: C19_22  and  O20_23 
ROOT
HETATM    1  O1          0      48.741  16.652 -22.539  1.00  0.00    -0.286 OA
HETATM    2  C2          0      49.181  15.592 -23.064  1.00  0.00     0.201 C 
HETATM    3  C3          0      49.125  15.350 -24.426  1.00  0.00     0.067 C 
HETATM    4  C4          0      49.522  14.132 -24.966  1.00  0.00     0.103 C 
HETATM    5  O13         0      49.981  13.196 -24.154  1.00  0.00    -0.307 OA
HETATM    6  C14         0      50.020  13.361 -22.850  1.00  0.00     0.107 C 
HETATM    7  C15         0      50.111  12.284 -21.980  1.00  0.00     0.049 C 
HETATM    8  C16         0      49.896  12.438 -20.615  1.00  0.00     0.093 C 
HETATM    9  C18         0      50.120  13.720 -20.127  1.00  0.00     0.048 C 
HETATM   10  C19         0      50.083  14.816 -20.979  1.00  0.00     0.096 C 
HETATM   11  C21         0      49.840  14.631 -22.313  1.00  0.00     0.084 C 
ENDROOT
BRANCH  10  12
HETATM   12  O20         0      49.871  16.084 -20.447  1.00  0.00    -0.359 OA
HETATM   13  H20         0      49.041  16.254 -20.017  1.00  0.00     0.218 HD
ENDBRANCH  10  12
BRANCH   4  14
HETATM   14  C5          0      48.903  13.726 -26.230  1.00  0.00     0.025 C 
HETATM   15  C6          0      48.075  12.619 -26.340  1.00  0.00     0.004 C 
HETATM   16  C7          0      46.971  12.721 -27.181  1.00  0.00     0.026 C 
HETATM   17  C8          0      46.770  13.836 -27.989  1.00  0.00     0.112 C 
HETATM   18  C10         0      47.920  14.556 -28.279  1.00  0.00     0.112 C 
HETATM   19  C12         0      48.978  14.504 -27.378  1.00  0.00     0.028 C 
BRANCH  17  20
HETATM   20  O9          0      45.492  14.278 -28.280  1.00  0.00    -0.357 OA
HETATM   21  H9          0      44.704  13.901 -27.906  1.00  0.00     0.218 HD
ENDBRANCH  17  20
BRANCH  18  22
HETATM   22  O11         0      47.809  15.562 -29.229  1.00  0.00    -0.357 OA
HETATM   23  H11         0      46.984  16.033 -29.262  1.00  0.00     0.218 HD
ENDBRANCH  18  22
ENDBRANCH   4  14
BRANCH   8  24
HETATM   24  O17         0      49.193  11.481 -19.875  1.00  0.00    -0.359 OA
HETATM   25  H17         0      48.344  11.670 -19.495  1.00  0.00     0.218 HD
ENDBRANCH   8  24
TORSDOF 5
ENDMDL
MODEL 4
REMARK VINA RESULT:      -0.1      2.048      6.497
REMARK  5 active torsions:
REMARK  status: ('A' for Active; 'I' for Inactive)
REMARK    1  A    between atoms: C4_4  and  C5_5 
REMARK    2  A    between atoms: C8_8  and  O9_9 
REMARK    3  A    between atoms: C10_11  and  O11_12 
REMARK    4  A    between atoms: C16_18  and  O17_19 
REMARK    5  A    between atoms: C19_22  and  O20_23 
ROOT
HETATM    1  O1          0      43.748  10.262 -25.911  1.00  0.00    -0.286 OA
HETATM    2  C2          0      43.960  11.212 -25.108  1.00  0.00     0.201 C 
HETATM    3  C3          0      45.227  11.552 -24.666  1.00  0.00     0.067 C 
HETATM    4  C4          0      45.422  12.536 -23.703  1.00  0.00     0.103 C 
HETATM    5  O13         0      44.368  13.170 -23.220  1.00  0.00    -0.307 OA
HETATM    6  C14         0      43.142  12.860 -23.578  1.00  0.00     0.107 C 
HETATM    7  C15         0      42.043  13.219 -22.810  1.00  0.00     0.049 C 
HETATM    8  C16         0      40.786  12.678 -23.051  1.00  0.00     0.093 C 
HETATM    9  C18         0      40.582  12.223 -24.348  1.00  0.00     0.048 C 
HETATM   10  C19         0      41.660  11.900 -25.160  1.00  0.00     0.096 C 
HETATM   11  C21         0      42.935  12.045 -24.686  1.00  0.00     0.084 C 
ENDROOT
BRANCH  10  12
HETATM   12  O20         0      41.462  11.059 -26.251  1.00  0.00    -0.359 OA
HETATM   13  H20         0      40.868  11.348 -26.934  1.00  0.00     0.218 HD
ENDBRANCH  10  12
BRANCH   4  14
HETATM   14  C5          0      46.624  12.431 -22.873  1.00  0.00     0.025 C 
HETATM   15  C6          0      46.660  12.839 -21.548  1.00  0.00     0.004 C 
HETATM   16  C7          0      47.393  12.065 -20.654  1.00  0.00     0.026 C 
HETATM   17  C8          0      48.174  10.998 -21.085  1.00  0.00     0.112 C 
HETATM   18  C10         0      48.569  11.068 -22.414  1.00  0.00     0.112 C 
HETATM   19  C12         0      47.771  11.778 -23.304  1.00  0.00     0.028 C 
BRANCH  17  20
HETATM   20  O9          0      48.343   9.877 -20.291  1.00  0.00    -0.357 OA
HETATM   21  H9          0      47.636   9.454 -19.818  1.00  0.00     0.218 HD
ENDBRANCH  17  20
BRANCH  18  22
HETATM   22  O11         0      49.500  10.133 -22.843  1.00  0.00    -0.357 OA
HETATM   23  H11         0      49.567   9.991 -23.780  1.00  0.00     0.218 HD
ENDBRANCH  18  22
ENDBRANCH   4  14
BRANCH   8  24
HETATM   24  O17         0      39.935  12.314 -22.001  1.00  0.00    -0.359 OA
HETATM   25  H17         0      39.547  11.448 -21.950  1.00  0.00     0.218 HD
ENDBRANCH   8  24
TORSDOF 5
ENDMDL
MODEL 5
REMARK VINA RESULT:      -0.1      4.717      5.785
REMARK  5 active torsions:
REMARK  status: ('A' for Active; 'I' for Inactive)
REMARK    1  A    between atoms: C4_4  and  C5_5 
REMARK    2  A    between atoms: C8_8  and  O9_9 
REMARK    3  A    between atoms: C10_11  and  O11_12 
REMARK    4  A    between atoms: C16_18  and  O17_19 
REMARK    5  A    between atoms: C19_22  and  O20_23 
ROOT
HETATM    1  O1          0      45.055  11.955 -23.307  1.00  0.00    -0.286 OA
HETATM    2  C2          0      45.926  12.652 -22.718  1.00  0.00     0.201 C 
HETATM    3  C3          0      46.254  13.937 -23.116  1.00  0.00     0.067 C 
HETATM    4  C4          0      47.288  14.645 -22.514  1.00  0.00     0.103 C 
HETATM    5  O13         0      47.955  14.076 -21.526  1.00  0.00    -0.307 OA
HETATM    6  C14         0      47.709  12.845 -21.134  1.00  0.00     0.107 C 
HETATM    7  C15         0      48.633  12.113 -20.402  1.00  0.00     0.049 C 
HETATM    8  C16         0      48.482  10.745 -20.211  1.00  0.00     0.093 C 
HETATM    9  C18         0      47.175  10.281 -20.304  1.00  0.00     0.048 C 
HETATM   10  C19         0      46.214  11.011 -20.989  1.00  0.00     0.096 C 
HETATM   11  C21         0      46.551  12.207 -21.563  1.00  0.00     0.084 C 
ENDROOT
BRANCH  10  12
HETATM   12  O20         0      45.069  10.367 -21.448  1.00  0.00    -0.359 OA
HETATM   13  H20         0      44.322  10.316 -20.863  1.00  0.00     0.218 HD
ENDBRANCH  10  12
BRANCH   4  14
HETATM   14  C5          0      47.958  15.667 -23.321  1.00  0.00     0.025 C 
HETATM   15  C6          0      47.479  16.085 -24.554  1.00  0.00     0.004 C 
HETATM   16  C7          0      47.588  17.437 -24.863  1.00  0.00     0.026 C 
HETATM   17  C8          0      48.269  18.322 -24.034  1.00  0.00     0.112 C 
HETATM   18  C10         0      49.215  17.731 -23.208  1.00  0.00     0.112 C 
HETATM   19  C12         0      49.037  16.401 -22.845  1.00  0.00     0.028 C 
BRANCH  17  20
HETATM   20  O9          0      47.863  19.639 -23.917  1.00  0.00    -0.357 OA
HETATM   21  H9          0      47.088  19.992 -24.339  1.00  0.00     0.218 HD
ENDBRANCH  17  20
BRANCH  18  22
HETATM   22  O11         0      50.052  18.583 -22.501  1.00  0.00    -0.357 OA
HETATM   23  H11         0      50.009  18.538 -21.552  1.00  0.00     0.218 HD
ENDBRANCH  18  22
ENDBRANCH   4  14
BRANCH   8  24
HETATM   24  O17         0      49.577   9.875 -20.263  1.00  0.00    -0.359 OA
HETATM   25  H17         0      49.469   8.933 -20.210  1.00  0.00     0.218 HD
ENDBRANCH   8  24
TORSDOF 5
ENDMDL
MODEL 6
REMARK VINA RESULT:      -0.1      3.668      7.028
REMARK  5 active torsions:
REMARK  status: ('A' for Active; 'I' for Inactive)
REMARK    1  A    between atoms: C4_4  and  C5_5 
REMARK    2  A    between atoms: C8_8  and  O9_9 
REMARK    3  A    between atoms: C10_11  and  O11_12 
REMARK    4  A    between atoms: C16_18  and  O17_19 
REMARK    5  A    between atoms: C19_22  and  O20_23 
ROOT
HETATM    1  O1          0      47.265  15.076 -27.390  1.00  0.00    -0.286 OA
HETATM    2  C2          0      46.531  14.365 -26.650  1.00  0.00     0.201 C 
HETATM    3  C3          0      46.930  13.918 -25.402  1.00  0.00     0.067 C 
HETATM    4  C4          0      46.143  13.052 -24.652  1.00  0.00     0.103 C 
HETATM    5  O13         0      44.977  12.669 -25.142  1.00  0.00    -0.307 OA
HETATM    6  C14         0      44.567  13.034 -26.337  1.00  0.00     0.107 C 
HETATM    7  C15         0      43.572  12.341 -27.011  1.00  0.00     0.049 C 
HETATM    8  C16         0      43.321  12.567 -28.359  1.00  0.00     0.093 C 
HETATM    9  C18         0      43.705  13.819 -28.825  1.00  0.00     0.048 C 
HETATM   10  C19         0      44.665  14.560 -28.148  1.00  0.00     0.096 C 
HETATM   11  C21         0      45.225  14.061 -27.004  1.00  0.00     0.084 C 
ENDROOT
BRANCH  10  12
HETATM   12  O20         0      45.347  15.567 -28.823  1.00  0.00    -0.359 OA
HETATM   13  H20         0      46.136  15.915 -28.425  1.00  0.00     0.218 HD
ENDBRANCH  10  12
BRANCH   4  14
HETATM   14  C5          0      46.830  12.177 -23.700  1.00  0.00     0.025 C 
HETATM   15  C6          0      46.610  10.808 -23.643  1.00  0.00     0.004 C 
HETATM   16  C7          0      47.708   9.989 -23.398  1.00  0.00     0.026 C 
HETATM   17  C8          0      48.956  10.517 -23.086  1.00  0.00     0.112 C 
HETATM   18  C10         0      48.928  11.800 -22.555  1.00  0.00     0.112 C 
HETATM   19  C12         0      47.861  12.627 -22.885  1.00  0.00     0.028 C 
BRANCH  17  20
HETATM   20  O9          0      50.116   9.876 -23.483  1.00  0.00    -0.357 OA
HETATM   21  H9          0      50.910   9.850 -22.962  1.00  0.00     0.218 HD
ENDBRANCH  17  20
BRANCH  18  22
HETATM   22  O11         0      50.121  12.299 -22.053  1.00  0.00    -0.357 OA
HETATM   23  H11         0      50.912  11.819 -22.269  1.00  0.00     0.218 HD
ENDBRANCH  18  22
ENDBRANCH   4  14
BRANCH   8  24
HETATM   24  O17         0      43.028  11.515 -29.233  1.00  0.00    -0.359 OA
HETATM   25  H17         0      42.141  11.344 -29.528  1.00  0.00     0.218 HD
ENDBRANCH   8  24
TORSDOF 5
ENDMDL
MODEL 7
REMARK VINA RESULT:      -0.1      2.765      7.014
REMARK  5 active torsions:
REMARK  status: ('A' for Active; 'I' for Inactive)
REMARK    1  A    between atoms: C4_4  and  C5_5 
REMARK    2  A    between atoms: C8_8  and  O9_9 
REMARK    3  A    between atoms: C10_11  and  O11_12 
REMARK    4  A    between atoms: C16_18  and  O17_19 
REMARK    5  A    between atoms: C19_22  and  O20_23 
ROOT
HETATM    1  O1          0      43.357  11.155 -25.174  1.00  0.00    -0.286 OA
HETATM    2  C2          0      44.237  12.048 -25.307  1.00  0.00     0.201 C 
HETATM    3  C3          0      45.583  11.816 -25.078  1.00  0.00     0.067 C 
HETATM    4  C4          0      46.519  12.843 -25.133  1.00  0.00     0.103 C 
HETATM    5  O13         0      46.106  14.062 -25.430  1.00  0.00    -0.307 OA
HETATM    6  C14         0      44.836  14.344 -25.620  1.00  0.00     0.107 C 
HETATM    7  C15         0      44.355  15.643 -25.533  1.00  0.00     0.049 C 
HETATM    8  C16         0      42.991  15.904 -25.480  1.00  0.00     0.093 C 
HETATM    9  C18         0      42.182  14.921 -26.037  1.00  0.00     0.048 C 
HETATM   10  C19         0      42.649  13.622 -26.182  1.00  0.00     0.096 C 
HETATM   11  C21         0      43.922  13.310 -25.788  1.00  0.00     0.084 C 
ENDROOT
BRANCH  10  12
HETATM   12  O20         0      41.735  12.582 -26.318  1.00  0.00    -0.359 OA
HETATM   13  H20         0      41.963  11.861 -26.892  1.00  0.00     0.218 HD
ENDBRANCH  10  12
BRANCH   4  14
HETATM   14  C5          0      47.732  12.685 -24.329  1.00  0.00     0.025 C 
HETATM   15  C6          0      47.965  13.409 -23.168  1.00  0.00     0.004 C 
HETATM   16  C7          0      48.583  12.749 -22.111  1.00  0.00     0.026 C 
HETATM   17  C8          0      49.076  11.456 -22.246  1.00  0.00     0.112 C 
HETATM   18  C10         0      49.366  11.079 -23.551  1.00  0.00     0.112 C 
HETATM   19  C12         0      48.671  11.695 -24.585  1.00  0.00     0.028 C 
BRANCH  17  20
HETATM   20  O9          0      49.062  10.577 -21.178  1.00  0.00    -0.357 OA
HETATM   21  H9          0      48.363  10.538 -20.535  1.00  0.00     0.218 HD
ENDBRANCH  17  20
BRANCH  18  22
HETATM   22  O11         0      50.033   9.875 -23.723  1.00  0.00    -0.357 OA
HETATM   23  H11         0      49.827   9.177 -23.112  1.00  0.00     0.218 HD
ENDBRANCH  18  22
ENDBRANCH   4  14
BRANCH   8  24
HETATM   24  O17         0      42.471  16.896 -24.640  1.00  0.00    -0.359 OA
HETATM   25  H17         0      42.654  16.908 -23.709  1.00  0.00     0.218 HD
ENDBRANCH   8  24
TORSDOF 5
ENDMDL
MODEL 8
REMARK VINA RESULT:      -0.1      3.693      5.018
REMARK  5 active torsions:
REMARK  status: ('A' for Active; 'I' for Inactive)
REMARK    1  A    between atoms: C4_4  and  C5_5 
REMARK    2  A    between atoms: C8_8  and  O9_9 
REMARK    3  A    between atoms: C10_11  and  O11_12 
REMARK    4  A    between atoms: C16_18  and  O17_19 
REMARK    5  A    between atoms: C19_22  and  O20_23 
ROOT
HETATM    1  O1          0      45.688  11.421 -23.139  1.00  0.00    -0.286 OA
HETATM    2  C2          0      46.409  12.218 -23.799  1.00  0.00     0.201 C 
HETATM    3  C3          0      45.988  13.486 -24.162  1.00  0.00     0.067 C 
HETATM    4  C4          0      46.761  14.305 -24.977  1.00  0.00     0.103 C 
HETATM    5  O13         0      47.935  13.861 -25.393  1.00  0.00    -0.307 OA
HETATM    6  C14         0      48.365  12.652 -25.108  1.00  0.00     0.107 C 
HETATM    7  C15         0      49.371  12.042 -25.844  1.00  0.00     0.049 C 
HETATM    8  C16         0      49.644  10.686 -25.707  1.00  0.00     0.093 C 
HETATM    9  C18         0      49.270  10.132 -24.489  1.00  0.00     0.048 C 
HETATM   10  C19         0      48.300  10.742 -23.705  1.00  0.00     0.096 C 
HETATM   11  C21         0      47.720  11.907 -24.126  1.00  0.00     0.084 C 
ENDROOT
BRANCH  10  12
HETATM   12  O20         0      47.631   9.991 -22.744  1.00  0.00    -0.359 OA
HETATM   13  H20         0      47.434   9.084 -22.946  1.00  0.00     0.218 HD
ENDBRANCH  10  12
BRANCH   4  14
HETATM   14  C5          0      46.057  15.301 -25.787  1.00  0.00     0.025 C 
HETATM   15  C6          0      46.459  15.649 -27.068  1.00  0.00     0.004 C 
HETATM   16  C7          0      45.466  15.890 -28.012  1.00  0.00     0.026 C 
HETATM   17  C8          0      44.120  15.917 -27.664  1.00  0.00     0.112 C 
HETATM   18  C10         0      43.873  16.191 -26.325  1.00  0.00     0.112 C 
HETATM   19  C12         0      44.849  15.862 -25.393  1.00  0.00     0.028 C 
BRANCH  17  20
HETATM   20  O9          0      43.149  15.491 -28.553  1.00  0.00    -0.357 OA
HETATM   21  H9          0      42.495  16.065 -28.935  1.00  0.00     0.218 HD
ENDBRANCH  17  20
BRANCH  18  22
HETATM   22  O11         0      42.553  16.417 -25.963  1.00  0.00    -0.357 OA
HETATM   23  H11         0      42.065  15.672 -25.631  1.00  0.00     0.218 HD
ENDBRANCH  18  22
ENDBRANCH   4  14
BRANCH   8  24
HETATM   24  O17         0      49.951   9.889 -26.816  1.00  0.00    -0.359 OA
HETATM   25  H17         0      49.354   9.804 -27.550  1.00  0.00     0.218 HD
ENDBRANCH   8  24
TORSDOF 5
ENDMDL
MODEL 9
REMARK VINA RESULT:      -0.1      4.815      6.175
REMARK  5 active torsions:
REMARK  status: ('A' for Active; 'I' for Inactive)
REMARK    1  A    between atoms: C4_4  and  C5_5 
REMARK    2  A    between atoms: C8_8  and  O9_9 
REMARK    3  A    between atoms: C10_11  and  O11_12 
REMARK    4  A    between atoms: C16_18  and  O17_19 
REMARK    5  A    between atoms: C19_22  and  O20_23 
ROOT
HETATM    1  O1          0      45.402  12.702 -25.854  1.00  0.00    -0.286 OA
HETATM    2  C2          0      46.261  13.171 -25.057  1.00  0.00     0.201 C 
HETATM    3  C3          0      46.516  14.527 -24.941  1.00  0.00     0.067 C 
HETATM    4  C4          0      47.538  15.010 -24.132  1.00  0.00     0.103 C 
HETATM    5  O13         0      48.264  14.146 -23.445  1.00  0.00    -0.307 OA
HETATM    6  C14         0      48.089  12.847 -23.547  1.00  0.00     0.107 C 
HETATM    7  C15         0      49.070  11.944 -23.164  1.00  0.00     0.049 C 
HETATM    8  C16         0      48.987  10.600 -23.506  1.00  0.00     0.093 C 
HETATM    9  C18         0      47.700  10.134 -23.748  1.00  0.00     0.048 C 
HETATM   10  C19         0      46.683  11.016 -24.088  1.00  0.00     0.096 C 
HETATM   11  C21         0      46.946  12.356 -24.169  1.00  0.00     0.084 C 
ENDROOT
BRANCH  10  12
HETATM   12  O20         0      45.553  10.532 -24.739  1.00  0.00    -0.359 OA
HETATM   13  H20         0      45.605   9.674 -25.142  1.00  0.00     0.218 HD
ENDBRANCH  10  12
BRANCH   4  14
HETATM   14  C5          0      48.132  16.296 -24.499  1.00  0.00     0.025 C 
HETATM   15  C6          0      49.480  16.578 -24.330  1.00  0.00     0.004 C 
HETATM   16  C7          0      50.110  17.329 -25.317  1.00  0.00     0.026 C 
HETATM   17  C8          0      49.398  17.897 -26.368  1.00  0.00     0.112 C 
HETATM   18  C10         0      48.048  18.098 -26.111  1.00  0.00     0.112 C 
HETATM   19  C12         0      47.423  17.276 -25.182  1.00  0.00     0.028 C 
BRANCH  17  20
HETATM   20  O9          0      49.971  18.036 -27.619  1.00  0.00    -0.357 OA
HETATM   21  H9          0      50.413  17.331 -28.079  1.00  0.00     0.218 HD
ENDBRANCH  17  20
BRANCH  18  22
HETATM   22  O11         0      47.333  18.831 -27.048  1.00  0.00    -0.357 OA
HETATM   23  H11         0      47.810  19.134 -27.812  1.00  0.00     0.218 HD
ENDBRANCH  18  22
ENDBRANCH   4  14
BRANCH   8  24
HETATM   24  O17         0      50.118   9.877 -23.901  1.00  0.00    -0.359 OA
HETATM   25  H17         0      50.637  10.135 -24.654  1.00  0.00     0.218 HD
ENDBRANCH   8  24
TORSDOF 5
ENDMDL
