MODEL 1
REMARK VINA RESULT:      -8.0      0.000      0.000
REMARK  5 active torsions:
REMARK  status: ('A' for Active; 'I' for Inactive)
REMARK    1  A    between atoms: C4_4  and  C5_5 
REMARK    2  A    between atoms: C8_8  and  O9_9 
REMARK    3  A    between atoms: C10_11  and  O11_12 
REMARK    4  A    between atoms: C16_18  and  O17_19 
REMARK    5  A    between atoms: C19_22  and  O20_23 
ROOT
HETATM    1  O1          0      47.634  54.159   5.261  1.00  0.00    -0.286 OA
HETATM    2  C2          0      47.853  55.396   5.150  1.00  0.00     0.201 C 
HETATM    3  C3          0      47.880  56.254   6.236  1.00  0.00     0.067 C 
HETATM    4  C4          0      48.020  57.628   6.077  1.00  0.00     0.103 C 
HETATM    5  O13         0      48.150  58.115   4.855  1.00  0.00    -0.307 OA
HETATM    6  C14         0      48.093  57.349   3.788  1.00  0.00     0.107 C 
HETATM    7  C15         0      47.827  57.869   2.529  1.00  0.00     0.049 C 
HETATM    8  C16         0      47.517  57.040   1.457  1.00  0.00     0.093 C 
HETATM    9  C18         0      47.996  55.740   1.562  1.00  0.00     0.048 C 
HETATM   10  C19         0      48.316  55.204   2.802  1.00  0.00     0.096 C 
HETATM   11  C21         0      48.175  55.968   3.929  1.00  0.00     0.084 C 
ENDROOT
BRANCH  10  12
HETATM   12  O20         0      48.368  53.822   2.953  1.00  0.00    -0.359 OA
HETATM   13  H20         0      47.784  53.421   3.586  1.00  0.00     0.218 HD
ENDBRANCH  10  12
BRANCH   4  14
HETATM   14  C5          0      47.455  58.485   7.121  1.00  0.00     0.025 C 
HETATM   15  C6          0      46.771  59.659   6.842  1.00  0.00     0.004 C 
HETATM   16  C7          0      45.662  59.960   7.626  1.00  0.00     0.026 C 
HETATM   17  C8          0      45.323  59.193   8.735  1.00  0.00     0.112 C 
HETATM   18  C10         0      46.374  58.473   9.285  1.00  0.00     0.112 C 
HETATM   19  C12         0      47.431  58.110   8.458  1.00  0.00     0.028 C 
BRANCH  17  20
HETATM   20  O9          0      43.999  59.020   9.099  1.00  0.00    -0.357 OA
HETATM   21  H9          0      43.270  59.439   8.655  1.00  0.00     0.218 HD
ENDBRANCH  17  20
BRANCH  18  22
HETATM   22  O11         0      46.137  57.843  10.499  1.00  0.00    -0.357 OA
HETATM   23  H11         0      46.099  58.396  11.270  1.00  0.00     0.218 HD
ENDBRANCH  18  22
ENDBRANCH   4  14
BRANCH   8  24
HETATM   24  O17         0      46.528  57.387   0.529  1.00  0.00    -0.359 OA
HETATM   25  H17         0      45.999  56.729   0.094  1.00  0.00     0.218 HD
ENDBRANCH   8  24
TORSDOF 5
ENDMDL
MODEL 2
REMARK VINA RESULT:      -7.9      1.888      2.002
REMARK  5 active torsions:
REMARK  status: ('A' for Active; 'I' for Inactive)
REMARK    1  A    between atoms: C4_4  and  C5_5 
REMARK    2  A    between atoms: C8_8  and  O9_9 
REMARK    3  A    between atoms: C10_11  and  O11_12 
REMARK    4  A    between atoms: C16_18  and  O17_19 
REMARK    5  A    between atoms: C19_22  and  O20_23 
ROOT
HETATM    1  O1          0      44.005  55.954   4.526  1.00  0.00    -0.286 OA
HETATM    2  C2          0      45.076  56.443   4.981  1.00  0.00     0.201 C 
HETATM    3  C3          0      45.202  56.888   6.286  1.00  0.00     0.067 C 
HETATM    4  C4          0      46.359  57.517   6.733  1.00  0.00     0.103 C 
HETATM    5  O13         0      47.364  57.670   5.889  1.00  0.00    -0.307 OA
HETATM    6  C14         0      47.283  57.299   4.630  1.00  0.00     0.107 C 
HETATM    7  C15         0      48.142  57.801   3.663  1.00  0.00     0.049 C 
HETATM    8  C16         0      47.896  57.609   2.309  1.00  0.00     0.093 C 
HETATM    9  C18         0      47.114  56.500   2.006  1.00  0.00     0.048 C 
HETATM   10  C19         0      46.278  55.943   2.964  1.00  0.00     0.096 C 
HETATM   11  C21         0      46.235  56.480   4.222  1.00  0.00     0.084 C 
ENDROOT
BRANCH  10  12
HETATM   12  O20         0      45.211  55.150   2.557  1.00  0.00    -0.359 OA
HETATM   13  H20         0      45.392  54.249   2.317  1.00  0.00     0.218 HD
ENDBRANCH  10  12
BRANCH   4  14
HETATM   14  C5          0      46.222  58.459   7.845  1.00  0.00     0.025 C 
HETATM   15  C6          0      45.585  59.685   7.718  1.00  0.00     0.004 C 
HETATM   16  C7          0      44.806  60.120   8.786  1.00  0.00     0.026 C 
HETATM   17  C8          0      44.768  59.427   9.991  1.00  0.00     0.112 C 
HETATM   18  C10         0      45.875  58.625  10.234  1.00  0.00     0.112 C 
HETATM   19  C12         0      46.586  58.133   9.145  1.00  0.00     0.028 C 
BRANCH  17  20
HETATM   20  O9          0      43.615  59.398  10.755  1.00  0.00    -0.357 OA
HETATM   21  H9          0      42.770  59.116  10.425  1.00  0.00     0.218 HD
ENDBRANCH  17  20
BRANCH  18  22
HETATM   22  O11         0      45.978  58.062  11.498  1.00  0.00    -0.357 OA
HETATM   23  H11         0      45.758  57.141  11.577  1.00  0.00     0.218 HD
ENDBRANCH  18  22
ENDBRANCH   4  14
BRANCH   8  24
HETATM   24  O17         0      48.125  58.625   1.375  1.00  0.00    -0.359 OA
HETATM   25  H17         0      47.676  59.461   1.427  1.00  0.00     0.218 HD
ENDBRANCH   8  24
TORSDOF 5
ENDMDL
MODEL 3
REMARK VINA RESULT:      -7.9      2.998      5.203
REMARK  5 active torsions:
REMARK  status: ('A' for Active; 'I' for Inactive)
REMARK    1  A    between atoms: C4_4  and  C5_5 
REMARK    2  A    between atoms: C8_8  and  O9_9 
REMARK    3  A    between atoms: C10_11  and  O11_12 
REMARK    4  A    between atoms: C16_18  and  O17_19 
REMARK    5  A    between atoms: C19_22  and  O20_23 
ROOT
HETATM    1  O1          0      48.017  57.606   8.621  1.00  0.00    -0.286 OA
HETATM    2  C2          0      47.673  58.044   7.489  1.00  0.00     0.201 C 
HETATM    3  C3          0      46.406  57.852   6.964  1.00  0.00     0.067 C 
HETATM    4  C4          0      46.084  58.255   5.673  1.00  0.00     0.103 C 
HETATM    5  O13         0      47.011  58.853   4.945  1.00  0.00    -0.307 OA
HETATM    6  C14         0      48.239  59.026   5.382  1.00  0.00     0.107 C 
HETATM    7  C15         0      49.295  59.273   4.516  1.00  0.00     0.049 C 
HETATM    8  C16         0      50.614  59.202   4.947  1.00  0.00     0.093 C 
HETATM    9  C18         0      50.798  59.406   6.310  1.00  0.00     0.048 C 
HETATM   10  C19         0      49.750  59.213   7.200  1.00  0.00     0.096 C 
HETATM   11  C21         0      48.521  58.835   6.730  1.00  0.00     0.084 C 
ENDROOT
BRANCH  10  12
HETATM   12  O20         0      50.031  58.990   8.544  1.00  0.00    -0.359 OA
HETATM   13  H20         0      49.868  58.122   8.895  1.00  0.00     0.218 HD
ENDBRANCH  10  12
BRANCH   4  14
HETATM   14  C5          0      45.014  57.525   4.990  1.00  0.00     0.025 C 
HETATM   15  C6          0      44.512  57.908   3.755  1.00  0.00     0.004 C 
HETATM   16  C7          0      44.182  56.901   2.854  1.00  0.00     0.026 C 
HETATM   17  C8          0      44.221  55.558   3.213  1.00  0.00     0.112 C 
HETATM   18  C10         0      44.110  55.319   4.577  1.00  0.00     0.112 C 
HETATM   19  C12         0      44.527  56.311   5.457  1.00  0.00     0.028 C 
BRANCH  17  20
HETATM   20  O9          0      44.559  54.586   2.289  1.00  0.00    -0.357 OA
HETATM   21  H9          0      43.942  53.954   1.937  1.00  0.00     0.218 HD
ENDBRANCH  17  20
BRANCH  18  22
HETATM   22  O11         0      43.953  53.999   4.973  1.00  0.00    -0.357 OA
HETATM   23  H11         0      44.704  53.426   4.865  1.00  0.00     0.218 HD
ENDBRANCH  18  22
ENDBRANCH   4  14
BRANCH   8  24
HETATM   24  O17         0      51.614  58.640   4.146  1.00  0.00    -0.359 OA
HETATM   25  H17         0      51.634  57.710   3.951  1.00  0.00     0.218 HD
ENDBRANCH   8  24
TORSDOF 5
ENDMDL
MODEL 4
REMARK VINA RESULT:      -7.8      2.578      2.626
REMARK  5 active torsions:
REMARK  status: ('A' for Active; 'I' for Inactive)
REMARK    1  A    between atoms: C4_4  and  C5_5 
REMARK    2  A    between atoms: C8_8  and  O9_9 
REMARK    3  A    between atoms: C10_11  and  O11_12 
REMARK    4  A    between atoms: C16_18  and  O17_19 
REMARK    5  A    between atoms: C19_22  and  O20_23 
ROOT
HETATM    1  O1          0      47.835  54.911   3.654  1.00  0.00    -0.286 OA
HETATM    2  C2          0      47.093  55.897   3.915  1.00  0.00     0.201 C 
HETATM    3  C3          0      47.451  56.890   4.811  1.00  0.00     0.067 C 
HETATM    4  C4          0      46.572  57.910   5.158  1.00  0.00     0.103 C 
HETATM    5  O13         0      45.376  57.935   4.598  1.00  0.00    -0.307 OA
HETATM    6  C14         0      44.972  56.997   3.770  1.00  0.00     0.107 C 
HETATM    7  C15         0      43.627  56.792   3.498  1.00  0.00     0.049 C 
HETATM    8  C16         0      43.191  55.652   2.832  1.00  0.00     0.093 C 
HETATM    9  C18         0      44.143  55.046   2.021  1.00  0.00     0.048 C 
HETATM   10  C19         0      45.497  55.267   2.236  1.00  0.00     0.096 C 
HETATM   11  C21         0      45.897  56.102   3.243  1.00  0.00     0.084 C 
ENDROOT
BRANCH  10  12
HETATM   12  O20         0      46.423  54.356   1.737  1.00  0.00    -0.359 OA
HETATM   13  H20         0      47.310  54.659   1.588  1.00  0.00     0.218 HD
ENDBRANCH  10  12
BRANCH   4  14
HETATM   14  C5          0      46.747  58.525   6.476  1.00  0.00     0.025 C 
HETATM   15  C6          0      46.346  59.822   6.759  1.00  0.00     0.004 C 
HETATM   16  C7          0      45.792  60.067   8.011  1.00  0.00     0.026 C 
HETATM   17  C8          0      45.760  59.088   8.999  1.00  0.00     0.112 C 
HETATM   18  C10         0      46.714  58.089   8.855  1.00  0.00     0.112 C 
HETATM   19  C12         0      47.188  57.807   7.580  1.00  0.00     0.028 C 
BRANCH  17  20
HETATM   20  O9          0      44.718  59.031   9.907  1.00  0.00    -0.357 OA
HETATM   21  H9          0      43.941  59.576   9.853  1.00  0.00     0.218 HD
ENDBRANCH  17  20
BRANCH  18  22
HETATM   22  O11         0      46.850  57.196   9.908  1.00  0.00    -0.357 OA
HETATM   23  H11         0      47.253  57.526  10.703  1.00  0.00     0.218 HD
ENDBRANCH  18  22
ENDBRANCH   4  14
BRANCH   8  24
HETATM   24  O17         0      42.019  54.990   3.211  1.00  0.00    -0.359 OA
HETATM   25  H17         0      41.700  55.011   4.106  1.00  0.00     0.218 HD
ENDBRANCH   8  24
TORSDOF 5
ENDMDL
MODEL 5
REMARK VINA RESULT:      -7.7     16.698     18.304
REMARK  5 active torsions:
REMARK  status: ('A' for Active; 'I' for Inactive)
REMARK    1  A    between atoms: C4_4  and  C5_5 
REMARK    2  A    between atoms: C8_8  and  O9_9 
REMARK    3  A    between atoms: C10_11  and  O11_12 
REMARK    4  A    between atoms: C16_18  and  O17_19 
REMARK    5  A    between atoms: C19_22  and  O20_23 
ROOT
HETATM    1  O1          0      46.706  43.519  15.246  1.00  0.00    -0.286 OA
HETATM    2  C2          0      46.329  43.574  16.449  1.00  0.00     0.201 C 
HETATM    3  C3          0      45.054  43.970  16.817  1.00  0.00     0.067 C 
HETATM    4  C4          0      44.695  44.120  18.152  1.00  0.00     0.103 C 
HETATM    5  O13         0      45.594  43.857  19.084  1.00  0.00    -0.307 OA
HETATM    6  C14         0      46.829  43.515  18.788  1.00  0.00     0.107 C 
HETATM    7  C15         0      47.860  43.627  19.710  1.00  0.00     0.049 C 
HETATM    8  C16         0      49.189  43.510  19.323  1.00  0.00     0.093 C 
HETATM    9  C18         0      49.401  42.776  18.162  1.00  0.00     0.048 C 
HETATM   10  C19         0      48.377  42.604  17.240  1.00  0.00     0.096 C 
HETATM   11  C21         0      47.145  43.147  17.485  1.00  0.00     0.084 C 
ENDROOT
BRANCH  10  12
HETATM   12  O20         0      48.693  42.268  15.928  1.00  0.00    -0.359 OA
HETATM   13  H20         0      48.172  41.598  15.502  1.00  0.00     0.218 HD
ENDBRANCH  10  12
BRANCH   4  14
HETATM   14  C5          0      43.623  45.070  18.455  1.00  0.00     0.025 C 
HETATM   15  C6          0      43.416  45.591  19.724  1.00  0.00     0.004 C 
HETATM   16  C7          0      43.037  46.926  19.819  1.00  0.00     0.026 C 
HETATM   17  C8          0      42.743  47.683  18.690  1.00  0.00     0.112 C 
HETATM   18  C10         0      42.366  46.942  17.577  1.00  0.00     0.112 C 
HETATM   19  C12         0      42.830  45.636  17.465  1.00  0.00     0.028 C 
BRANCH  17  20
HETATM   20  O9          0      43.020  49.038  18.653  1.00  0.00    -0.357 OA
HETATM   21  H9          0      43.858  49.412  18.899  1.00  0.00     0.218 HD
ENDBRANCH  17  20
BRANCH  18  22
HETATM   22  O11         0      41.882  47.649  16.486  1.00  0.00    -0.357 OA
HETATM   23  H11         0      41.661  48.563  16.629  1.00  0.00     0.218 HD
ENDBRANCH  18  22
ENDBRANCH   4  14
BRANCH   8  24
HETATM   24  O17         0      50.181  44.339  19.861  1.00  0.00    -0.359 OA
HETATM   25  H17         0      50.812  44.016  20.493  1.00  0.00     0.218 HD
ENDBRANCH   8  24
TORSDOF 5
ENDMDL
MODEL 6
REMARK VINA RESULT:      -7.6      3.068      5.583
REMARK  5 active torsions:
REMARK  status: ('A' for Active; 'I' for Inactive)
REMARK    1  A    between atoms: C4_4  and  C5_5 
REMARK    2  A    between atoms: C8_8  and  O9_9 
REMARK    3  A    between atoms: C10_11  and  O11_12 
REMARK    4  A    between atoms: C16_18  and  O17_19 
REMARK    5  A    between atoms: C19_22  and  O20_23 
ROOT
HETATM    1  O1          0      49.263  59.288   3.010  1.00  0.00    -0.286 OA
HETATM    2  C2          0      48.738  58.553   3.891  1.00  0.00     0.201 C 
HETATM    3  C3          0      47.611  57.785   3.653  1.00  0.00     0.067 C 
HETATM    4  C4          0      46.994  57.064   4.669  1.00  0.00     0.103 C 
HETATM    5  O13         0      47.515  57.103   5.883  1.00  0.00    -0.307 OA
HETATM    6  C14         0      48.561  57.846   6.170  1.00  0.00     0.107 C 
HETATM    7  C15         0      48.865  58.206   7.475  1.00  0.00     0.049 C 
HETATM    8  C16         0      49.809  59.189   7.751  1.00  0.00     0.093 C 
HETATM    9  C18         0      50.763  59.382   6.759  1.00  0.00     0.048 C 
HETATM   10  C19         0      50.510  58.990   5.451  1.00  0.00     0.096 C 
HETATM   11  C21         0      49.318  58.393   5.140  1.00  0.00     0.084 C 
ENDROOT
BRANCH  10  12
HETATM   12  O20         0      51.244  59.560   4.416  1.00  0.00    -0.359 OA
HETATM   13  H20         0      52.189  59.469   4.438  1.00  0.00     0.218 HD
ENDBRANCH  10  12
BRANCH   4  14
HETATM   14  C5          0      45.561  56.797   4.526  1.00  0.00     0.025 C 
HETATM   15  C6          0      44.741  57.527   3.678  1.00  0.00     0.004 C 
HETATM   16  C7          0      43.750  56.837   2.988  1.00  0.00     0.026 C 
HETATM   17  C8          0      43.492  55.492   3.232  1.00  0.00     0.112 C 
HETATM   18  C10         0      43.896  55.042   4.482  1.00  0.00     0.112 C 
HETATM   19  C12         0      44.947  55.698   5.112  1.00  0.00     0.028 C 
BRANCH  17  20
HETATM   20  O9          0      43.066  54.656   2.215  1.00  0.00    -0.357 OA
HETATM   21  H9          0      42.154  54.451   2.047  1.00  0.00     0.218 HD
ENDBRANCH  17  20
BRANCH  18  22
HETATM   22  O11         0      43.496  53.765   4.849  1.00  0.00    -0.357 OA
HETATM   23  H11         0      42.722  53.417   4.421  1.00  0.00     0.218 HD
ENDBRANCH  18  22
ENDBRANCH   4  14
BRANCH   8  24
HETATM   24  O17         0      49.611  60.124   8.773  1.00  0.00    -0.359 OA
HETATM   25  H17         0      50.339  60.575   9.184  1.00  0.00     0.218 HD
ENDBRANCH   8  24
TORSDOF 5
ENDMDL
MODEL 7
REMARK VINA RESULT:      -7.6      3.301      5.320
REMARK  5 active torsions:
REMARK  status: ('A' for Active; 'I' for Inactive)
REMARK    1  A    between atoms: C4_4  and  C5_5 
REMARK    2  A    between atoms: C8_8  and  O9_9 
REMARK    3  A    between atoms: C10_11  and  O11_12 
REMARK    4  A    between atoms: C16_18  and  O17_19 
REMARK    5  A    between atoms: C19_22  and  O20_23 
ROOT
HETATM    1  O1          0      45.114  56.036   1.573  1.00  0.00    -0.286 OA
HETATM    2  C2          0      45.670  56.460   2.624  1.00  0.00     0.201 C 
HETATM    3  C3          0      46.741  57.337   2.604  1.00  0.00     0.067 C 
HETATM    4  C4          0      47.400  57.708   3.771  1.00  0.00     0.103 C 
HETATM    5  O13         0      46.973  57.222   4.923  1.00  0.00    -0.307 OA
HETATM    6  C14         0      45.985  56.357   4.994  1.00  0.00     0.107 C 
HETATM    7  C15         0      45.796  55.553   6.108  1.00  0.00     0.049 C 
HETATM    8  C16         0      44.920  54.474   6.080  1.00  0.00     0.093 C 
HETATM    9  C18         0      43.905  54.568   5.136  1.00  0.00     0.048 C 
HETATM   10  C19         0      44.041  55.399   4.033  1.00  0.00     0.096 C 
HETATM   11  C21         0      45.178  56.144   3.881  1.00  0.00     0.084 C 
ENDROOT
BRANCH  10  12
HETATM   12  O20         0      43.257  55.168   2.906  1.00  0.00    -0.359 OA
HETATM   13  H20         0      42.798  54.339   2.846  1.00  0.00     0.218 HD
ENDBRANCH  10  12
BRANCH   4  14
HETATM   14  C5          0      48.804  58.104   3.649  1.00  0.00     0.025 C 
HETATM   15  C6          0      49.202  59.423   3.485  1.00  0.00     0.004 C 
HETATM   16  C7          0      50.356  59.835   4.144  1.00  0.00     0.026 C 
HETATM   17  C8          0      51.163  58.935   4.833  1.00  0.00     0.112 C 
HETATM   18  C10         0      51.046  57.616   4.418  1.00  0.00     0.112 C 
HETATM   19  C12         0      49.849  57.209   3.840  1.00  0.00     0.028 C 
BRANCH  17  20
HETATM   20  O9          0      51.848  59.325   5.970  1.00  0.00    -0.357 OA
HETATM   21  H9          0      52.123  58.724   6.653  1.00  0.00     0.218 HD
ENDBRANCH  17  20
BRANCH  18  22
HETATM   22  O11         0      51.959  56.710   4.938  1.00  0.00    -0.357 OA
HETATM   23  H11         0      52.458  56.990   5.697  1.00  0.00     0.218 HD
ENDBRANCH  18  22
ENDBRANCH   4  14
BRANCH   8  24
HETATM   24  O17         0      45.236  53.262   6.704  1.00  0.00    -0.359 OA
HETATM   25  H17         0      45.870  52.660   6.333  1.00  0.00     0.218 HD
ENDBRANCH   8  24
TORSDOF 5
ENDMDL
MODEL 8
REMARK VINA RESULT:      -7.4      2.772      3.773
REMARK  5 active torsions:
REMARK  status: ('A' for Active; 'I' for Inactive)
REMARK    1  A    between atoms: C4_4  and  C5_5 
REMARK    2  A    between atoms: C8_8  and  O9_9 
REMARK    3  A    between atoms: C10_11  and  O11_12 
REMARK    4  A    between atoms: C16_18  and  O17_19 
REMARK    5  A    between atoms: C19_22  and  O20_23 
ROOT
HETATM    1  O1          0      48.570  54.941   2.821  1.00  0.00    -0.286 OA
HETATM    2  C2          0      47.983  56.039   3.025  1.00  0.00     0.201 C 
HETATM    3  C3          0      48.639  57.164   3.496  1.00  0.00     0.067 C 
HETATM    4  C4          0      47.951  58.331   3.809  1.00  0.00     0.103 C 
HETATM    5  O13         0      46.643  58.363   3.630  1.00  0.00    -0.307 OA
HETATM    6  C14         0      45.966  57.312   3.221  1.00  0.00     0.107 C 
HETATM    7  C15         0      44.596  57.206   3.409  1.00  0.00     0.049 C 
HETATM    8  C16         0      43.932  56.002   3.211  1.00  0.00     0.093 C 
HETATM    9  C18         0      44.563  55.119   2.343  1.00  0.00     0.048 C 
HETATM   10  C19         0      45.925  55.226   2.095  1.00  0.00     0.096 C 
HETATM   11  C21         0      46.648  56.219   2.697  1.00  0.00     0.084 C 
ENDROOT
BRANCH  10  12
HETATM   12  O20         0      46.615  54.124   1.601  1.00  0.00    -0.359 OA
HETATM   13  H20         0      47.229  53.688   2.179  1.00  0.00     0.218 HD
ENDBRANCH  10  12
BRANCH   4  14
HETATM   14  C5          0      48.547  59.209   4.817  1.00  0.00     0.025 C 
HETATM   15  C6          0      47.807  59.800   5.831  1.00  0.00     0.004 C 
HETATM   16  C7          0      48.398  59.897   7.087  1.00  0.00     0.026 C 
HETATM   17  C8          0      49.726  59.543   7.298  1.00  0.00     0.112 C 
HETATM   18  C10         0      50.523  59.582   6.162  1.00  0.00     0.112 C 
HETATM   19  C12         0      49.919  59.397   4.924  1.00  0.00     0.028 C 
BRANCH  17  20
HETATM   20  O9          0      50.132  58.999   8.504  1.00  0.00    -0.357 OA
HETATM   21  H9          0      50.956  58.541   8.626  1.00  0.00     0.218 HD
ENDBRANCH  17  20
BRANCH  18  22
HETATM   22  O11         0      51.889  59.423   6.348  1.00  0.00    -0.357 OA
HETATM   23  H11         0      52.205  59.426   7.244  1.00  0.00     0.218 HD
ENDBRANCH  18  22
ENDBRANCH   4  14
BRANCH   8  24
HETATM   24  O17         0      42.907  55.585   4.068  1.00  0.00    -0.359 OA
HETATM   25  H17         0      42.026  55.424   3.751  1.00  0.00     0.218 HD
ENDBRANCH   8  24
TORSDOF 5
ENDMDL
MODEL 9
REMARK VINA RESULT:      -7.2      1.757      2.559
REMARK  5 active torsions:
REMARK  status: ('A' for Active; 'I' for Inactive)
REMARK    1  A    between atoms: C4_4  and  C5_5 
REMARK    2  A    between atoms: C8_8  and  O9_9 
REMARK    3  A    between atoms: C10_11  and  O11_12 
REMARK    4  A    between atoms: C16_18  and  O17_19 
REMARK    5  A    between atoms: C19_22  and  O20_23 
ROOT
HETATM    1  O1          0      45.658  57.653   3.357  1.00  0.00    -0.286 OA
HETATM    2  C2          0      46.289  57.432   4.427  1.00  0.00     0.201 C 
HETATM    3  C3          0      45.816  57.816   5.670  1.00  0.00     0.067 C 
HETATM    4  C4          0      46.578  57.653   6.822  1.00  0.00     0.103 C 
HETATM    5  O13         0      47.773  57.099   6.719  1.00  0.00    -0.307 OA
HETATM    6  C14         0      48.285  56.752   5.559  1.00  0.00     0.107 C 
HETATM    7  C15         0      49.648  56.554   5.391  1.00  0.00     0.049 C 
HETATM    8  C16         0      50.211  56.440   4.126  1.00  0.00     0.093 C 
HETATM    9  C18         0      49.340  56.007   3.133  1.00  0.00     0.048 C 
HETATM   10  C19         0      47.967  56.147   3.288  1.00  0.00     0.096 C 
HETATM   11  C21         0      47.467  56.701   4.435  1.00  0.00     0.084 C 
ENDROOT
BRANCH  10  12
HETATM   12  O20         0      47.150  56.128   2.163  1.00  0.00    -0.359 OA
HETATM   13  H20         0      46.413  55.529   2.158  1.00  0.00     0.218 HD
ENDBRANCH  10  12
BRANCH   4  14
HETATM   14  C5          0      46.320  58.573   7.931  1.00  0.00     0.025 C 
HETATM   15  C6          0      45.588  59.743   7.783  1.00  0.00     0.004 C 
HETATM   16  C7          0      44.735  60.104   8.821  1.00  0.00     0.026 C 
HETATM   17  C8          0      44.708  59.403  10.021  1.00  0.00     0.112 C 
HETATM   18  C10         0      45.868  58.694  10.305  1.00  0.00     0.112 C 
HETATM   19  C12         0      46.659  58.271   9.243  1.00  0.00     0.028 C 
BRANCH  17  20
HETATM   20  O9          0      43.533  59.272  10.740  1.00  0.00    -0.357 OA
HETATM   21  H9          0      42.889  58.593  10.579  1.00  0.00     0.218 HD
ENDBRANCH  17  20
BRANCH  18  22
HETATM   22  O11         0      45.969  58.133  11.570  1.00  0.00    -0.357 OA
HETATM   23  H11         0      46.289  57.240  11.620  1.00  0.00     0.218 HD
ENDBRANCH  18  22
ENDBRANCH   4  14
BRANCH   8  24
HETATM   24  O17         0      51.441  57.032   3.818  1.00  0.00    -0.359 OA
HETATM   25  H17         0      52.187  56.966   4.402  1.00  0.00     0.218 HD
ENDBRANCH   8  24
TORSDOF 5
ENDMDL
