MODEL 1
REMARK VINA RESULT:      -6.6      0.000      0.000
REMARK  5 active torsions:
REMARK  status: ('A' for Active; 'I' for Inactive)
REMARK    1  A    between atoms: C4_4  and  C5_5 
REMARK    2  A    between atoms: C8_8  and  O9_9 
REMARK    3  A    between atoms: C10_11  and  O11_12 
REMARK    4  A    between atoms: C16_18  and  O17_19 
REMARK    5  A    between atoms: C19_22  and  O20_23 
ROOT
HETATM    1  O1          0      17.210  93.051 -15.188  1.00  0.00    -0.286 OA
HETATM    2  C2          0      16.528  92.037 -15.502  1.00  0.00     0.201 C 
HETATM    3  C3          0      15.242  91.824 -15.035  1.00  0.00     0.067 C 
HETATM    4  C4          0      14.551  90.650 -15.313  1.00  0.00     0.103 C 
HETATM    5  O13         0      15.137  89.731 -16.060  1.00  0.00    -0.307 OA
HETATM    6  C14         0      16.369  89.867 -16.498  1.00  0.00     0.107 C 
HETATM    7  C15         0      17.118  88.779 -16.923  1.00  0.00     0.049 C 
HETATM    8  C16         0      18.487  88.886 -17.140  1.00  0.00     0.093 C 
HETATM    9  C18         0      18.937  90.169 -17.429  1.00  0.00     0.048 C 
HETATM   10  C19         0      18.189  91.279 -17.060  1.00  0.00     0.096 C 
HETATM   11  C21         0      16.992  91.108 -16.421  1.00  0.00     0.084 C 
ENDROOT
BRANCH  10  12
HETATM   12  O20         0      18.817  92.516 -16.951  1.00  0.00    -0.359 OA
HETATM   13  H20         0      19.612  92.657 -17.450  1.00  0.00     0.218 HD
ENDBRANCH  10  12
BRANCH   4  14
HETATM   14  C5          0      13.528  90.232 -14.353  1.00  0.00     0.025 C 
HETATM   15  C6          0      13.713  90.298 -12.980  1.00  0.00     0.004 C 
HETATM   16  C7          0      12.624  90.676 -12.201  1.00  0.00     0.026 C 
HETATM   17  C8          0      11.359  90.852 -12.751  1.00  0.00     0.112 C 
HETATM   18  C10         0      11.145  90.169 -13.941  1.00  0.00     0.112 C 
HETATM   19  C12         0      12.242  89.879 -14.742  1.00  0.00     0.028 C 
BRANCH  17  20
HETATM   20  O9          0      10.490  91.801 -12.243  1.00  0.00    -0.357 OA
HETATM   21  H9          0      10.233  91.846 -11.329  1.00  0.00     0.218 HD
ENDBRANCH  17  20
BRANCH  18  22
HETATM   22  O11         0       9.847  90.156 -14.433  1.00  0.00    -0.357 OA
HETATM   23  H11         0       9.154  89.957 -13.813  1.00  0.00     0.218 HD
ENDBRANCH  18  22
ENDBRANCH   4  14
BRANCH   8  24
HETATM   24  O17         0      19.367  87.865 -16.765  1.00  0.00    -0.359 OA
HETATM   25  H17         0      19.418  87.048 -17.247  1.00  0.00     0.218 HD
ENDBRANCH   8  24
TORSDOF 5
ENDMDL
MODEL 2
REMARK VINA RESULT:      -6.2      1.647      6.529
REMARK  5 active torsions:
REMARK  status: ('A' for Active; 'I' for Inactive)
REMARK    1  A    between atoms: C4_4  and  C5_5 
REMARK    2  A    between atoms: C8_8  and  O9_9 
REMARK    3  A    between atoms: C10_11  and  O11_12 
REMARK    4  A    between atoms: C16_18  and  O17_19 
REMARK    5  A    between atoms: C19_22  and  O20_23 
ROOT
HETATM    1  O1          0      14.029  94.393 -14.832  1.00  0.00    -0.286 OA
HETATM    2  C2          0      14.457  93.229 -14.602  1.00  0.00     0.201 C 
HETATM    3  C3          0      15.517  92.668 -15.294  1.00  0.00     0.067 C 
HETATM    4  C4          0      15.902  91.348 -15.092  1.00  0.00     0.103 C 
HETATM    5  O13         0      15.247  90.625 -14.201  1.00  0.00    -0.307 OA
HETATM    6  C14         0      14.210  91.097 -13.544  1.00  0.00     0.107 C 
HETATM    7  C15         0      13.291  90.258 -12.929  1.00  0.00     0.049 C 
HETATM    8  C16         0      12.075  90.740 -12.461  1.00  0.00     0.093 C 
HETATM    9  C18         0      12.058  92.097 -12.158  1.00  0.00     0.048 C 
HETATM   10  C19         0      12.992  92.956 -12.720  1.00  0.00     0.096 C 
HETATM   11  C21         0      13.948  92.462 -13.565  1.00  0.00     0.084 C 
ENDROOT
BRANCH  10  12
HETATM   12  O20         0      12.718  94.320 -12.771  1.00  0.00    -0.359 OA
HETATM   13  H20         0      12.083  94.622 -13.408  1.00  0.00     0.218 HD
ENDBRANCH  10  12
BRANCH   4  14
HETATM   14  C5          0      16.562  90.665 -16.206  1.00  0.00     0.025 C 
HETATM   15  C6          0      17.418  91.313 -17.085  1.00  0.00     0.004 C 
HETATM   16  C7          0      18.541  90.618 -17.522  1.00  0.00     0.026 C 
HETATM   17  C8          0      18.738  89.278 -17.206  1.00  0.00     0.112 C 
HETATM   18  C10         0      17.580  88.579 -16.892  1.00  0.00     0.112 C 
HETATM   19  C12         0      16.501  89.288 -16.376  1.00  0.00     0.028 C 
BRANCH  17  20
HETATM   20  O9          0      20.013  88.774 -17.020  1.00  0.00    -0.357 OA
HETATM   21  H9          0      20.202  87.852 -16.888  1.00  0.00     0.218 HD
ENDBRANCH  17  20
BRANCH  18  22
HETATM   22  O11         0      17.694  87.203 -16.754  1.00  0.00    -0.357 OA
HETATM   23  H11         0      17.319  86.818 -15.970  1.00  0.00     0.218 HD
ENDBRANCH  18  22
ENDBRANCH   4  14
BRANCH   8  24
HETATM   24  O17         0      10.894  90.005 -12.609  1.00  0.00    -0.359 OA
HETATM   25  H17         0      10.195  90.294 -13.183  1.00  0.00     0.218 HD
ENDBRANCH   8  24
TORSDOF 5
ENDMDL
MODEL 3
REMARK VINA RESULT:      -6.2      9.300     10.836
REMARK  5 active torsions:
REMARK  status: ('A' for Active; 'I' for Inactive)
REMARK    1  A    between atoms: C4_4  and  C5_5 
REMARK    2  A    between atoms: C8_8  and  O9_9 
REMARK    3  A    between atoms: C10_11  and  O11_12 
REMARK    4  A    between atoms: C16_18  and  O17_19 
REMARK    5  A    between atoms: C19_22  and  O20_23 
ROOT
HETATM    1  O1          0      18.135  86.320 -22.926  1.00  0.00    -0.286 OA
HETATM    2  C2          0      17.366  85.775 -23.765  1.00  0.00     0.201 C 
HETATM    3  C3          0      15.987  85.808 -23.651  1.00  0.00     0.067 C 
HETATM    4  C4          0      15.166  85.113 -24.532  1.00  0.00     0.103 C 
HETATM    5  O13         0      15.725  84.424 -25.511  1.00  0.00    -0.307 OA
HETATM    6  C14         0      17.030  84.329 -25.642  1.00  0.00     0.107 C 
HETATM    7  C15         0      17.618  83.317 -26.388  1.00  0.00     0.049 C 
HETATM    8  C16         0      18.984  83.069 -26.317  1.00  0.00     0.093 C 
HETATM    9  C18         0      19.758  84.154 -25.924  1.00  0.00     0.048 C 
HETATM   10  C19         0      19.192  85.205 -25.217  1.00  0.00     0.096 C 
HETATM   11  C21         0      17.856  85.182 -24.919  1.00  0.00     0.084 C 
ENDROOT
BRANCH  10  12
HETATM   12  O20         0      20.013  86.041 -24.466  1.00  0.00    -0.359 OA
HETATM   13  H20         0      20.953  85.953 -24.571  1.00  0.00     0.218 HD
ENDBRANCH  10  12
BRANCH   4  14
HETATM   14  C5          0      13.853  84.695 -24.037  1.00  0.00     0.025 C 
HETATM   15  C6          0      13.462  83.366 -23.974  1.00  0.00     0.004 C 
HETATM   16  C7          0      12.704  82.969 -22.876  1.00  0.00     0.026 C 
HETATM   17  C8          0      12.237  83.886 -21.942  1.00  0.00     0.112 C 
HETATM   18  C10         0      12.131  85.189 -22.411  1.00  0.00     0.112 C 
HETATM   19  C12         0      12.960  85.585 -23.454  1.00  0.00     0.028 C 
BRANCH  17  20
HETATM   20  O9          0      12.105  83.537 -20.609  1.00  0.00    -0.357 OA
HETATM   21  H9          0      12.556  82.803 -20.209  1.00  0.00     0.218 HD
ENDBRANCH  17  20
BRANCH  18  22
HETATM   22  O11         0      11.495  86.105 -21.585  1.00  0.00    -0.357 OA
HETATM   23  H11         0      10.678  86.473 -21.900  1.00  0.00     0.218 HD
ENDBRANCH  18  22
ENDBRANCH   4  14
BRANCH   8  24
HETATM   24  O17         0      19.488  81.764 -26.309  1.00  0.00    -0.359 OA
HETATM   25  H17         0      19.963  81.416 -25.563  1.00  0.00     0.218 HD
ENDBRANCH   8  24
TORSDOF 5
ENDMDL
MODEL 4
REMARK VINA RESULT:      -6.1      1.551      6.922
REMARK  5 active torsions:
REMARK  status: ('A' for Active; 'I' for Inactive)
REMARK    1  A    between atoms: C4_4  and  C5_5 
REMARK    2  A    between atoms: C8_8  and  O9_9 
REMARK    3  A    between atoms: C10_11  and  O11_12 
REMARK    4  A    between atoms: C16_18  and  O17_19 
REMARK    5  A    between atoms: C19_22  and  O20_23 
ROOT
HETATM    1  O1          0      11.605  89.255 -15.509  1.00  0.00    -0.286 OA
HETATM    2  C2          0      12.540  90.044 -15.199  1.00  0.00     0.201 C 
HETATM    3  C3          0      13.725  90.119 -15.911  1.00  0.00     0.067 C 
HETATM    4  C4          0      14.778  90.923 -15.489  1.00  0.00     0.103 C 
HETATM    5  O13         0      14.627  91.644 -14.392  1.00  0.00    -0.307 OA
HETATM    6  C14         0      13.537  91.581 -13.659  1.00  0.00     0.107 C 
HETATM    7  C15         0      13.519  92.002 -12.337  1.00  0.00     0.049 C 
HETATM    8  C16         0      12.453  91.702 -11.499  1.00  0.00     0.093 C 
HETATM    9  C18         0      11.246  91.462 -12.146  1.00  0.00     0.048 C 
HETATM   10  C19         0      11.225  91.085 -13.481  1.00  0.00     0.096 C 
HETATM   11  C21         0      12.400  90.964 -14.171  1.00  0.00     0.084 C 
ENDROOT
BRANCH  10  12
HETATM   12  O20         0      10.102  90.439 -13.988  1.00  0.00    -0.359 OA
HETATM   13  H20         0      10.116  89.491 -14.033  1.00  0.00     0.218 HD
ENDBRANCH  10  12
BRANCH   4  14
HETATM   14  C5          0      16.129  90.521 -15.887  1.00  0.00     0.025 C 
HETATM   15  C6          0      16.740  89.368 -15.415  1.00  0.00     0.004 C 
HETATM   16  C7          0      17.523  88.642 -16.307  1.00  0.00     0.026 C 
HETATM   17  C8          0      17.799  89.113 -17.586  1.00  0.00     0.112 C 
HETATM   18  C10         0      17.694  90.490 -17.732  1.00  0.00     0.112 C 
HETATM   19  C12         0      16.839  91.181 -16.881  1.00  0.00     0.028 C 
BRANCH  17  20
HETATM   20  O9          0      17.951  88.237 -18.646  1.00  0.00    -0.357 OA
HETATM   21  H9          0      18.220  88.505 -19.517  1.00  0.00     0.218 HD
ENDBRANCH  17  20
BRANCH  18  22
HETATM   22  O11         0      18.140  91.031 -18.929  1.00  0.00    -0.357 OA
HETATM   23  H11         0      18.239  90.432 -19.661  1.00  0.00     0.218 HD
ENDBRANCH  18  22
ENDBRANCH   4  14
BRANCH   8  24
HETATM   24  O17         0      12.655  91.340 -10.162  1.00  0.00    -0.359 OA
HETATM   25  H17         0      13.128  91.901  -9.559  1.00  0.00     0.218 HD
ENDBRANCH   8  24
TORSDOF 5
ENDMDL
MODEL 5
REMARK VINA RESULT:      -5.8      1.863      2.610
REMARK  5 active torsions:
REMARK  status: ('A' for Active; 'I' for Inactive)
REMARK    1  A    between atoms: C4_4  and  C5_5 
REMARK    2  A    between atoms: C8_8  and  O9_9 
REMARK    3  A    between atoms: C10_11  and  O11_12 
REMARK    4  A    between atoms: C16_18  and  O17_19 
REMARK    5  A    between atoms: C19_22  and  O20_23 
ROOT
HETATM    1  O1          0      17.140  88.513 -14.895  1.00  0.00    -0.286 OA
HETATM    2  C2          0      16.557  89.600 -15.161  1.00  0.00     0.201 C 
HETATM    3  C3          0      15.584  90.149 -14.344  1.00  0.00     0.067 C 
HETATM    4  C4          0      14.885  91.293 -14.712  1.00  0.00     0.103 C 
HETATM    5  O13         0      15.178  91.874 -15.861  1.00  0.00    -0.307 OA
HETATM    6  C14         0      16.066  91.373 -16.691  1.00  0.00     0.107 C 
HETATM    7  C15         0      16.095  91.727 -18.033  1.00  0.00     0.049 C 
HETATM    8  C16         0      16.857  91.015 -18.951  1.00  0.00     0.093 C 
HETATM    9  C18         0      17.941  90.334 -18.410  1.00  0.00     0.048 C 
HETATM   10  C19         0      17.967  90.005 -17.062  1.00  0.00     0.096 C 
HETATM   11  C21         0      16.924  90.370 -16.254  1.00  0.00     0.084 C 
ENDROOT
BRANCH  10  12
HETATM   12  O20         0      18.801  88.980 -16.627  1.00  0.00    -0.359 OA
HETATM   13  H20         0      18.410  88.262 -16.145  1.00  0.00     0.218 HD
ENDBRANCH  10  12
BRANCH   4  14
HETATM   14  C5          0      13.539  91.462 -14.159  1.00  0.00     0.025 C 
HETATM   15  C6          0      12.862  92.673 -14.185  1.00  0.00     0.004 C 
HETATM   16  C7          0      11.493  92.640 -14.427  1.00  0.00     0.026 C 
HETATM   17  C8          0      10.794  91.440 -14.506  1.00  0.00     0.112 C 
HETATM   18  C10         0      11.400  90.373 -13.857  1.00  0.00     0.112 C 
HETATM   19  C12         0      12.781  90.391 -13.704  1.00  0.00     0.028 C 
BRANCH  17  20
HETATM   20  O9          0       9.704  91.309 -15.348  1.00  0.00    -0.357 OA
HETATM   21  H9          0       8.822  91.573 -15.114  1.00  0.00     0.218 HD
ENDBRANCH  17  20
BRANCH  18  22
HETATM   22  O11         0      10.660  89.205 -13.743  1.00  0.00    -0.357 OA
HETATM   23  H11         0      10.343  88.816 -14.550  1.00  0.00     0.218 HD
ENDBRANCH  18  22
ENDBRANCH   4  14
BRANCH   8  24
HETATM   24  O17         0      16.378  90.735 -20.235  1.00  0.00    -0.359 OA
HETATM   25  H17         0      15.757  90.034 -20.395  1.00  0.00     0.218 HD
ENDBRANCH   8  24
TORSDOF 5
ENDMDL
MODEL 6
REMARK VINA RESULT:      -5.6     10.304     12.070
REMARK  5 active torsions:
REMARK  status: ('A' for Active; 'I' for Inactive)
REMARK    1  A    between atoms: C4_4  and  C5_5 
REMARK    2  A    between atoms: C8_8  and  O9_9 
REMARK    3  A    between atoms: C10_11  and  O11_12 
REMARK    4  A    between atoms: C16_18  and  O17_19 
REMARK    5  A    between atoms: C19_22  and  O20_23 
ROOT
HETATM    1  O1          0      16.701  83.735 -28.063  1.00  0.00    -0.286 OA
HETATM    2  C2          0      16.520  83.605 -26.821  1.00  0.00     0.201 C 
HETATM    3  C3          0      15.305  83.225 -26.276  1.00  0.00     0.067 C 
HETATM    4  C4          0      15.102  83.189 -24.901  1.00  0.00     0.103 C 
HETATM    5  O13         0      16.107  83.506 -24.103  1.00  0.00    -0.307 OA
HETATM    6  C14         0      17.269  83.909 -24.569  1.00  0.00     0.107 C 
HETATM    7  C15         0      18.169  84.611 -23.779  1.00  0.00     0.049 C 
HETATM    8  C16         0      19.270  85.251 -24.335  1.00  0.00     0.093 C 
HETATM    9  C18         0      19.702  84.728 -25.548  1.00  0.00     0.048 C 
HETATM   10  C19         0      18.842  83.981 -26.341  1.00  0.00     0.096 C 
HETATM   11  C21         0      17.562  83.744 -25.918  1.00  0.00     0.084 C 
ENDROOT
BRANCH  10  12
HETATM   12  O20         0      19.116  83.841 -27.698  1.00  0.00    -0.359 OA
HETATM   13  H20         0      19.553  84.559 -28.140  1.00  0.00     0.218 HD
ENDBRANCH  10  12
BRANCH   4  14
HETATM   14  C5          0      13.733  83.379 -24.420  1.00  0.00     0.025 C 
HETATM   15  C6          0      12.618  83.092 -25.194  1.00  0.00     0.004 C 
HETATM   16  C7          0      11.519  82.526 -24.556  1.00  0.00     0.026 C 
HETATM   17  C8          0      11.477  82.373 -23.174  1.00  0.00     0.112 C 
HETATM   18  C10         0      12.309  83.234 -22.470  1.00  0.00     0.112 C 
HETATM   19  C12         0      13.446  83.718 -23.104  1.00  0.00     0.028 C 
BRANCH  17  20
HETATM   20  O9          0      10.815  81.303 -22.599  1.00  0.00    -0.357 OA
HETATM   21  H9          0      10.868  80.412 -22.925  1.00  0.00     0.218 HD
ENDBRANCH  17  20
BRANCH  18  22
HETATM   22  O11         0      12.167  83.255 -21.090  1.00  0.00    -0.357 OA
HETATM   23  H11         0      11.523  83.855 -20.732  1.00  0.00     0.218 HD
ENDBRANCH  18  22
ENDBRANCH   4  14
BRANCH   8  24
HETATM   24  O17         0      19.685  86.510 -23.887  1.00  0.00    -0.359 OA
HETATM   25  H17         0      19.795  87.241 -24.484  1.00  0.00     0.218 HD
ENDBRANCH   8  24
TORSDOF 5
ENDMDL
MODEL 7
REMARK VINA RESULT:      -5.5     10.217     11.806
REMARK  5 active torsions:
REMARK  status: ('A' for Active; 'I' for Inactive)
REMARK    1  A    between atoms: C4_4  and  C5_5 
REMARK    2  A    between atoms: C8_8  and  O9_9 
REMARK    3  A    between atoms: C10_11  and  O11_12 
REMARK    4  A    between atoms: C16_18  and  O17_19 
REMARK    5  A    between atoms: C19_22  and  O20_23 
ROOT
HETATM    1  O1          0      18.587  84.451 -23.593  1.00  0.00    -0.286 OA
HETATM    2  C2          0      17.488  84.445 -24.213  1.00  0.00     0.201 C 
HETATM    3  C3          0      16.314  84.931 -23.664  1.00  0.00     0.067 C 
HETATM    4  C4          0      15.098  84.819 -24.329  1.00  0.00     0.103 C 
HETATM    5  O13         0      15.076  84.250 -25.521  1.00  0.00    -0.307 OA
HETATM    6  C14         0      16.155  83.738 -26.071  1.00  0.00     0.107 C 
HETATM    7  C15         0      16.082  82.810 -27.100  1.00  0.00     0.049 C 
HETATM    8  C16         0      17.199  82.088 -27.501  1.00  0.00     0.093 C 
HETATM    9  C18         0      18.419  82.692 -27.225  1.00  0.00     0.048 C 
HETATM   10  C19         0      18.519  83.658 -26.233  1.00  0.00     0.096 C 
HETATM   11  C21         0      17.404  84.032 -25.534  1.00  0.00     0.084 C 
ENDROOT
BRANCH  10  12
HETATM   12  O20         0      19.763  83.931 -25.672  1.00  0.00    -0.359 OA
HETATM   13  H20         0      19.785  84.358 -24.824  1.00  0.00     0.218 HD
ENDBRANCH  10  12
BRANCH   4  14
HETATM   14  C5          0      13.887  84.779 -23.507  1.00  0.00     0.025 C 
HETATM   15  C6          0      13.081  85.889 -23.301  1.00  0.00     0.004 C 
HETATM   16  C7          0      11.704  85.688 -23.265  1.00  0.00     0.026 C 
HETATM   17  C8          0      11.152  84.412 -23.298  1.00  0.00     0.112 C 
HETATM   18  C10         0      12.002  83.401 -22.870  1.00  0.00     0.112 C 
HETATM   19  C12         0      13.373  83.594 -22.995  1.00  0.00     0.028 C 
BRANCH  17  20
HETATM   20  O9          0       9.934  84.183 -23.912  1.00  0.00    -0.357 OA
HETATM   21  H9          0       9.146  83.931 -23.445  1.00  0.00     0.218 HD
ENDBRANCH  17  20
BRANCH  18  22
HETATM   22  O11         0      11.446  82.141 -22.703  1.00  0.00    -0.357 OA
HETATM   23  H11         0      11.250  81.650 -23.492  1.00  0.00     0.218 HD
ENDBRANCH  18  22
ENDBRANCH   4  14
BRANCH   8  24
HETATM   24  O17         0      17.108  80.732 -27.838  1.00  0.00    -0.359 OA
HETATM   25  H17         0      16.520  80.143 -27.381  1.00  0.00     0.218 HD
ENDBRANCH   8  24
TORSDOF 5
ENDMDL
MODEL 8
REMARK VINA RESULT:      -5.4      1.972      6.975
REMARK  5 active torsions:
REMARK  status: ('A' for Active; 'I' for Inactive)
REMARK    1  A    between atoms: C4_4  and  C5_5 
REMARK    2  A    between atoms: C8_8  and  O9_9 
REMARK    3  A    between atoms: C10_11  and  O11_12 
REMARK    4  A    between atoms: C16_18  and  O17_19 
REMARK    5  A    between atoms: C19_22  and  O20_23 
ROOT
HETATM    1  O1          0      11.643  89.248 -15.847  1.00  0.00    -0.286 OA
HETATM    2  C2          0      12.435  90.179 -15.538  1.00  0.00     0.201 C 
HETATM    3  C3          0      13.546  90.503 -16.299  1.00  0.00     0.067 C 
HETATM    4  C4          0      14.459  91.465 -15.882  1.00  0.00     0.103 C 
HETATM    5  O13         0      14.242  92.095 -14.741  1.00  0.00    -0.307 OA
HETATM    6  C14         0      13.224  91.800 -13.963  1.00  0.00     0.107 C 
HETATM    7  C15         0      13.205  92.148 -12.620  1.00  0.00     0.049 C 
HETATM    8  C16         0      12.259  91.620 -11.750  1.00  0.00     0.093 C 
HETATM    9  C18         0      11.081  91.194 -12.352  1.00  0.00     0.048 C 
HETATM   10  C19         0      11.053  90.881 -13.705  1.00  0.00     0.096 C 
HETATM   11  C21         0      12.190  91.009 -14.455  1.00  0.00     0.084 C 
ENDROOT
BRANCH  10  12
HETATM   12  O20         0      10.038  90.065 -14.193  1.00  0.00    -0.359 OA
HETATM   13  H20         0      10.257  89.169 -14.420  1.00  0.00     0.218 HD
ENDBRANCH  10  12
BRANCH   4  14
HETATM   14  C5          0      15.835  91.336 -16.365  1.00  0.00     0.025 C 
HETATM   15  C6          0      16.189  91.544 -17.690  1.00  0.00     0.004 C 
HETATM   16  C7          0      17.400  92.183 -17.941  1.00  0.00     0.026 C 
HETATM   17  C8          0      18.291  92.485 -16.917  1.00  0.00     0.112 C 
HETATM   18  C10         0      18.154  91.702 -15.779  1.00  0.00     0.112 C 
HETATM   19  C12         0      16.910  91.144 -15.507  1.00  0.00     0.028 C 
BRANCH  17  20
HETATM   20  O9          0      19.086  93.616 -16.980  1.00  0.00    -0.357 OA
HETATM   21  H9          0      18.982  94.367 -16.408  1.00  0.00     0.218 HD
ENDBRANCH  17  20
BRANCH  18  22
HETATM   22  O11         0      19.133  91.831 -14.805  1.00  0.00    -0.357 OA
HETATM   23  H11         0      19.649  92.629 -14.817  1.00  0.00     0.218 HD
ENDBRANCH  18  22
ENDBRANCH   4  14
BRANCH   8  24
HETATM   24  O17         0      12.598  91.239 -10.447  1.00  0.00    -0.359 OA
HETATM   25  H17         0      12.395  90.374 -10.111  1.00  0.00     0.218 HD
ENDBRANCH   8  24
TORSDOF 5
ENDMDL
MODEL 9
REMARK VINA RESULT:      -5.3      2.259      7.032
REMARK  5 active torsions:
REMARK  status: ('A' for Active; 'I' for Inactive)
REMARK    1  A    between atoms: C4_4  and  C5_5 
REMARK    2  A    between atoms: C8_8  and  O9_9 
REMARK    3  A    between atoms: C10_11  and  O11_12 
REMARK    4  A    between atoms: C16_18  and  O17_19 
REMARK    5  A    between atoms: C19_22  and  O20_23 
ROOT
HETATM    1  O1          0      11.143  89.622 -13.650  1.00  0.00    -0.286 OA
HETATM    2  C2          0      11.831  90.342 -14.425  1.00  0.00     0.201 C 
HETATM    3  C3          0      13.032  89.922 -14.971  1.00  0.00     0.067 C 
HETATM    4  C4          0      13.820  90.772 -15.739  1.00  0.00     0.103 C 
HETATM    5  O13         0      13.393  92.002 -15.965  1.00  0.00    -0.307 OA
HETATM    6  C14         0      12.279  92.463 -15.440  1.00  0.00     0.107 C 
HETATM    7  C15         0      12.029  93.823 -15.333  1.00  0.00     0.049 C 
HETATM    8  C16         0      10.982  94.306 -14.557  1.00  0.00     0.093 C 
HETATM    9  C18         0       9.938  93.411 -14.358  1.00  0.00     0.048 C 
HETATM   10  C19         0      10.141  92.046 -14.502  1.00  0.00     0.096 C 
HETATM   11  C21         0      11.376  91.578 -14.860  1.00  0.00     0.084 C 
ENDROOT
BRANCH  10  12
HETATM   12  O20         0       9.258  91.158 -13.896  1.00  0.00    -0.359 OA
HETATM   13  H20         0       9.100  91.253 -12.964  1.00  0.00     0.218 HD
ENDBRANCH  10  12
BRANCH   4  14
HETATM   14  C5          0      15.260  90.510 -15.764  1.00  0.00     0.025 C 
HETATM   15  C6          0      15.941  89.950 -14.693  1.00  0.00     0.004 C 
HETATM   16  C7          0      16.954  89.039 -14.978  1.00  0.00     0.026 C 
HETATM   17  C8          0      17.367  88.793 -16.283  1.00  0.00     0.112 C 
HETATM   18  C10         0      17.095  89.817 -17.181  1.00  0.00     0.112 C 
HETATM   19  C12         0      16.024  90.661 -16.914  1.00  0.00     0.028 C 
BRANCH  17  20
HETATM   20  O9          0      17.812  87.538 -16.660  1.00  0.00    -0.357 OA
HETATM   21  H9          0      17.243  86.854 -16.993  1.00  0.00     0.218 HD
ENDBRANCH  17  20
BRANCH  18  22
HETATM   22  O11         0      17.651  89.706 -18.447  1.00  0.00    -0.357 OA
HETATM   23  H11         0      18.431  89.170 -18.529  1.00  0.00     0.218 HD
ENDBRANCH  18  22
ENDBRANCH   4  14
BRANCH   8  24
HETATM   24  O17         0      11.127  95.455 -13.771  1.00  0.00    -0.359 OA
HETATM   25  H17         0      11.982  95.805 -13.551  1.00  0.00     0.218 HD
ENDBRANCH   8  24
TORSDOF 5
ENDMDL
