MODEL 1
REMARK VINA RESULT:      -0.0      0.000      0.000
REMARK  5 active torsions:
REMARK  status: ('A' for Active; 'I' for Inactive)
REMARK    1  A    between atoms: C4_4  and  C5_5 
REMARK    2  A    between atoms: C8_8  and  O9_9 
REMARK    3  A    between atoms: C10_11  and  O11_12 
REMARK    4  A    between atoms: C16_18  and  O17_19 
REMARK    5  A    between atoms: C19_22  and  O20_23 
ROOT
HETATM    1  O1          0      17.285  14.599 -21.742  1.00  0.00    -0.286 OA
HETATM    2  C2          0      18.181  14.774 -22.613  1.00  0.00     0.201 C 
HETATM    3  C3          0      18.324  13.954 -23.718  1.00  0.00     0.067 C 
HETATM    4  C4          0      19.382  14.107 -24.607  1.00  0.00     0.103 C 
HETATM    5  O13         0      20.256  15.074 -24.394  1.00  0.00    -0.307 OA
HETATM    6  C14         0      20.188  15.857 -23.339  1.00  0.00     0.107 C 
HETATM    7  C15         0      21.283  16.585 -22.898  1.00  0.00     0.049 C 
HETATM    8  C16         0      21.285  17.204 -21.653  1.00  0.00     0.093 C 
HETATM    9  C18         0      20.026  17.505 -21.146  1.00  0.00     0.048 C 
HETATM   10  C19         0      18.902  16.828 -21.600  1.00  0.00     0.096 C 
HETATM   11  C21         0      19.032  15.868 -22.566  1.00  0.00     0.084 C 
ENDROOT
BRANCH  10  12
HETATM   12  O20         0      17.755  16.811 -20.813  1.00  0.00    -0.359 OA
HETATM   13  H20         0      16.919  16.687 -21.247  1.00  0.00     0.218 HD
ENDBRANCH  10  12
BRANCH   4  14
HETATM   14  C5          0      19.813  12.918 -25.346  1.00  0.00     0.025 C 
HETATM   15  C6          0      21.107  12.755 -25.819  1.00  0.00     0.004 C 
HETATM   16  C7          0      21.662  11.481 -25.753  1.00  0.00     0.026 C 
HETATM   17  C8          0      20.913  10.379 -25.355  1.00  0.00     0.112 C 
HETATM   18  C10         0      19.541  10.520 -25.520  1.00  0.00     0.112 C 
HETATM   19  C12         0      19.002  11.801 -25.497  1.00  0.00     0.028 C 
BRANCH  17  20
HETATM   20  O9          0      21.500   9.336 -24.661  1.00  0.00    -0.357 OA
HETATM   21  H9          0      22.346   8.964 -24.883  1.00  0.00     0.218 HD
ENDBRANCH  17  20
BRANCH  18  22
HETATM   22  O11         0      18.765   9.388 -25.318  1.00  0.00    -0.357 OA
HETATM   23  H11         0      18.264   9.349 -24.511  1.00  0.00     0.218 HD
ENDBRANCH  18  22
ENDBRANCH   4  14
BRANCH   8  24
HETATM   24  O17         0      22.425  17.208 -20.842  1.00  0.00    -0.359 OA
HETATM   25  H17         0      23.049  17.924 -20.862  1.00  0.00     0.218 HD
ENDBRANCH   8  24
TORSDOF 5
ENDMDL
MODEL 2
REMARK VINA RESULT:      -0.0     12.178     14.032
REMARK  5 active torsions:
REMARK  status: ('A' for Active; 'I' for Inactive)
REMARK    1  A    between atoms: C4_4  and  C5_5 
REMARK    2  A    between atoms: C8_8  and  O9_9 
REMARK    3  A    between atoms: C10_11  and  O11_12 
REMARK    4  A    between atoms: C16_18  and  O17_19 
REMARK    5  A    between atoms: C19_22  and  O20_23 
ROOT
HETATM    1  O1          0      11.604  10.413 -16.574  1.00  0.00    -0.286 OA
HETATM    2  C2          0      11.857   9.689 -15.572  1.00  0.00     0.201 C 
HETATM    3  C3          0      12.135  10.211 -14.320  1.00  0.00     0.067 C 
HETATM    4  C4          0      12.511   9.397 -13.258  1.00  0.00     0.103 C 
HETATM    5  O13         0      12.580   8.092 -13.453  1.00  0.00    -0.307 OA
HETATM    6  C14         0      12.362   7.548 -14.630  1.00  0.00     0.107 C 
HETATM    7  C15         0      12.812   6.273 -14.941  1.00  0.00     0.049 C 
HETATM    8  C16         0      12.806   5.804 -16.250  1.00  0.00     0.093 C 
HETATM    9  C18         0      11.882   6.416 -17.088  1.00  0.00     0.048 C 
HETATM   10  C19         0      11.376   7.673 -16.783  1.00  0.00     0.096 C 
HETATM   11  C21         0      11.778   8.307 -15.639  1.00  0.00     0.084 C 
ENDROOT
BRANCH  10  12
HETATM   12  O20         0      10.820   8.447 -17.796  1.00  0.00    -0.359 OA
HETATM   13  H20         0      10.484   8.000 -18.564  1.00  0.00     0.218 HD
ENDBRANCH  10  12
BRANCH   4  14
HETATM   14  C5          0      13.341   9.998 -12.213  1.00  0.00     0.025 C 
HETATM   15  C6          0      14.213   9.259 -11.426  1.00  0.00     0.004 C 
HETATM   16  C7          0      15.435   9.838 -11.101  1.00  0.00     0.026 C 
HETATM   17  C8          0      15.729  11.157 -11.430  1.00  0.00     0.112 C 
HETATM   18  C10         0      14.618  11.967 -11.624  1.00  0.00     0.112 C 
HETATM   19  C12         0      13.430  11.373 -12.032  1.00  0.00     0.028 C 
BRANCH  17  20
HETATM   20  O9          0      17.022  11.539 -11.741  1.00  0.00    -0.357 OA
HETATM   21  H9          0      17.398  12.376 -11.496  1.00  0.00     0.218 HD
ENDBRANCH  17  20
BRANCH  18  22
HETATM   22  O11         0      14.850  13.328 -11.768  1.00  0.00    -0.357 OA
HETATM   23  H11         0      15.298  13.766 -11.053  1.00  0.00     0.218 HD
ENDBRANCH  18  22
ENDBRANCH   4  14
BRANCH   8  24
HETATM   24  O17         0      13.862   5.036 -16.754  1.00  0.00    -0.359 OA
HETATM   25  H17         0      13.708   4.235 -17.239  1.00  0.00     0.218 HD
ENDBRANCH   8  24
TORSDOF 5
ENDMDL
MODEL 3
REMARK VINA RESULT:      -0.0      8.917     10.921
REMARK  5 active torsions:
REMARK  status: ('A' for Active; 'I' for Inactive)
REMARK    1  A    between atoms: C4_4  and  C5_5 
REMARK    2  A    between atoms: C8_8  and  O9_9 
REMARK    3  A    between atoms: C10_11  and  O11_12 
REMARK    4  A    between atoms: C16_18  and  O17_19 
REMARK    5  A    between atoms: C19_22  and  O20_23 
ROOT
HETATM    1  O1          0      18.370   9.978 -15.446  1.00  0.00    -0.286 OA
HETATM    2  C2          0      17.465   9.784 -16.304  1.00  0.00     0.201 C 
HETATM    3  C3          0      16.123   9.998 -16.039  1.00  0.00     0.067 C 
HETATM    4  C4          0      15.138   9.679 -16.968  1.00  0.00     0.103 C 
HETATM    5  O13         0      15.504   9.180 -18.135  1.00  0.00    -0.307 OA
HETATM    6  C14         0      16.761   8.923 -18.423  1.00  0.00     0.107 C 
HETATM    7  C15         0      17.114   8.054 -19.445  1.00  0.00     0.049 C 
HETATM    8  C16         0      18.417   7.590 -19.580  1.00  0.00     0.093 C 
HETATM    9  C18         0      19.393   8.411 -19.026  1.00  0.00     0.048 C 
HETATM   10  C19         0      19.065   9.325 -18.034  1.00  0.00     0.096 C 
HETATM   11  C21         0      17.769   9.431 -17.610  1.00  0.00     0.084 C 
ENDROOT
BRANCH  10  12
HETATM   12  O20         0      20.067   9.811 -17.199  1.00  0.00    -0.359 OA
HETATM   13  H20         0      19.849   9.970 -16.288  1.00  0.00     0.218 HD
ENDBRANCH  10  12
BRANCH   4  14
HETATM   14  C5          0      13.808   9.356 -16.448  1.00  0.00     0.025 C 
HETATM   15  C6          0      12.917   8.533 -17.122  1.00  0.00     0.004 C 
HETATM   16  C7          0      12.145   7.660 -16.363  1.00  0.00     0.026 C 
HETATM   17  C8          0      12.158   7.696 -14.973  1.00  0.00     0.112 C 
HETATM   18  C10         0      12.555   8.910 -14.427  1.00  0.00     0.112 C 
HETATM   19  C12         0      13.396   9.726 -15.175  1.00  0.00     0.028 C 
BRANCH  17  20
HETATM   20  O9          0      11.992   6.539 -14.232  1.00  0.00    -0.357 OA
HETATM   21  H9          0      12.710   5.980 -13.957  1.00  0.00     0.218 HD
ENDBRANCH  17  20
BRANCH  18  22
HETATM   22  O11         0      12.406   9.062 -13.056  1.00  0.00    -0.357 OA
HETATM   23  H11         0      11.736   8.534 -12.635  1.00  0.00     0.218 HD
ENDBRANCH  18  22
ENDBRANCH   4  14
BRANCH   8  24
HETATM   24  O17         0      18.686   6.264 -19.934  1.00  0.00    -0.359 OA
HETATM   25  H17         0      18.877   5.601 -19.280  1.00  0.00     0.218 HD
ENDBRANCH   8  24
TORSDOF 5
ENDMDL
MODEL 4
REMARK VINA RESULT:      -0.0      8.926     10.692
REMARK  5 active torsions:
REMARK  status: ('A' for Active; 'I' for Inactive)
REMARK    1  A    between atoms: C4_4  and  C5_5 
REMARK    2  A    between atoms: C8_8  and  O9_9 
REMARK    3  A    between atoms: C10_11  and  O11_12 
REMARK    4  A    between atoms: C16_18  and  O17_19 
REMARK    5  A    between atoms: C19_22  and  O20_23 
ROOT
HETATM    1  O1          0      13.131  10.927 -14.340  1.00  0.00    -0.286 OA
HETATM    2  C2          0      13.809  11.938 -14.670  1.00  0.00     0.201 C 
HETATM    3  C3          0      15.017  11.845 -15.340  1.00  0.00     0.067 C 
HETATM    4  C4          0      15.794  12.967 -15.602  1.00  0.00     0.103 C 
HETATM    5  O13         0      15.350  14.150 -15.215  1.00  0.00    -0.307 OA
HETATM    6  C14         0      14.229  14.291 -14.543  1.00  0.00     0.107 C 
HETATM    7  C15         0      13.959  15.432 -13.801  1.00  0.00     0.049 C 
HETATM    8  C16         0      12.904  15.472 -12.897  1.00  0.00     0.093 C 
HETATM    9  C18         0      11.872  14.579 -13.159  1.00  0.00     0.048 C 
HETATM   10  C19         0      12.096  13.451 -13.937  1.00  0.00     0.096 C 
HETATM   11  C21         0      13.338  13.226 -14.465  1.00  0.00     0.084 C 
ENDROOT
BRANCH  10  12
HETATM   12  O20         0      11.224  12.372 -13.837  1.00  0.00    -0.359 OA
HETATM   13  H20         0      10.372  12.447 -14.251  1.00  0.00     0.218 HD
ENDBRANCH  10  12
BRANCH   4  14
HETATM   14  C5          0      17.238  12.766 -15.737  1.00  0.00     0.025 C 
HETATM   15  C6          0      18.165  13.761 -15.461  1.00  0.00     0.004 C 
HETATM   16  C7          0      19.350  13.382 -14.839  1.00  0.00     0.026 C 
HETATM   17  C8          0      19.665  12.046 -14.620  1.00  0.00     0.112 C 
HETATM   18  C10         0      19.020  11.152 -15.465  1.00  0.00     0.112 C 
HETATM   19  C12         0      17.794  11.522 -16.006  1.00  0.00     0.028 C 
BRANCH  17  20
HETATM   20  O9          0      20.394  11.662 -13.508  1.00  0.00    -0.357 OA
HETATM   21  H9          0      21.334  11.775 -13.429  1.00  0.00     0.218 HD
ENDBRANCH  17  20
BRANCH  18  22
HETATM   22  O11         0      19.436   9.830 -15.417  1.00  0.00    -0.357 OA
HETATM   23  H11         0      19.799   9.522 -14.595  1.00  0.00     0.218 HD
ENDBRANCH  18  22
ENDBRANCH   4  14
BRANCH   8  24
HETATM   24  O17         0      13.031  16.107 -11.656  1.00  0.00    -0.359 OA
HETATM   25  H17         0      13.272  17.023 -11.587  1.00  0.00     0.218 HD
ENDBRANCH   8  24
TORSDOF 5
ENDMDL
MODEL 5
REMARK VINA RESULT:       0.0     12.894     13.890
REMARK  5 active torsions:
REMARK  status: ('A' for Active; 'I' for Inactive)
REMARK    1  A    between atoms: C4_4  and  C5_5 
REMARK    2  A    between atoms: C8_8  and  O9_9 
REMARK    3  A    between atoms: C10_11  and  O11_12 
REMARK    4  A    between atoms: C16_18  and  O17_19 
REMARK    5  A    between atoms: C19_22  and  O20_23 
ROOT
HETATM    1  O1          0      21.484   9.173 -12.711  1.00  0.00    -0.286 OA
HETATM    2  C2          0      20.573   9.180 -11.839  1.00  0.00     0.201 C 
HETATM    3  C3          0      19.965   8.024 -11.379  1.00  0.00     0.067 C 
HETATM    4  C4          0      18.894   8.066 -10.494  1.00  0.00     0.103 C 
HETATM    5  O13         0      18.465   9.243 -10.072  1.00  0.00    -0.307 OA
HETATM    6  C14         0      18.982  10.372 -10.506  1.00  0.00     0.107 C 
HETATM    7  C15         0      18.305  11.577 -10.393  1.00  0.00     0.049 C 
HETATM    8  C16         0      18.732  12.712 -11.071  1.00  0.00     0.093 C 
HETATM    9  C18         0      20.083  12.726 -11.398  1.00  0.00     0.048 C 
HETATM   10  C19         0      20.803  11.541 -11.475  1.00  0.00     0.096 C 
HETATM   11  C21         0      20.182  10.351 -11.209  1.00  0.00     0.084 C 
ENDROOT
BRANCH  10  12
HETATM   12  O20         0      21.987  11.511 -12.204  1.00  0.00    -0.359 OA
HETATM   13  H20         0      22.243  12.297 -12.671  1.00  0.00     0.218 HD
ENDBRANCH  10  12
BRANCH   4  14
HETATM   14  C5          0      17.954   6.944 -10.526  1.00  0.00     0.025 C 
HETATM   15  C6          0      16.625   7.066 -10.147  1.00  0.00     0.004 C 
HETATM   16  C7          0      15.677   6.362 -10.884  1.00  0.00     0.026 C 
HETATM   17  C8          0      16.048   5.462 -11.878  1.00  0.00     0.112 C 
HETATM   18  C10         0      17.332   4.950 -11.748  1.00  0.00     0.112 C 
HETATM   19  C12         0      18.282   5.714 -11.080  1.00  0.00     0.028 C 
BRANCH  17  20
HETATM   20  O9          0      15.259   5.282 -13.000  1.00  0.00    -0.357 OA
HETATM   21  H9          0      14.327   5.098 -12.967  1.00  0.00     0.218 HD
ENDBRANCH  17  20
BRANCH  18  22
HETATM   22  O11         0      17.684   3.912 -12.599  1.00  0.00    -0.357 OA
HETATM   23  H11         0      17.079   3.710 -13.303  1.00  0.00     0.218 HD
ENDBRANCH  18  22
ENDBRANCH   4  14
BRANCH   8  24
HETATM   24  O17         0      17.822  13.592 -11.667  1.00  0.00    -0.359 OA
HETATM   25  H17         0      18.008  14.520 -11.752  1.00  0.00     0.218 HD
ENDBRANCH   8  24
TORSDOF 5
ENDMDL
MODEL 6
REMARK VINA RESULT:       0.0      4.503      7.547
REMARK  5 active torsions:
REMARK  status: ('A' for Active; 'I' for Inactive)
REMARK    1  A    between atoms: C4_4  and  C5_5 
REMARK    2  A    between atoms: C8_8  and  O9_9 
REMARK    3  A    between atoms: C10_11  and  O11_12 
REMARK    4  A    between atoms: C16_18  and  O17_19 
REMARK    5  A    between atoms: C19_22  and  O20_23 
ROOT
HETATM    1  O1          0      23.651  14.065 -21.296  1.00  0.00    -0.286 OA
HETATM    2  C2          0      23.171  14.953 -20.540  1.00  0.00     0.201 C 
HETATM    3  C3          0      23.324  14.929 -19.164  1.00  0.00     0.067 C 
HETATM    4  C4          0      22.699  15.863 -18.345  1.00  0.00     0.103 C 
HETATM    5  O13         0      21.958  16.803 -18.905  1.00  0.00    -0.307 OA
HETATM    6  C14         0      21.750  16.849 -20.202  1.00  0.00     0.107 C 
HETATM    7  C15         0      20.687  17.555 -20.748  1.00  0.00     0.049 C 
HETATM    8  C16         0      20.321  17.395 -22.079  1.00  0.00     0.093 C 
HETATM    9  C18         0      21.337  16.951 -22.917  1.00  0.00     0.048 C 
HETATM   10  C19         0      22.437  16.282 -22.399  1.00  0.00     0.096 C 
HETATM   11  C21         0      22.531  16.072 -21.051  1.00  0.00     0.084 C 
ENDROOT
BRANCH  10  12
HETATM   12  O20         0      23.202  15.479 -23.240  1.00  0.00    -0.359 OA
HETATM   13  H20         0      22.827  14.658 -23.534  1.00  0.00     0.218 HD
ENDBRANCH  10  12
BRANCH   4  14
HETATM   14  C5          0      22.399  15.454 -16.971  1.00  0.00     0.025 C 
HETATM   15  C6          0      21.359  16.001 -16.234  1.00  0.00     0.004 C 
HETATM   16  C7          0      20.639  15.147 -15.405  1.00  0.00     0.026 C 
HETATM   17  C8          0      21.022  13.825 -15.210  1.00  0.00     0.112 C 
HETATM   18  C10         0      22.363  13.567 -15.458  1.00  0.00     0.112 C 
HETATM   19  C12         0      23.038  14.385 -16.357  1.00  0.00     0.028 C 
BRANCH  17  20
HETATM   20  O9          0      20.076  12.837 -14.996  1.00  0.00    -0.357 OA
HETATM   21  H9          0      19.307  12.952 -14.451  1.00  0.00     0.218 HD
ENDBRANCH  17  20
BRANCH  18  22
HETATM   22  O11         0      22.839  12.314 -15.099  1.00  0.00    -0.357 OA
HETATM   23  H11         0      22.192  11.634 -14.954  1.00  0.00     0.218 HD
ENDBRANCH  18  22
ENDBRANCH   4  14
BRANCH   8  24
HETATM   24  O17         0      18.977  17.354 -22.466  1.00  0.00    -0.359 OA
HETATM   25  H17         0      18.420  16.614 -22.257  1.00  0.00     0.218 HD
ENDBRANCH   8  24
TORSDOF 5
ENDMDL
MODEL 7
REMARK VINA RESULT:       0.0      7.632     10.199
REMARK  5 active torsions:
REMARK  status: ('A' for Active; 'I' for Inactive)
REMARK    1  A    between atoms: C4_4  and  C5_5 
REMARK    2  A    between atoms: C8_8  and  O9_9 
REMARK    3  A    between atoms: C10_11  and  O11_12 
REMARK    4  A    between atoms: C16_18  and  O17_19 
REMARK    5  A    between atoms: C19_22  and  O20_23 
ROOT
HETATM    1  O1          0      22.485   9.724 -19.859  1.00  0.00    -0.286 OA
HETATM    2  C2          0      22.015   8.567 -20.037  1.00  0.00     0.201 C 
HETATM    3  C3          0      21.129   7.972 -19.155  1.00  0.00     0.067 C 
HETATM    4  C4          0      20.706   6.658 -19.322  1.00  0.00     0.103 C 
HETATM    5  O13         0      21.152   5.975 -20.361  1.00  0.00    -0.307 OA
HETATM    6  C14         0      22.024   6.479 -21.207  1.00  0.00     0.107 C 
HETATM    7  C15         0      22.786   5.671 -22.039  1.00  0.00     0.049 C 
HETATM    8  C16         0      23.874   6.179 -22.739  1.00  0.00     0.093 C 
HETATM    9  C18         0      23.827   7.546 -22.985  1.00  0.00     0.048 C 
HETATM   10  C19         0      23.038   8.377 -22.201  1.00  0.00     0.096 C 
HETATM   11  C21         0      22.287   7.844 -21.189  1.00  0.00     0.084 C 
ENDROOT
BRANCH  10  12
HETATM   12  O20         0      23.320   9.739 -22.156  1.00  0.00    -0.359 OA
HETATM   13  H20         0      22.622  10.330 -21.903  1.00  0.00     0.218 HD
ENDBRANCH  10  12
BRANCH   4  14
HETATM   14  C5          0      20.301   5.928 -18.119  1.00  0.00     0.025 C 
HETATM   15  C6          0      20.380   4.547 -18.016  1.00  0.00     0.004 C 
HETATM   16  C7          0      20.770   4.013 -16.792  1.00  0.00     0.026 C 
HETATM   17  C8          0      20.946   4.815 -15.669  1.00  0.00     0.112 C 
HETATM   18  C10         0      20.253   6.017 -15.702  1.00  0.00     0.112 C 
HETATM   19  C12         0      19.950   6.572 -16.940  1.00  0.00     0.028 C 
BRANCH  17  20
HETATM   20  O9          0      21.903   4.505 -14.720  1.00  0.00    -0.357 OA
HETATM   21  H9          0      21.976   3.655 -14.301  1.00  0.00     0.218 HD
ENDBRANCH  17  20
BRANCH  18  22
HETATM   22  O11         0      20.240   6.767 -14.534  1.00  0.00    -0.357 OA
HETATM   23  H11         0      21.045   7.217 -14.304  1.00  0.00     0.218 HD
ENDBRANCH  18  22
ENDBRANCH   4  14
BRANCH   8  24
HETATM   24  O17         0      25.057   5.446 -22.879  1.00  0.00    -0.359 OA
HETATM   25  H17         0      25.211   4.885 -23.630  1.00  0.00     0.218 HD
ENDBRANCH   8  24
TORSDOF 5
ENDMDL
MODEL 8
REMARK VINA RESULT:       0.0      7.185      9.408
REMARK  5 active torsions:
REMARK  status: ('A' for Active; 'I' for Inactive)
REMARK    1  A    between atoms: C4_4  and  C5_5 
REMARK    2  A    between atoms: C8_8  and  O9_9 
REMARK    3  A    between atoms: C10_11  and  O11_12 
REMARK    4  A    between atoms: C16_18  and  O17_19 
REMARK    5  A    between atoms: C19_22  and  O20_23 
ROOT
HETATM    1  O1          0      22.476   9.117 -23.531  1.00  0.00    -0.286 OA
HETATM    2  C2          0      23.589   8.573 -23.293  1.00  0.00     0.201 C 
HETATM    3  C3          0      23.810   7.769 -22.188  1.00  0.00     0.067 C 
HETATM    4  C4          0      25.072   7.265 -21.894  1.00  0.00     0.103 C 
HETATM    5  O13         0      26.074   7.550 -22.707  1.00  0.00    -0.307 OA
HETATM    6  C14         0      25.927   8.339 -23.749  1.00  0.00     0.107 C 
HETATM    7  C15         0      27.010   8.956 -24.358  1.00  0.00     0.049 C 
HETATM    8  C16         0      26.832   9.977 -25.284  1.00  0.00     0.093 C 
HETATM    9  C18         0      25.606   9.969 -25.938  1.00  0.00     0.048 C 
HETATM   10  C19         0      24.512   9.321 -25.379  1.00  0.00     0.096 C 
HETATM   11  C21         0      24.648   8.670 -24.183  1.00  0.00     0.084 C 
ENDROOT
BRANCH  10  12
HETATM   12  O20         0      23.230   9.673 -25.789  1.00  0.00    -0.359 OA
HETATM   13  H20         0      23.069   9.761 -26.721  1.00  0.00     0.218 HD
ENDBRANCH  10  12
BRANCH   4  14
HETATM   14  C5          0      25.366   6.970 -20.490  1.00  0.00     0.025 C 
HETATM   15  C6          0      26.652   6.992 -19.970  1.00  0.00     0.004 C 
HETATM   16  C7          0      26.818   7.498 -18.685  1.00  0.00     0.026 C 
HETATM   17  C8          0      25.731   7.845 -17.891  1.00  0.00     0.112 C 
HETATM   18  C10         0      24.541   7.213 -18.229  1.00  0.00     0.112 C 
HETATM   19  C12         0      24.366   6.794 -19.542  1.00  0.00     0.028 C 
BRANCH  17  20
HETATM   20  O9          0      25.816   8.892 -16.991  1.00  0.00    -0.357 OA
HETATM   21  H9          0      25.910   8.775 -16.052  1.00  0.00     0.218 HD
ENDBRANCH  17  20
BRANCH  18  22
HETATM   22  O11         0      23.473   7.377 -17.358  1.00  0.00    -0.357 OA
HETATM   23  H11         0      22.966   6.601 -17.150  1.00  0.00     0.218 HD
ENDBRANCH  18  22
ENDBRANCH   4  14
BRANCH   8  24
HETATM   24  O17         0      27.669  11.098 -25.304  1.00  0.00    -0.359 OA
HETATM   25  H17         0      27.767  11.661 -24.545  1.00  0.00     0.218 HD
ENDBRANCH   8  24
TORSDOF 5
ENDMDL
MODEL 9
REMARK VINA RESULT:       0.0      6.673      9.255
REMARK  5 active torsions:
REMARK  status: ('A' for Active; 'I' for Inactive)
REMARK    1  A    between atoms: C4_4  and  C5_5 
REMARK    2  A    between atoms: C8_8  and  O9_9 
REMARK    3  A    between atoms: C10_11  and  O11_12 
REMARK    4  A    between atoms: C16_18  and  O17_19 
REMARK    5  A    between atoms: C19_22  and  O20_23 
ROOT
HETATM    1  O1          0      23.508  10.755 -23.896  1.00  0.00    -0.286 OA
HETATM    2  C2          0      24.609  10.367 -23.418  1.00  0.00     0.201 C 
HETATM    3  C3          0      24.780  10.065 -22.078  1.00  0.00     0.067 C 
HETATM    4  C4          0      26.028   9.739 -21.558  1.00  0.00     0.103 C 
HETATM    5  O13         0      27.065   9.699 -22.376  1.00  0.00    -0.307 OA
HETATM    6  C14         0      26.965  10.012 -23.649  1.00  0.00     0.107 C 
HETATM    7  C15         0      28.074  10.359 -24.406  1.00  0.00     0.049 C 
HETATM    8  C16         0      27.938  10.931 -25.666  1.00  0.00     0.093 C 
HETATM    9  C18         0      26.742  10.646 -26.313  1.00  0.00     0.048 C 
HETATM   10  C19         0      25.625  10.251 -25.590  1.00  0.00     0.096 C 
HETATM   11  C21         0      25.706  10.124 -24.230  1.00  0.00     0.084 C 
ENDROOT
BRANCH  10  12
HETATM   12  O20         0      24.362  10.392 -26.158  1.00  0.00    -0.359 OA
HETATM   13  H20         0      24.243  10.104 -27.055  1.00  0.00     0.218 HD
ENDBRANCH  10  12
BRANCH   4  14
HETATM   14  C5          0      26.259  10.024 -20.141  1.00  0.00     0.025 C 
HETATM   15  C6          0      27.520  10.270 -19.619  1.00  0.00     0.004 C 
HETATM   16  C7          0      27.630  11.243 -18.630  1.00  0.00     0.026 C 
HETATM   17  C8          0      26.508  11.855 -18.082  1.00  0.00     0.112 C 
HETATM   18  C10         0      25.334  11.122 -18.193  1.00  0.00     0.112 C 
HETATM   19  C12         0      25.218  10.217 -19.241  1.00  0.00     0.028 C 
BRANCH  17  20
HETATM   20  O9          0      26.554  13.173 -17.663  1.00  0.00    -0.357 OA
HETATM   21  H9          0      26.606  13.436 -16.751  1.00  0.00     0.218 HD
ENDBRANCH  17  20
BRANCH  18  22
HETATM   22  O11         0      24.229  11.596 -17.501  1.00  0.00    -0.357 OA
HETATM   23  H11         0      23.712  10.956 -17.025  1.00  0.00     0.218 HD
ENDBRANCH  18  22
ENDBRANCH   4  14
BRANCH   8  24
HETATM   24  O17         0      28.776  11.968 -26.090  1.00  0.00    -0.359 OA
HETATM   25  H17         0      28.841  12.785 -25.610  1.00  0.00     0.218 HD
ENDBRANCH   8  24
TORSDOF 5
ENDMDL
