MODEL 1
REMARK VINA RESULT:      -6.6      0.000      0.000
REMARK  5 active torsions:
REMARK  status: ('A' for Active; 'I' for Inactive)
REMARK    1  A    between atoms: C4_4  and  C5_5 
REMARK    2  A    between atoms: C8_8  and  O9_9 
REMARK    3  A    between atoms: C10_11  and  O11_12 
REMARK    4  A    between atoms: C16_18  and  O17_19 
REMARK    5  A    between atoms: C19_22  and  O20_23 
ROOT
HETATM    1  O1          0      44.470  66.470  14.677  1.00  0.00    -0.286 OA
HETATM    2  C2          0      44.395  66.467  13.417  1.00  0.00     0.201 C 
HETATM    3  C3          0      44.218  65.308  12.680  1.00  0.00     0.067 C 
HETATM    4  C4          0      44.242  65.319  11.290  1.00  0.00     0.103 C 
HETATM    5  O13         0      44.419  66.471  10.667  1.00  0.00    -0.307 OA
HETATM    6  C14         0      44.630  67.593  11.319  1.00  0.00     0.107 C 
HETATM    7  C15         0      45.203  68.698  10.706  1.00  0.00     0.049 C 
HETATM    8  C16         0      45.655  69.782  11.449  1.00  0.00     0.093 C 
HETATM    9  C18         0      45.046  69.939  12.688  1.00  0.00     0.048 C 
HETATM   10  C19         0      44.423  68.865  13.309  1.00  0.00     0.096 C 
HETATM   11  C21         0      44.393  67.646  12.688  1.00  0.00     0.084 C 
ENDROOT
BRANCH  10  12
HETATM   12  O20         0      44.213  68.902  14.684  1.00  0.00    -0.359 OA
HETATM   13  H20         0      44.280  68.087  15.167  1.00  0.00     0.218 HD
ENDBRANCH  10  12
BRANCH   4  14
HETATM   14  C5          0      44.650  64.084  10.618  1.00  0.00     0.025 C 
HETATM   15  C6          0      45.927  63.889  10.113  1.00  0.00     0.004 C 
HETATM   16  C7          0      46.486  62.622  10.246  1.00  0.00     0.026 C 
HETATM   17  C8          0      45.752  61.549  10.741  1.00  0.00     0.112 C 
HETATM   18  C10         0      44.376  61.680  10.613  1.00  0.00     0.112 C 
HETATM   19  C12         0      43.836  62.960  10.568  1.00  0.00     0.028 C 
BRANCH  17  20
HETATM   20  O9          0      46.364  60.554  11.483  1.00  0.00    -0.357 OA
HETATM   21  H9          0      46.206  59.626  11.353  1.00  0.00     0.218 HD
ENDBRANCH  17  20
BRANCH  18  22
HETATM   22  O11         0      43.608  60.565  10.915  1.00  0.00    -0.357 OA
HETATM   23  H11         0      42.986  60.279  10.256  1.00  0.00     0.218 HD
ENDBRANCH  18  22
ENDBRANCH   4  14
BRANCH   8  24
HETATM   24  O17         0      46.845  70.443  11.125  1.00  0.00    -0.359 OA
HETATM   25  H17         0      47.242  70.363  10.266  1.00  0.00     0.218 HD
ENDBRANCH   8  24
TORSDOF 5
ENDMDL
MODEL 2
REMARK VINA RESULT:      -6.5      1.447      6.922
REMARK  5 active torsions:
REMARK  status: ('A' for Active; 'I' for Inactive)
REMARK    1  A    between atoms: C4_4  and  C5_5 
REMARK    2  A    between atoms: C8_8  and  O9_9 
REMARK    3  A    between atoms: C10_11  and  O11_12 
REMARK    4  A    between atoms: C16_18  and  O17_19 
REMARK    5  A    between atoms: C19_22  and  O20_23 
ROOT
HETATM    1  O1          0      48.348  63.708  11.159  1.00  0.00    -0.286 OA
HETATM    2  C2          0      47.173  64.005  10.807  1.00  0.00     0.201 C 
HETATM    3  C3          0      46.686  65.301  10.837  1.00  0.00     0.067 C 
HETATM    4  C4          0      45.357  65.586  10.543  1.00  0.00     0.103 C 
HETATM    5  O13         0      44.553  64.592  10.209  1.00  0.00    -0.307 OA
HETATM    6  C14         0      44.955  63.340  10.202  1.00  0.00     0.107 C 
HETATM    7  C15         0      44.057  62.284  10.250  1.00  0.00     0.049 C 
HETATM    8  C16         0      44.483  60.985  10.499  1.00  0.00     0.093 C 
HETATM    9  C18         0      45.808  60.728  10.167  1.00  0.00     0.048 C 
HETATM   10  C19         0      46.724  61.767  10.064  1.00  0.00     0.096 C 
HETATM   11  C21         0      46.315  63.055  10.275  1.00  0.00     0.084 C 
ENDROOT
BRANCH  10  12
HETATM   12  O20         0      48.083  61.488  10.169  1.00  0.00    -0.359 OA
HETATM   13  H20         0      48.697  62.156   9.888  1.00  0.00     0.218 HD
ENDBRANCH  10  12
BRANCH   4  14
HETATM   14  C5          0      44.780  66.786  11.151  1.00  0.00     0.025 C 
HETATM   15  C6          0      44.123  66.768  12.373  1.00  0.00     0.004 C 
HETATM   16  C7          0      44.318  67.849  13.226  1.00  0.00     0.026 C 
HETATM   17  C8          0      45.033  68.973  12.827  1.00  0.00     0.112 C 
HETATM   18  C10         0      45.090  69.166  11.453  1.00  0.00     0.112 C 
HETATM   19  C12         0      44.977  68.056  10.625  1.00  0.00     0.028 C 
BRANCH  17  20
HETATM   20  O9          0      45.789  69.692  13.736  1.00  0.00    -0.357 OA
HETATM   21  H9          0      46.414  70.364  13.488  1.00  0.00     0.218 HD
ENDBRANCH  17  20
BRANCH  18  22
HETATM   22  O11         0      45.625  70.367  11.009  1.00  0.00    -0.357 OA
HETATM   23  H11         0      45.876  70.998  11.674  1.00  0.00     0.218 HD
ENDBRANCH  18  22
ENDBRANCH   4  14
BRANCH   8  24
HETATM   24  O17         0      43.750  60.121  11.320  1.00  0.00    -0.359 OA
HETATM   25  H17         0      43.374  60.413  12.142  1.00  0.00     0.218 HD
ENDBRANCH   8  24
TORSDOF 5
ENDMDL
MODEL 3
REMARK VINA RESULT:      -6.3      1.963      3.292
REMARK  5 active torsions:
REMARK  status: ('A' for Active; 'I' for Inactive)
REMARK    1  A    between atoms: C4_4  and  C5_5 
REMARK    2  A    between atoms: C8_8  and  O9_9 
REMARK    3  A    between atoms: C10_11  and  O11_12 
REMARK    4  A    between atoms: C16_18  and  O17_19 
REMARK    5  A    between atoms: C19_22  and  O20_23 
ROOT
HETATM    1  O1          0      43.696  67.663  12.801  1.00  0.00    -0.286 OA
HETATM    2  C2          0      44.635  66.822  12.857  1.00  0.00     0.201 C 
HETATM    3  C3          0      44.990  66.023  11.784  1.00  0.00     0.067 C 
HETATM    4  C4          0      45.959  65.033  11.902  1.00  0.00     0.103 C 
HETATM    5  O13         0      46.564  64.873  13.065  1.00  0.00    -0.307 OA
HETATM    6  C14         0      46.239  65.580  14.126  1.00  0.00     0.107 C 
HETATM    7  C15         0      46.564  65.164  15.409  1.00  0.00     0.049 C 
HETATM    8  C16         0      46.005  65.771  16.527  1.00  0.00     0.093 C 
HETATM    9  C18         0      45.571  67.077  16.331  1.00  0.00     0.048 C 
HETATM   10  C19         0      45.282  67.540  15.054  1.00  0.00     0.096 C 
HETATM   11  C21         0      45.442  66.709  13.979  1.00  0.00     0.084 C 
ENDROOT
BRANCH  10  12
HETATM   12  O20         0      44.458  68.651  14.904  1.00  0.00    -0.359 OA
HETATM   13  H20         0      44.831  69.508  15.075  1.00  0.00     0.218 HD
ENDBRANCH  10  12
BRANCH   4  14
HETATM   14  C5          0      45.860  63.887  10.995  1.00  0.00     0.025 C 
HETATM   15  C6          0      46.966  63.318  10.379  1.00  0.00     0.004 C 
HETATM   16  C7          0      46.988  61.934  10.247  1.00  0.00     0.026 C 
HETATM   17  C8          0      45.893  61.150  10.593  1.00  0.00     0.112 C 
HETATM   18  C10         0      44.676  61.818  10.583  1.00  0.00     0.112 C 
HETATM   19  C12         0      44.674  63.191  10.802  1.00  0.00     0.028 C 
BRANCH  17  20
HETATM   20  O9          0      46.066  59.876  11.103  1.00  0.00    -0.357 OA
HETATM   21  H9          0      46.389  59.697  11.979  1.00  0.00     0.218 HD
ENDBRANCH  17  20
BRANCH  18  22
HETATM   22  O11         0      43.533  61.045  10.734  1.00  0.00    -0.357 OA
HETATM   23  H11         0      43.199  60.940  11.617  1.00  0.00     0.218 HD
ENDBRANCH  18  22
ENDBRANCH   4  14
BRANCH   8  24
HETATM   24  O17         0      45.606  65.023  17.640  1.00  0.00    -0.359 OA
HETATM   25  H17         0      46.166  64.924  18.401  1.00  0.00     0.218 HD
ENDBRANCH   8  24
TORSDOF 5
ENDMDL
MODEL 4
REMARK VINA RESULT:      -6.1      3.333      6.568
REMARK  5 active torsions:
REMARK  status: ('A' for Active; 'I' for Inactive)
REMARK    1  A    between atoms: C4_4  and  C5_5 
REMARK    2  A    between atoms: C8_8  and  O9_9 
REMARK    3  A    between atoms: C10_11  and  O11_12 
REMARK    4  A    between atoms: C16_18  and  O17_19 
REMARK    5  A    between atoms: C19_22  and  O20_23 
ROOT
HETATM    1  O1          0      45.122  66.778  11.796  1.00  0.00    -0.286 OA
HETATM    2  C2          0      45.165  65.781  12.568  1.00  0.00     0.201 C 
HETATM    3  C3          0      45.040  65.889  13.942  1.00  0.00     0.067 C 
HETATM    4  C4          0      45.194  64.788  14.777  1.00  0.00     0.103 C 
HETATM    5  O13         0      45.446  63.610  14.234  1.00  0.00    -0.307 OA
HETATM    6  C14         0      45.611  63.459  12.938  1.00  0.00     0.107 C 
HETATM    7  C15         0      46.254  62.350  12.408  1.00  0.00     0.049 C 
HETATM    8  C16         0      46.651  62.314  11.076  1.00  0.00     0.093 C 
HETATM    9  C18         0      45.932  63.146  10.227  1.00  0.00     0.048 C 
HETATM   10  C19         0      45.238  64.238  10.730  1.00  0.00     0.096 C 
HETATM   11  C21         0      45.248  64.487  12.075  1.00  0.00     0.084 C 
ENDROOT
BRANCH  10  12
HETATM   12  O20         0      44.901  65.283   9.875  1.00  0.00    -0.359 OA
HETATM   13  H20         0      45.389  66.094   9.950  1.00  0.00     0.218 HD
ENDBRANCH  10  12
BRANCH   4  14
HETATM   14  C5          0      45.645  65.043  16.146  1.00  0.00     0.025 C 
HETATM   15  C6          0      45.560  66.292  16.745  1.00  0.00     0.004 C 
HETATM   16  C7          0      45.219  66.338  18.093  1.00  0.00     0.026 C 
HETATM   17  C8          0      45.098  65.181  18.855  1.00  0.00     0.112 C 
HETATM   18  C10         0      45.798  64.087  18.364  1.00  0.00     0.112 C 
HETATM   19  C12         0      46.051  64.024  16.998  1.00  0.00     0.028 C 
BRANCH  17  20
HETATM   20  O9          0      44.179  65.104  19.887  1.00  0.00    -0.357 OA
HETATM   21  H9          0      44.389  65.290  20.795  1.00  0.00     0.218 HD
ENDBRANCH  17  20
BRANCH  18  22
HETATM   22  O11         0      45.866  62.966  19.179  1.00  0.00    -0.357 OA
HETATM   23  H11         0      46.204  63.094  20.058  1.00  0.00     0.218 HD
ENDBRANCH  18  22
ENDBRANCH   4  14
BRANCH   8  24
HETATM   24  O17         0      47.875  61.754  10.695  1.00  0.00    -0.359 OA
HETATM   25  H17         0      48.045  61.488   9.799  1.00  0.00     0.218 HD
ENDBRANCH   8  24
TORSDOF 5
ENDMDL
MODEL 5
REMARK VINA RESULT:      -5.9      3.295      5.110
REMARK  5 active torsions:
REMARK  status: ('A' for Active; 'I' for Inactive)
REMARK    1  A    between atoms: C4_4  and  C5_5 
REMARK    2  A    between atoms: C8_8  and  O9_9 
REMARK    3  A    between atoms: C10_11  and  O11_12 
REMARK    4  A    between atoms: C16_18  and  O17_19 
REMARK    5  A    between atoms: C19_22  and  O20_23 
ROOT
HETATM    1  O1          0      44.982  68.291  16.529  1.00  0.00    -0.286 OA
HETATM    2  C2          0      45.446  67.298  15.905  1.00  0.00     0.201 C 
HETATM    3  C3          0      45.400  67.191  14.525  1.00  0.00     0.067 C 
HETATM    4  C4          0      45.825  66.042  13.869  1.00  0.00     0.103 C 
HETATM    5  O13         0      46.301  65.040  14.587  1.00  0.00    -0.307 OA
HETATM    6  C14         0      46.332  65.074  15.901  1.00  0.00     0.107 C 
HETATM    7  C15         0      46.443  63.918  16.660  1.00  0.00     0.049 C 
HETATM    8  C16         0      46.220  63.932  18.032  1.00  0.00     0.093 C 
HETATM    9  C18         0      46.414  65.163  18.646  1.00  0.00     0.048 C 
HETATM   10  C19         0      46.357  66.337  17.907  1.00  0.00     0.096 C 
HETATM   11  C21         0      46.123  66.281  16.561  1.00  0.00     0.084 C 
ENDROOT
BRANCH  10  12
HETATM   12  O20         0      46.116  67.541  18.562  1.00  0.00    -0.359 OA
HETATM   13  H20         0      45.851  67.508  19.473  1.00  0.00     0.218 HD
ENDBRANCH  10  12
BRANCH   4  14
HETATM   14  C5          0      45.220  65.751  12.567  1.00  0.00     0.025 C 
HETATM   15  C6          0      45.957  65.310  11.477  1.00  0.00     0.004 C 
HETATM   16  C7          0      45.376  64.352  10.652  1.00  0.00     0.026 C 
HETATM   17  C8          0      44.057  63.945  10.824  1.00  0.00     0.112 C 
HETATM   18  C10         0      43.249  64.860  11.484  1.00  0.00     0.112 C 
HETATM   19  C12         0      43.846  65.750  12.369  1.00  0.00     0.028 C 
BRANCH  17  20
HETATM   20  O9          0      43.674  62.646  10.539  1.00  0.00    -0.357 OA
HETATM   21  H9          0      43.228  62.079  11.158  1.00  0.00     0.218 HD
ENDBRANCH  17  20
BRANCH  18  22
HETATM   22  O11         0      41.888  64.589  11.516  1.00  0.00    -0.357 OA
HETATM   23  H11         0      41.464  64.418  10.682  1.00  0.00     0.218 HD
ENDBRANCH  18  22
ENDBRANCH   4  14
BRANCH   8  24
HETATM   24  O17         0      45.535  62.891  18.669  1.00  0.00    -0.359 OA
HETATM   25  H17         0      45.994  62.199  19.128  1.00  0.00     0.218 HD
ENDBRANCH   8  24
TORSDOF 5
ENDMDL
MODEL 6
REMARK VINA RESULT:      -5.9      3.610      5.325
REMARK  5 active torsions:
REMARK  status: ('A' for Active; 'I' for Inactive)
REMARK    1  A    between atoms: C4_4  and  C5_5 
REMARK    2  A    between atoms: C8_8  and  O9_9 
REMARK    3  A    between atoms: C10_11  and  O11_12 
REMARK    4  A    between atoms: C16_18  and  O17_19 
REMARK    5  A    between atoms: C19_22  and  O20_23 
ROOT
HETATM    1  O1          0      45.103  68.486  15.777  1.00  0.00    -0.286 OA
HETATM    2  C2          0      45.385  67.264  15.911  1.00  0.00     0.201 C 
HETATM    3  C3          0      45.579  66.416  14.833  1.00  0.00     0.067 C 
HETATM    4  C4          0      45.787  65.052  15.007  1.00  0.00     0.103 C 
HETATM    5  O13         0      45.818  64.567  16.236  1.00  0.00    -0.307 OA
HETATM    6  C14         0      45.602  65.321  17.291  1.00  0.00     0.107 C 
HETATM    7  C15         0      45.239  64.778  18.516  1.00  0.00     0.049 C 
HETATM    8  C16         0      44.768  65.579  19.549  1.00  0.00     0.093 C 
HETATM    9  C18         0      45.174  66.907  19.494  1.00  0.00     0.048 C 
HETATM   10  C19         0      45.588  67.469  18.294  1.00  0.00     0.096 C 
HETATM   11  C21         0      45.613  66.705  17.159  1.00  0.00     0.084 C 
ENDROOT
BRANCH  10  12
HETATM   12  O20         0      45.569  68.853  18.149  1.00  0.00    -0.359 OA
HETATM   13  H20         0      44.836  69.242  17.687  1.00  0.00     0.218 HD
ENDBRANCH  10  12
BRANCH   4  14
HETATM   14  C5          0      45.389  64.169  13.910  1.00  0.00     0.025 C 
HETATM   15  C6          0      44.522  64.565  12.902  1.00  0.00     0.004 C 
HETATM   16  C7          0      44.788  64.121  11.611  1.00  0.00     0.026 C 
HETATM   17  C8          0      45.801  63.205  11.349  1.00  0.00     0.112 C 
HETATM   18  C10         0      46.164  62.416  12.433  1.00  0.00     0.112 C 
HETATM   19  C12         0      45.965  62.921  13.713  1.00  0.00     0.028 C 
BRANCH  17  20
HETATM   20  O9          0      46.510  63.252  10.162  1.00  0.00    -0.357 OA
HETATM   21  H9          0      46.557  62.529   9.547  1.00  0.00     0.218 HD
ENDBRANCH  17  20
BRANCH  18  22
HETATM   22  O11         0      47.032  61.363  12.181  1.00  0.00    -0.357 OA
HETATM   23  H11         0      47.721  61.212  12.818  1.00  0.00     0.218 HD
ENDBRANCH  18  22
ENDBRANCH   4  14
BRANCH   8  24
HETATM   24  O17         0      43.711  65.166  20.368  1.00  0.00    -0.359 OA
HETATM   25  H17         0      43.385  64.274  20.349  1.00  0.00     0.218 HD
ENDBRANCH   8  24
TORSDOF 5
ENDMDL
MODEL 7
REMARK VINA RESULT:      -5.8      1.772      2.091
REMARK  5 active torsions:
REMARK  status: ('A' for Active; 'I' for Inactive)
REMARK    1  A    between atoms: C4_4  and  C5_5 
REMARK    2  A    between atoms: C8_8  and  O9_9 
REMARK    3  A    between atoms: C10_11  and  O11_12 
REMARK    4  A    between atoms: C16_18  and  O17_19 
REMARK    5  A    between atoms: C19_22  and  O20_23 
ROOT
HETATM    1  O1          0      47.582  66.581  15.414  1.00  0.00    -0.286 OA
HETATM    2  C2          0      46.613  66.331  14.646  1.00  0.00     0.201 C 
HETATM    3  C3          0      46.487  65.133  13.963  1.00  0.00     0.067 C 
HETATM    4  C4          0      45.465  64.923  13.044  1.00  0.00     0.103 C 
HETATM    5  O13         0      44.586  65.888  12.839  1.00  0.00    -0.307 OA
HETATM    6  C14         0      44.682  67.057  13.433  1.00  0.00     0.107 C 
HETATM    7  C15         0      44.032  68.181  12.944  1.00  0.00     0.049 C 
HETATM    8  C16         0      44.334  69.453  13.416  1.00  0.00     0.093 C 
HETATM    9  C18         0      44.874  69.490  14.696  1.00  0.00     0.048 C 
HETATM   10  C19         0      45.490  68.369  15.235  1.00  0.00     0.096 C 
HETATM   11  C21         0      45.552  67.213  14.507  1.00  0.00     0.084 C 
ENDROOT
BRANCH  10  12
HETATM   12  O20         0      46.386  68.526  16.288  1.00  0.00    -0.359 OA
HETATM   13  H20         0      46.312  69.307  16.823  1.00  0.00     0.218 HD
ENDBRANCH  10  12
BRANCH   4  14
HETATM   14  C5          0      45.718  63.961  11.969  1.00  0.00     0.025 C 
HETATM   15  C6          0      46.984  63.471  11.681  1.00  0.00     0.004 C 
HETATM   16  C7          0      47.089  62.132  11.319  1.00  0.00     0.026 C 
HETATM   17  C8          0      45.964  61.340  11.118  1.00  0.00     0.112 C 
HETATM   18  C10         0      44.807  62.043  10.808  1.00  0.00     0.112 C 
HETATM   19  C12         0      44.692  63.354  11.256  1.00  0.00     0.028 C 
BRANCH  17  20
HETATM   20  O9          0      45.984  59.990  11.419  1.00  0.00    -0.357 OA
HETATM   21  H9          0      46.670  59.573  11.929  1.00  0.00     0.218 HD
ENDBRANCH  17  20
BRANCH  18  22
HETATM   22  O11         0      43.705  61.298  10.414  1.00  0.00    -0.357 OA
HETATM   23  H11         0      43.407  60.622  11.012  1.00  0.00     0.218 HD
ENDBRANCH  18  22
ENDBRANCH   4  14
BRANCH   8  24
HETATM   24  O17         0      44.407  70.553  12.554  1.00  0.00    -0.359 OA
HETATM   25  H17         0      44.296  71.442  12.869  1.00  0.00     0.218 HD
ENDBRANCH   8  24
TORSDOF 5
ENDMDL
MODEL 8
REMARK VINA RESULT:      -5.7      4.687      6.994
REMARK  5 active torsions:
REMARK  status: ('A' for Active; 'I' for Inactive)
REMARK    1  A    between atoms: C4_4  and  C5_5 
REMARK    2  A    between atoms: C8_8  and  O9_9 
REMARK    3  A    between atoms: C10_11  and  O11_12 
REMARK    4  A    between atoms: C16_18  and  O17_19 
REMARK    5  A    between atoms: C19_22  and  O20_23 
ROOT
HETATM    1  O1          0      45.130  69.690  18.421  1.00  0.00    -0.286 OA
HETATM    2  C2          0      45.317  68.473  18.145  1.00  0.00     0.201 C 
HETATM    3  C3          0      45.683  68.038  16.883  1.00  0.00     0.067 C 
HETATM    4  C4          0      45.782  66.685  16.579  1.00  0.00     0.103 C 
HETATM    5  O13         0      45.540  65.801  17.531  1.00  0.00    -0.307 OA
HETATM    6  C14         0      45.154  66.160  18.736  1.00  0.00     0.107 C 
HETATM    7  C15         0      44.524  65.272  19.596  1.00  0.00     0.049 C 
HETATM    8  C16         0      43.894  65.712  20.754  1.00  0.00     0.093 C 
HETATM    9  C18         0      44.369  66.917  21.258  1.00  0.00     0.048 C 
HETATM   10  C19         0      45.045  67.809  20.436  1.00  0.00     0.096 C 
HETATM   11  C21         0      45.260  67.491  19.123  1.00  0.00     0.084 C 
ENDROOT
BRANCH  10  12
HETATM   12  O20         0      45.125  69.148  20.805  1.00  0.00    -0.359 OA
HETATM   13  H20         0      44.467  69.485  21.402  1.00  0.00     0.218 HD
ENDBRANCH  10  12
BRANCH   4  14
HETATM   14  C5          0      45.570  66.294  15.184  1.00  0.00     0.025 C 
HETATM   15  C6          0      45.618  64.975  14.758  1.00  0.00     0.004 C 
HETATM   16  C7          0      44.704  64.578  13.786  1.00  0.00     0.026 C 
HETATM   17  C8          0      43.861  65.491  13.162  1.00  0.00     0.112 C 
HETATM   18  C10         0      44.312  66.804  13.182  1.00  0.00     0.112 C 
HETATM   19  C12         0      45.157  67.196  14.213  1.00  0.00     0.028 C 
BRANCH  17  20
HETATM   20  O9          0      42.591  65.121  12.756  1.00  0.00    -0.357 OA
HETATM   21  H9          0      41.864  65.728  12.677  1.00  0.00     0.218 HD
ENDBRANCH  17  20
BRANCH  18  22
HETATM   22  O11         0      43.609  67.722  12.414  1.00  0.00    -0.357 OA
HETATM   23  H11         0      42.668  67.759  12.543  1.00  0.00     0.218 HD
ENDBRANCH  18  22
ENDBRANCH   4  14
BRANCH   8  24
HETATM   24  O17         0      42.674  65.169  21.173  1.00  0.00    -0.359 OA
HETATM   25  H17         0      42.354  64.341  20.834  1.00  0.00     0.218 HD
ENDBRANCH   8  24
TORSDOF 5
ENDMDL
MODEL 9
REMARK VINA RESULT:      -5.6      1.634      6.683
REMARK  5 active torsions:
REMARK  status: ('A' for Active; 'I' for Inactive)
REMARK    1  A    between atoms: C4_4  and  C5_5 
REMARK    2  A    between atoms: C8_8  and  O9_9 
REMARK    3  A    between atoms: C10_11  and  O11_12 
REMARK    4  A    between atoms: C16_18  and  O17_19 
REMARK    5  A    between atoms: C19_22  and  O20_23 
ROOT
HETATM    1  O1          0      45.549  64.143  15.267  1.00  0.00    -0.286 OA
HETATM    2  C2          0      45.606  64.629  14.105  1.00  0.00     0.201 C 
HETATM    3  C3          0      45.645  65.992  13.862  1.00  0.00     0.067 C 
HETATM    4  C4          0      45.604  66.503  12.569  1.00  0.00     0.103 C 
HETATM    5  O13         0      45.548  65.659  11.554  1.00  0.00    -0.307 OA
HETATM    6  C14         0      45.471  64.358  11.731  1.00  0.00     0.107 C 
HETATM    7  C15         0      45.017  63.510  10.731  1.00  0.00     0.049 C 
HETATM    8  C16         0      44.697  62.185  10.998  1.00  0.00     0.093 C 
HETATM    9  C18         0      45.335  61.639  12.106  1.00  0.00     0.048 C 
HETATM   10  C19         0      45.844  62.461  13.103  1.00  0.00     0.096 C 
HETATM   11  C21         0      45.730  63.819  12.986  1.00  0.00     0.084 C 
ENDROOT
BRANCH  10  12
HETATM   12  O20         0      46.074  61.931  14.369  1.00  0.00    -0.359 OA
HETATM   13  H20         0      45.321  61.691  14.894  1.00  0.00     0.218 HD
ENDBRANCH  10  12
BRANCH   4  14
HETATM   14  C5          0      45.053  67.849  12.398  1.00  0.00     0.025 C 
HETATM   15  C6          0      44.375  68.517  13.407  1.00  0.00     0.004 C 
HETATM   16  C7          0      44.588  69.886  13.530  1.00  0.00     0.026 C 
HETATM   17  C8          0      45.344  70.593  12.601  1.00  0.00     0.112 C 
HETATM   18  C10         0      45.431  69.996  11.350  1.00  0.00     0.112 C 
HETATM   19  C12         0      45.299  68.615  11.267  1.00  0.00     0.028 C 
BRANCH  17  20
HETATM   20  O9          0      46.106  71.681  12.988  1.00  0.00    -0.357 OA
HETATM   21  H9          0      46.584  71.727  13.807  1.00  0.00     0.218 HD
ENDBRANCH  17  20
BRANCH  18  22
HETATM   22  O11         0      46.011  70.745  10.336  1.00  0.00    -0.357 OA
HETATM   23  H11         0      46.887  71.078  10.494  1.00  0.00     0.218 HD
ENDBRANCH  18  22
ENDBRANCH   4  14
BRANCH   8  24
HETATM   24  O17         0      43.584  61.571  10.414  1.00  0.00    -0.359 OA
HETATM   25  H17         0      43.064  60.928  10.883  1.00  0.00     0.218 HD
ENDBRANCH   8  24
TORSDOF 5
ENDMDL
