MODEL 1
REMARK VINA RESULT:      -5.8      0.000      0.000
REMARK  5 active torsions:
REMARK  status: ('A' for Active; 'I' for Inactive)
REMARK    1  A    between atoms: C4_4  and  C5_5 
REMARK    2  A    between atoms: C8_8  and  O9_9 
REMARK    3  A    between atoms: C10_11  and  O11_12 
REMARK    4  A    between atoms: C16_18  and  O17_19 
REMARK    5  A    between atoms: C19_22  and  O20_23 
ROOT
HETATM    1  O1          0      56.680  57.513  -9.215  1.00  0.00    -0.286 OA
HETATM    2  C2          0      57.157  56.860  -8.247  1.00  0.00     0.201 C 
HETATM    3  C3          0      58.172  55.930  -8.396  1.00  0.00     0.067 C 
HETATM    4  C4          0      58.609  55.151  -7.331  1.00  0.00     0.103 C 
HETATM    5  O13         0      58.049  55.323  -6.147  1.00  0.00    -0.307 OA
HETATM    6  C14         0      57.056  56.165  -5.959  1.00  0.00     0.107 C 
HETATM    7  C15         0      56.215  56.069  -4.860  1.00  0.00     0.049 C 
HETATM    8  C16         0      55.027  56.788  -4.796  1.00  0.00     0.093 C 
HETATM    9  C18         0      54.998  57.943  -5.568  1.00  0.00     0.048 C 
HETATM   10  C19         0      55.859  58.092  -6.647  1.00  0.00     0.096 C 
HETATM   11  C21         0      56.755  57.101  -6.942  1.00  0.00     0.084 C 
ENDROOT
BRANCH  10  12
HETATM   12  O20         0      55.544  59.006  -7.648  1.00  0.00    -0.359 OA
HETATM   13  H20         0      55.338  59.896  -7.389  1.00  0.00     0.218 HD
ENDBRANCH  10  12
BRANCH   4  14
HETATM   14  C5          0      59.195  53.848  -7.651  1.00  0.00     0.025 C 
HETATM   15  C6          0      60.114  53.214  -6.827  1.00  0.00     0.004 C 
HETATM   16  C7          0      60.019  51.832  -6.699  1.00  0.00     0.026 C 
HETATM   17  C8          0      59.128  51.088  -7.465  1.00  0.00     0.112 C 
HETATM   18  C10         0      58.739  51.693  -8.652  1.00  0.00     0.112 C 
HETATM   19  C12         0      58.763  53.081  -8.725  1.00  0.00     0.028 C 
BRANCH  17  20
HETATM   20  O9          0      58.537  49.945  -6.955  1.00  0.00    -0.357 OA
HETATM   21  H9          0      57.649  49.675  -7.157  1.00  0.00     0.218 HD
ENDBRANCH  17  20
BRANCH  18  22
HETATM   22  O11         0      58.004  50.920  -9.540  1.00  0.00    -0.357 OA
HETATM   23  H11         0      57.075  50.826  -9.362  1.00  0.00     0.218 HD
ENDBRANCH  18  22
ENDBRANCH   4  14
BRANCH   8  24
HETATM   24  O17         0      53.859  56.221  -4.275  1.00  0.00    -0.359 OA
HETATM   25  H17         0      53.706  55.284  -4.296  1.00  0.00     0.218 HD
ENDBRANCH   8  24
TORSDOF 5
ENDMDL
MODEL 2
REMARK VINA RESULT:      -5.6      3.504      6.737
REMARK  5 active torsions:
REMARK  status: ('A' for Active; 'I' for Inactive)
REMARK    1  A    between atoms: C4_4  and  C5_5 
REMARK    2  A    between atoms: C8_8  and  O9_9 
REMARK    3  A    between atoms: C10_11  and  O11_12 
REMARK    4  A    between atoms: C16_18  and  O17_19 
REMARK    5  A    between atoms: C19_22  and  O20_23 
ROOT
HETATM    1  O1          0      57.645  49.956  -9.476  1.00  0.00    -0.286 OA
HETATM    2  C2          0      57.115  51.078  -9.248  1.00  0.00     0.201 C 
HETATM    3  C3          0      56.141  51.628 -10.063  1.00  0.00     0.067 C 
HETATM    4  C4          0      55.649  52.910  -9.847  1.00  0.00     0.103 C 
HETATM    5  O13         0      56.114  53.604  -8.824  1.00  0.00    -0.307 OA
HETATM    6  C14         0      57.065  53.144  -8.041  1.00  0.00     0.107 C 
HETATM    7  C15         0      57.824  53.986  -7.241  1.00  0.00     0.049 C 
HETATM    8  C16         0      58.982  53.537  -6.617  1.00  0.00     0.093 C 
HETATM    9  C18         0      59.036  52.167  -6.395  1.00  0.00     0.048 C 
HETATM   10  C19         0      58.255  51.299  -7.146  1.00  0.00     0.096 C 
HETATM   11  C21         0      57.411  51.799  -8.101  1.00  0.00     0.084 C 
ENDROOT
BRANCH  10  12
HETATM   12  O20         0      58.617  49.959  -7.233  1.00  0.00    -0.359 OA
HETATM   13  H20         0      58.626  49.555  -8.092  1.00  0.00     0.218 HD
ENDBRANCH  10  12
BRANCH   4  14
HETATM   14  C5          0      55.126  53.631 -11.009  1.00  0.00     0.025 C 
HETATM   15  C6          0      54.246  53.058 -11.917  1.00  0.00     0.004 C 
HETATM   16  C7          0      53.233  53.863 -12.427  1.00  0.00     0.026 C 
HETATM   17  C8          0      53.174  55.225 -12.152  1.00  0.00     0.112 C 
HETATM   18  C10         0      54.388  55.797 -11.795  1.00  0.00     0.112 C 
HETATM   19  C12         0      55.353  54.987 -11.208  1.00  0.00     0.028 C 
BRANCH  17  20
HETATM   20  O9          0      51.958  55.875 -12.044  1.00  0.00    -0.357 OA
HETATM   21  H9          0      51.120  55.426 -12.019  1.00  0.00     0.218 HD
ENDBRANCH  17  20
BRANCH  18  22
HETATM   22  O11         0      54.425  57.181 -11.694  1.00  0.00    -0.357 OA
HETATM   23  H11         0      55.105  57.629 -12.183  1.00  0.00     0.218 HD
ENDBRANCH  18  22
ENDBRANCH   4  14
BRANCH   8  24
HETATM   24  O17         0      60.124  54.342  -6.535  1.00  0.00    -0.359 OA
HETATM   25  H17         0      60.117  55.250  -6.814  1.00  0.00     0.218 HD
ENDBRANCH   8  24
TORSDOF 5
ENDMDL
MODEL 3
REMARK VINA RESULT:      -5.5      7.233      8.515
REMARK  5 active torsions:
REMARK  status: ('A' for Active; 'I' for Inactive)
REMARK    1  A    between atoms: C4_4  and  C5_5 
REMARK    2  A    between atoms: C8_8  and  O9_9 
REMARK    3  A    between atoms: C10_11  and  O11_12 
REMARK    4  A    between atoms: C16_18  and  O17_19 
REMARK    5  A    between atoms: C19_22  and  O20_23 
ROOT
HETATM    1  O1          0      50.686  52.332 -14.010  1.00  0.00    -0.286 OA
HETATM    2  C2          0      51.734  53.027 -14.108  1.00  0.00     0.201 C 
HETATM    3  C3          0      52.933  52.664 -13.519  1.00  0.00     0.067 C 
HETATM    4  C4          0      54.045  53.498 -13.555  1.00  0.00     0.103 C 
HETATM    5  O13         0      53.950  54.655 -14.188  1.00  0.00    -0.307 OA
HETATM    6  C14         0      52.825  55.064 -14.731  1.00  0.00     0.107 C 
HETATM    7  C15         0      52.602  56.400 -15.032  1.00  0.00     0.049 C 
HETATM    8  C16         0      51.334  56.863 -15.364  1.00  0.00     0.093 C 
HETATM    9  C18         0      50.476  55.903 -15.886  1.00  0.00     0.048 C 
HETATM   10  C19         0      50.697  54.553 -15.643  1.00  0.00     0.096 C 
HETATM   11  C21         0      51.777  54.165 -14.899  1.00  0.00     0.084 C 
ENDROOT
BRANCH  10  12
HETATM   12  O20         0      49.641  53.657 -15.779  1.00  0.00    -0.359 OA
HETATM   13  H20         0      48.844  53.966 -16.192  1.00  0.00     0.218 HD
ENDBRANCH  10  12
BRANCH   4  14
HETATM   14  C5          0      55.017  53.367 -12.469  1.00  0.00     0.025 C 
HETATM   15  C6          0      55.392  54.432 -11.662  1.00  0.00     0.004 C 
HETATM   16  C7          0      55.599  54.175 -10.311  1.00  0.00     0.026 C 
HETATM   17  C8          0      55.566  52.882  -9.800  1.00  0.00     0.112 C 
HETATM   18  C10         0      55.818  51.884 -10.733  1.00  0.00     0.112 C 
HETATM   19  C12         0      55.523  52.137 -12.067  1.00  0.00     0.028 C 
BRANCH  17  20
HETATM   20  O9          0      55.107  52.637  -8.518  1.00  0.00    -0.357 OA
HETATM   21  H9          0      54.218  52.812  -8.234  1.00  0.00     0.218 HD
ENDBRANCH  17  20
BRANCH  18  22
HETATM   22  O11         0      55.985  50.596 -10.245  1.00  0.00    -0.357 OA
HETATM   23  H11         0      55.368  50.303  -9.584  1.00  0.00     0.218 HD
ENDBRANCH  18  22
ENDBRANCH   4  14
BRANCH   8  24
HETATM   24  O17         0      50.863  58.095 -14.897  1.00  0.00    -0.359 OA
HETATM   25  H17         0      51.169  58.917 -15.261  1.00  0.00     0.218 HD
ENDBRANCH   8  24
TORSDOF 5
ENDMDL
MODEL 4
REMARK VINA RESULT:      -5.2      2.009      6.563
REMARK  5 active torsions:
REMARK  status: ('A' for Active; 'I' for Inactive)
REMARK    1  A    between atoms: C4_4  and  C5_5 
REMARK    2  A    between atoms: C8_8  and  O9_9 
REMARK    3  A    between atoms: C10_11  and  O11_12 
REMARK    4  A    between atoms: C16_18  and  O17_19 
REMARK    5  A    between atoms: C19_22  and  O20_23 
ROOT
HETATM    1  O1          0      58.149  51.827  -6.627  1.00  0.00    -0.286 OA
HETATM    2  C2          0      57.985  52.791  -7.425  1.00  0.00     0.201 C 
HETATM    3  C3          0      58.216  54.108  -7.067  1.00  0.00     0.067 C 
HETATM    4  C4          0      57.930  55.159  -7.931  1.00  0.00     0.103 C 
HETATM    5  O13         0      57.445  54.882  -9.128  1.00  0.00    -0.307 OA
HETATM    6  C14         0      57.172  53.651  -9.505  1.00  0.00     0.107 C 
HETATM    7  C15         0      56.315  53.383 -10.562  1.00  0.00     0.049 C 
HETATM    8  C16         0      55.832  52.101 -10.792  1.00  0.00     0.093 C 
HETATM    9  C18         0      56.627  51.076 -10.293  1.00  0.00     0.048 C 
HETATM   10  C19         0      57.529  51.320  -9.266  1.00  0.00     0.096 C 
HETATM   11  C21         0      57.650  52.583  -8.754  1.00  0.00     0.084 C 
ENDROOT
BRANCH  10  12
HETATM   12  O20         0      57.984  50.256  -8.493  1.00  0.00    -0.359 OA
HETATM   13  H20         0      57.552  49.416  -8.593  1.00  0.00     0.218 HD
ENDBRANCH  10  12
BRANCH   4  14
HETATM   14  C5          0      57.619  56.456  -7.328  1.00  0.00     0.025 C 
HETATM   15  C6          0      58.196  57.643  -7.758  1.00  0.00     0.004 C 
HETATM   16  C7          0      57.392  58.777  -7.788  1.00  0.00     0.026 C 
HETATM   17  C8          0      56.097  58.766  -7.282  1.00  0.00     0.112 C 
HETATM   18  C10         0      55.851  57.778  -6.338  1.00  0.00     0.112 C 
HETATM   19  C12         0      56.614  56.617  -6.384  1.00  0.00     0.028 C 
BRANCH  17  20
HETATM   20  O9          0      55.107  59.548  -7.850  1.00  0.00    -0.357 OA
HETATM   21  H9          0      54.905  59.552  -8.779  1.00  0.00     0.218 HD
ENDBRANCH  17  20
BRANCH  18  22
HETATM   22  O11         0      54.639  57.839  -5.665  1.00  0.00    -0.357 OA
HETATM   23  H11         0      54.622  57.496  -4.779  1.00  0.00     0.218 HD
ENDBRANCH  18  22
ENDBRANCH   4  14
BRANCH   8  24
HETATM   24  O17         0      54.508  51.879 -11.185  1.00  0.00    -0.359 OA
HETATM   25  H17         0      54.002  52.547 -11.634  1.00  0.00     0.218 HD
ENDBRANCH   8  24
TORSDOF 5
ENDMDL
MODEL 5
REMARK VINA RESULT:      -5.2      3.820      6.648
REMARK  5 active torsions:
REMARK  status: ('A' for Active; 'I' for Inactive)
REMARK    1  A    between atoms: C4_4  and  C5_5 
REMARK    2  A    between atoms: C8_8  and  O9_9 
REMARK    3  A    between atoms: C10_11  and  O11_12 
REMARK    4  A    between atoms: C16_18  and  O17_19 
REMARK    5  A    between atoms: C19_22  and  O20_23 
ROOT
HETATM    1  O1          0      55.431  52.418 -10.230  1.00  0.00    -0.286 OA
HETATM    2  C2          0      55.588  53.650 -10.448  1.00  0.00     0.201 C 
HETATM    3  C3          0      56.369  54.461  -9.642  1.00  0.00     0.067 C 
HETATM    4  C4          0      56.444  55.835  -9.844  1.00  0.00     0.103 C 
HETATM    5  O13         0      55.765  56.366 -10.846  1.00  0.00    -0.307 OA
HETATM    6  C14         0      54.980  55.648 -11.618  1.00  0.00     0.107 C 
HETATM    7  C15         0      53.982  56.227 -12.387  1.00  0.00     0.049 C 
HETATM    8  C16         0      53.000  55.455 -12.997  1.00  0.00     0.093 C 
HETATM    9  C18         0      53.359  54.136 -13.242  1.00  0.00     0.048 C 
HETATM   10  C19         0      54.386  53.538 -12.523  1.00  0.00     0.096 C 
HETATM   11  C21         0      55.060  54.260 -11.576  1.00  0.00     0.084 C 
ENDROOT
BRANCH  10  12
HETATM   12  O20         0      54.449  52.150 -12.453  1.00  0.00    -0.359 OA
HETATM   13  H20         0      55.238  51.758 -12.098  1.00  0.00     0.218 HD
ENDBRANCH  10  12
BRANCH   4  14
HETATM   14  C5          0      56.750  56.668  -8.680  1.00  0.00     0.025 C 
HETATM   15  C6          0      56.443  58.019  -8.621  1.00  0.00     0.004 C 
HETATM   16  C7          0      56.000  58.527  -7.403  1.00  0.00     0.026 C 
HETATM   17  C8          0      55.989  57.750  -6.250  1.00  0.00     0.112 C 
HETATM   18  C10         0      56.873  56.680  -6.264  1.00  0.00     0.112 C 
HETATM   19  C12         0      57.234  56.137  -7.491  1.00  0.00     0.028 C 
BRANCH  17  20
HETATM   20  O9          0      55.017  57.932  -5.282  1.00  0.00    -0.357 OA
HETATM   21  H9          0      54.085  57.947  -5.467  1.00  0.00     0.218 HD
ENDBRANCH  17  20
BRANCH  18  22
HETATM   22  O11         0      57.040  55.987  -5.073  1.00  0.00    -0.357 OA
HETATM   23  H11         0      56.381  55.338  -4.857  1.00  0.00     0.218 HD
ENDBRANCH  18  22
ENDBRANCH   4  14
BRANCH   8  24
HETATM   24  O17         0      51.666  55.875 -13.042  1.00  0.00    -0.359 OA
HETATM   25  H17         0      50.972  55.378 -12.627  1.00  0.00     0.218 HD
ENDBRANCH   8  24
TORSDOF 5
ENDMDL
MODEL 6
REMARK VINA RESULT:      -5.1      6.718      8.611
REMARK  5 active torsions:
REMARK  status: ('A' for Active; 'I' for Inactive)
REMARK    1  A    between atoms: C4_4  and  C5_5 
REMARK    2  A    between atoms: C8_8  and  O9_9 
REMARK    3  A    between atoms: C10_11  and  O11_12 
REMARK    4  A    between atoms: C16_18  and  O17_19 
REMARK    5  A    between atoms: C19_22  and  O20_23 
ROOT
HETATM    1  O1          0      55.133  57.707 -11.370  1.00  0.00    -0.286 OA
HETATM    2  C2          0      54.871  56.586 -11.886  1.00  0.00     0.201 C 
HETATM    3  C3          0      54.073  56.446 -13.010  1.00  0.00     0.067 C 
HETATM    4  C4          0      53.716  55.194 -13.498  1.00  0.00     0.103 C 
HETATM    5  O13         0      54.171  54.118 -12.879  1.00  0.00    -0.307 OA
HETATM    6  C14         0      54.900  54.195 -11.787  1.00  0.00     0.107 C 
HETATM    7  C15         0      55.040  53.118 -10.925  1.00  0.00     0.049 C 
HETATM    8  C16         0      55.592  53.274  -9.659  1.00  0.00     0.093 C 
HETATM    9  C18         0      56.443  54.364  -9.520  1.00  0.00     0.048 C 
HETATM   10  C19         0      56.361  55.439 -10.395  1.00  0.00     0.096 C 
HETATM   11  C21         0      55.447  55.418 -11.413  1.00  0.00     0.084 C 
ENDROOT
BRANCH  10  12
HETATM   12  O20         0      56.880  56.671 -10.009  1.00  0.00    -0.359 OA
HETATM   13  H20         0      57.809  56.724  -9.822  1.00  0.00     0.218 HD
ENDBRANCH  10  12
BRANCH   4  14
HETATM   14  C5          0      52.461  55.099 -14.245  1.00  0.00     0.025 C 
HETATM   15  C6          0      51.341  55.856 -13.933  1.00  0.00     0.004 C 
HETATM   16  C7          0      50.576  56.341 -14.988  1.00  0.00     0.026 C 
HETATM   17  C8          0      50.836  55.977 -16.305  1.00  0.00     0.112 C 
HETATM   18  C10         0      51.520  54.777 -16.451  1.00  0.00     0.112 C 
HETATM   19  C12         0      52.345  54.358 -15.414  1.00  0.00     0.028 C 
BRANCH  17  20
HETATM   20  O9          0      50.607  56.862 -17.344  1.00  0.00    -0.357 OA
HETATM   21  H9          0      50.228  56.610 -18.178  1.00  0.00     0.218 HD
ENDBRANCH  17  20
BRANCH  18  22
HETATM   22  O11         0      51.639  54.274 -17.738  1.00  0.00    -0.357 OA
HETATM   23  H11         0      50.937  53.711 -18.046  1.00  0.00     0.218 HD
ENDBRANCH  18  22
ENDBRANCH   4  14
BRANCH   8  24
HETATM   24  O17         0      55.071  52.601  -8.548  1.00  0.00    -0.359 OA
HETATM   25  H17         0      54.559  53.051  -7.887  1.00  0.00     0.218 HD
ENDBRANCH   8  24
TORSDOF 5
ENDMDL
MODEL 7
REMARK VINA RESULT:      -5.1      9.298     12.713
REMARK  5 active torsions:
REMARK  status: ('A' for Active; 'I' for Inactive)
REMARK    1  A    between atoms: C4_4  and  C5_5 
REMARK    2  A    between atoms: C8_8  and  O9_9 
REMARK    3  A    between atoms: C10_11  and  O11_12 
REMARK    4  A    between atoms: C16_18  and  O17_19 
REMARK    5  A    between atoms: C19_22  and  O20_23 
ROOT
HETATM    1  O1          0      54.149  69.030  -1.658  1.00  0.00    -0.286 OA
HETATM    2  C2          0      53.819  68.068  -2.404  1.00  0.00     0.201 C 
HETATM    3  C3          0      54.674  67.019  -2.698  1.00  0.00     0.067 C 
HETATM    4  C4          0      54.322  66.025  -3.605  1.00  0.00     0.103 C 
HETATM    5  O13         0      53.134  66.081  -4.179  1.00  0.00    -0.307 OA
HETATM    6  C14         0      52.300  67.075  -3.964  1.00  0.00     0.107 C 
HETATM    7  C15         0      51.256  67.354  -4.834  1.00  0.00     0.049 C 
HETATM    8  C16         0      50.541  68.543  -4.746  1.00  0.00     0.093 C 
HETATM    9  C18         0      50.552  69.142  -3.492  1.00  0.00     0.048 C 
HETATM   10  C19         0      51.556  68.849  -2.579  1.00  0.00     0.096 C 
HETATM   11  C21         0      52.533  67.950  -2.909  1.00  0.00     0.084 C 
ENDROOT
BRANCH  10  12
HETATM   12  O20         0      51.812  69.739  -1.541  1.00  0.00    -0.359 OA
HETATM   13  H20         0      51.776  69.409  -0.651  1.00  0.00     0.218 HD
ENDBRANCH  10  12
BRANCH   4  14
HETATM   14  C5          0      55.412  65.341  -4.304  1.00  0.00     0.025 C 
HETATM   15  C6          0      56.191  64.361  -3.707  1.00  0.00     0.004 C 
HETATM   16  C7          0      56.571  63.275  -4.488  1.00  0.00     0.026 C 
HETATM   17  C8          0      56.302  63.227  -5.852  1.00  0.00     0.112 C 
HETATM   18  C10         0      56.111  64.466  -6.449  1.00  0.00     0.112 C 
HETATM   19  C12         0      55.649  65.514  -5.662  1.00  0.00     0.028 C 
BRANCH  17  20
HETATM   20  O9          0      56.041  62.023  -6.481  1.00  0.00    -0.357 OA
HETATM   21  H9          0      55.173  61.641  -6.551  1.00  0.00     0.218 HD
ENDBRANCH  17  20
BRANCH  18  22
HETATM   22  O11         0      56.028  64.491  -7.834  1.00  0.00    -0.357 OA
HETATM   23  H11         0      56.725  64.938  -8.299  1.00  0.00     0.218 HD
ENDBRANCH  18  22
ENDBRANCH   4  14
BRANCH   8  24
HETATM   24  O17         0      50.139  69.239  -5.891  1.00  0.00    -0.359 OA
HETATM   25  H17         0      49.454  68.911  -6.460  1.00  0.00     0.218 HD
ENDBRANCH   8  24
TORSDOF 5
ENDMDL
MODEL 8
REMARK VINA RESULT:      -5.1      9.043     11.919
REMARK  5 active torsions:
REMARK  status: ('A' for Active; 'I' for Inactive)
REMARK    1  A    between atoms: C4_4  and  C5_5 
REMARK    2  A    between atoms: C8_8  and  O9_9 
REMARK    3  A    between atoms: C10_11  and  O11_12 
REMARK    4  A    between atoms: C16_18  and  O17_19 
REMARK    5  A    between atoms: C19_22  and  O20_23 
ROOT
HETATM    1  O1          0      54.610  66.456  -2.136  1.00  0.00    -0.286 OA
HETATM    2  C2          0      54.186  66.070  -3.259  1.00  0.00     0.201 C 
HETATM    3  C3          0      54.908  65.221  -4.082  1.00  0.00     0.067 C 
HETATM    4  C4          0      54.464  64.893  -5.358  1.00  0.00     0.103 C 
HETATM    5  O13         0      53.315  65.392  -5.779  1.00  0.00    -0.307 OA
HETATM    6  C14         0      52.610  66.231  -5.053  1.00  0.00     0.107 C 
HETATM    7  C15         0      51.645  67.053  -5.617  1.00  0.00     0.049 C 
HETATM    8  C16         0      51.087  68.107  -4.903  1.00  0.00     0.093 C 
HETATM    9  C18         0      51.129  67.966  -3.521  1.00  0.00     0.048 C 
HETATM   10  C19         0      52.052  67.116  -2.926  1.00  0.00     0.096 C 
HETATM   11  C21         0      52.916  66.398  -3.707  1.00  0.00     0.084 C 
ENDROOT
BRANCH  10  12
HETATM   12  O20         0      52.383  67.302  -1.587  1.00  0.00    -0.359 OA
HETATM   13  H20         0      51.718  67.658  -1.009  1.00  0.00     0.218 HD
ENDBRANCH  10  12
BRANCH   4  14
HETATM   14  C5          0      55.481  64.532  -6.348  1.00  0.00     0.025 C 
HETATM   15  C6          0      55.739  65.299  -7.475  1.00  0.00     0.004 C 
HETATM   16  C7          0      57.063  65.424  -7.881  1.00  0.00     0.026 C 
HETATM   17  C8          0      58.084  64.703  -7.270  1.00  0.00     0.112 C 
HETATM   18  C10         0      57.671  63.543  -6.628  1.00  0.00     0.112 C 
HETATM   19  C12         0      56.365  63.478  -6.157  1.00  0.00     0.028 C 
BRANCH  17  20
HETATM   20  O9          0      59.355  65.237  -7.149  1.00  0.00    -0.357 OA
HETATM   21  H9          0      60.083  65.000  -7.712  1.00  0.00     0.218 HD
ENDBRANCH  17  20
BRANCH  18  22
HETATM   22  O11         0      58.665  62.692  -6.167  1.00  0.00    -0.357 OA
HETATM   23  H11         0      58.410  61.798  -5.971  1.00  0.00     0.218 HD
ENDBRANCH  18  22
ENDBRANCH   4  14
BRANCH   8  24
HETATM   24  O17         0      50.823  69.339  -5.509  1.00  0.00    -0.359 OA
HETATM   25  H17         0      50.102  69.452  -6.118  1.00  0.00     0.218 HD
ENDBRANCH   8  24
TORSDOF 5
ENDMDL
MODEL 9
REMARK VINA RESULT:      -5.1      9.313     12.012
REMARK  5 active torsions:
REMARK  status: ('A' for Active; 'I' for Inactive)
REMARK    1  A    between atoms: C4_4  and  C5_5 
REMARK    2  A    between atoms: C8_8  and  O9_9 
REMARK    3  A    between atoms: C10_11  and  O11_12 
REMARK    4  A    between atoms: C16_18  and  O17_19 
REMARK    5  A    between atoms: C19_22  and  O20_23 
ROOT
HETATM    1  O1          0      54.605  66.366  -2.363  1.00  0.00    -0.286 OA
HETATM    2  C2          0      54.225  66.121  -3.541  1.00  0.00     0.201 C 
HETATM    3  C3          0      55.017  65.459  -4.463  1.00  0.00     0.067 C 
HETATM    4  C4          0      54.615  65.292  -5.783  1.00  0.00     0.103 C 
HETATM    5  O13         0      53.437  65.764  -6.152  1.00  0.00    -0.307 OA
HETATM    6  C14         0      52.662  66.433  -5.326  1.00  0.00     0.107 C 
HETATM    7  C15         0      51.645  67.258  -5.785  1.00  0.00     0.049 C 
HETATM    8  C16         0      51.002  68.151  -4.936  1.00  0.00     0.093 C 
HETATM    9  C18         0      51.038  67.810  -3.589  1.00  0.00     0.048 C 
HETATM   10  C19         0      52.014  66.950  -3.105  1.00  0.00     0.096 C 
HETATM   11  C21         0      52.938  66.420  -3.963  1.00  0.00     0.084 C 
ENDROOT
BRANCH  10  12
HETATM   12  O20         0      52.315  66.958  -1.746  1.00  0.00    -0.359 OA
HETATM   13  H20         0      51.655  67.286  -1.147  1.00  0.00     0.218 HD
ENDBRANCH  10  12
BRANCH   4  14
HETATM   14  C5          0      55.667  65.157  -6.792  1.00  0.00     0.025 C 
HETATM   15  C6          0      56.700  64.237  -6.682  1.00  0.00     0.004 C 
HETATM   16  C7          0      57.122  63.601  -7.845  1.00  0.00     0.026 C 
HETATM   17  C8          0      56.629  63.962  -9.094  1.00  0.00     0.112 C 
HETATM   18  C10         0      56.121  65.252  -9.167  1.00  0.00     0.112 C 
HETATM   19  C12         0      55.627  65.833  -8.005  1.00  0.00     0.028 C 
BRANCH  17  20
HETATM   20  O9          0      56.479  63.020 -10.096  1.00  0.00    -0.357 OA
HETATM   21  H9          0      56.289  62.103  -9.934  1.00  0.00     0.218 HD
ENDBRANCH  17  20
BRANCH  18  22
HETATM   22  O11         0      55.792  65.728 -10.428  1.00  0.00    -0.357 OA
HETATM   23  H11         0      55.100  65.271 -10.893  1.00  0.00     0.218 HD
ENDBRANCH  18  22
ENDBRANCH   4  14
BRANCH   8  24
HETATM   24  O17         0      50.654  69.438  -5.360  1.00  0.00    -0.359 OA
HETATM   25  H17         0      49.882  69.881  -5.029  1.00  0.00     0.218 HD
ENDBRANCH   8  24
TORSDOF 5
ENDMDL
