MODEL 1
REMARK VINA RESULT:      -0.0      0.000      0.000
REMARK  5 active torsions:
REMARK  status: ('A' for Active; 'I' for Inactive)
REMARK    1  A    between atoms: C4_4  and  C5_5 
REMARK    2  A    between atoms: C8_8  and  O9_9 
REMARK    3  A    between atoms: C10_11  and  O11_12 
REMARK    4  A    between atoms: C16_18  and  O17_19 
REMARK    5  A    between atoms: C19_22  and  O20_23 
ROOT
HETATM    1  O1          0      64.607  23.779 -26.745  1.00  0.00    -0.286 OA
HETATM    2  C2          0      64.903  22.712 -26.139  1.00  0.00     0.201 C 
HETATM    3  C3          0      63.958  21.918 -25.513  1.00  0.00     0.067 C 
HETATM    4  C4          0      64.323  20.804 -24.765  1.00  0.00     0.103 C 
HETATM    5  O13         0      65.603  20.493 -24.672  1.00  0.00    -0.307 OA
HETATM    6  C14         0      66.544  21.234 -25.216  1.00  0.00     0.107 C 
HETATM    7  C15         0      67.866  21.156 -24.804  1.00  0.00     0.049 C 
HETATM    8  C16         0      68.801  22.108 -25.193  1.00  0.00     0.093 C 
HETATM    9  C18         0      68.502  22.775 -26.375  1.00  0.00     0.048 C 
HETATM   10  C19         0      67.196  22.833 -26.841  1.00  0.00     0.096 C 
HETATM   11  C21         0      66.197  22.213 -26.141  1.00  0.00     0.084 C 
ENDROOT
BRANCH  10  12
HETATM   12  O20         0      66.838  23.831 -27.742  1.00  0.00    -0.359 OA
HETATM   13  H20         0      65.916  23.946 -27.937  1.00  0.00     0.218 HD
ENDBRANCH  10  12
BRANCH   4  14
HETATM   14  C5          0      63.419  20.395 -23.688  1.00  0.00     0.025 C 
HETATM   15  C6          0      63.871  19.882 -22.481  1.00  0.00     0.004 C 
HETATM   16  C7          0      63.191  20.257 -21.326  1.00  0.00     0.026 C 
HETATM   17  C8          0      62.022  21.007 -21.379  1.00  0.00     0.112 C 
HETATM   18  C10         0      61.333  20.923 -22.582  1.00  0.00     0.112 C 
HETATM   19  C12         0      62.051  20.630 -23.735  1.00  0.00     0.028 C 
BRANCH  17  20
HETATM   20  O9          0      61.716  21.915 -20.381  1.00  0.00    -0.357 OA
HETATM   21  H9          0      60.913  22.422 -20.356  1.00  0.00     0.218 HD
ENDBRANCH  17  20
BRANCH  18  22
HETATM   22  O11         0      60.070  21.497 -22.624  1.00  0.00    -0.357 OA
HETATM   23  H11         0      59.540  21.429 -21.838  1.00  0.00     0.218 HD
ENDBRANCH  18  22
ENDBRANCH   4  14
BRANCH   8  24
HETATM   24  O17         0      69.769  22.586 -24.303  1.00  0.00    -0.359 OA
HETATM   25  H17         0      70.009  23.505 -24.273  1.00  0.00     0.218 HD
ENDBRANCH   8  24
TORSDOF 5
ENDMDL
MODEL 2
REMARK VINA RESULT:      -0.0     10.540     12.393
REMARK  5 active torsions:
REMARK  status: ('A' for Active; 'I' for Inactive)
REMARK    1  A    between atoms: C4_4  and  C5_5 
REMARK    2  A    between atoms: C8_8  and  O9_9 
REMARK    3  A    between atoms: C10_11  and  O11_12 
REMARK    4  A    between atoms: C16_18  and  O17_19 
REMARK    5  A    between atoms: C19_22  and  O20_23 
ROOT
HETATM    1  O1          0      72.030  29.941 -29.184  1.00  0.00    -0.286 OA
HETATM    2  C2          0      71.186  29.229 -29.795  1.00  0.00     0.201 C 
HETATM    3  C3          0      71.307  27.854 -29.910  1.00  0.00     0.067 C 
HETATM    4  C4          0      70.418  27.106 -30.675  1.00  0.00     0.103 C 
HETATM    5  O13         0      69.426  27.729 -31.285  1.00  0.00    -0.307 OA
HETATM    6  C14         0      69.287  29.036 -31.239  1.00  0.00     0.107 C 
HETATM    7  C15         0      68.522  29.723 -32.170  1.00  0.00     0.049 C 
HETATM    8  C16         0      68.582  31.108 -32.273  1.00  0.00     0.093 C 
HETATM    9  C18         0      68.989  31.765 -31.118  1.00  0.00     0.048 C 
HETATM   10  C19         0      69.716  31.095 -30.144  1.00  0.00     0.096 C 
HETATM   11  C21         0      70.020  29.772 -30.314  1.00  0.00     0.084 C 
ENDROOT
BRANCH  10  12
HETATM   12  O20         0      70.476  31.828 -29.238  1.00  0.00    -0.359 OA
HETATM   13  H20         0      71.000  31.349 -28.607  1.00  0.00     0.218 HD
ENDBRANCH  10  12
BRANCH   4  14
HETATM   14  C5          0      70.913  25.849 -31.237  1.00  0.00     0.025 C 
HETATM   15  C6          0      70.396  25.288 -32.396  1.00  0.00     0.004 C 
HETATM   16  C7          0      71.289  24.676 -33.270  1.00  0.00     0.026 C 
HETATM   17  C8          0      72.630  24.506 -32.943  1.00  0.00     0.112 C 
HETATM   18  C10         0      72.899  24.509 -31.580  1.00  0.00     0.112 C 
HETATM   19  C12         0      72.036  25.201 -30.738  1.00  0.00     0.028 C 
BRANCH  17  20
HETATM   20  O9          0      73.609  24.549 -33.919  1.00  0.00    -0.357 OA
HETATM   21  H9          0      74.421  24.059 -33.875  1.00  0.00     0.218 HD
ENDBRANCH  17  20
BRANCH  18  22
HETATM   22  O11         0      74.184  24.157 -31.193  1.00  0.00    -0.357 OA
HETATM   23  H11         0      74.898  24.663 -31.562  1.00  0.00     0.218 HD
ENDBRANCH  18  22
ENDBRANCH   4  14
BRANCH   8  24
HETATM   24  O17         0      68.566  31.748 -33.517  1.00  0.00    -0.359 OA
HETATM   25  H17         0      67.755  32.033 -33.921  1.00  0.00     0.218 HD
ENDBRANCH   8  24
TORSDOF 5
ENDMDL
MODEL 3
REMARK VINA RESULT:      -0.0     11.617     15.015
REMARK  5 active torsions:
REMARK  status: ('A' for Active; 'I' for Inactive)
REMARK    1  A    between atoms: C4_4  and  C5_5 
REMARK    2  A    between atoms: C8_8  and  O9_9 
REMARK    3  A    between atoms: C10_11  and  O11_12 
REMARK    4  A    between atoms: C16_18  and  O17_19 
REMARK    5  A    between atoms: C19_22  and  O20_23 
ROOT
HETATM    1  O1          0      68.032  30.530 -34.090  1.00  0.00    -0.286 OA
HETATM    2  C2          0      67.577  29.793 -35.008  1.00  0.00     0.201 C 
HETATM    3  C3          0      67.152  30.290 -36.228  1.00  0.00     0.067 C 
HETATM    4  C4          0      66.560  29.471 -37.182  1.00  0.00     0.103 C 
HETATM    5  O13         0      66.422  28.184 -36.916  1.00  0.00    -0.307 OA
HETATM    6  C14         0      66.773  27.668 -35.759  1.00  0.00     0.107 C 
HETATM    7  C15         0      66.281  26.446 -35.324  1.00  0.00     0.049 C 
HETATM    8  C16         0      66.449  26.027 -34.010  1.00  0.00     0.093 C 
HETATM    9  C18         0      67.533  26.591 -33.348  1.00  0.00     0.048 C 
HETATM   10  C19         0      68.080  27.790 -33.785  1.00  0.00     0.096 C 
HETATM   11  C21         0      67.560  28.412 -34.886  1.00  0.00     0.084 C 
ENDROOT
BRANCH  10  12
HETATM   12  O20         0      68.841  28.552 -32.903  1.00  0.00    -0.359 OA
HETATM   13  H20         0      68.478  29.375 -32.599  1.00  0.00     0.218 HD
ENDBRANCH  10  12
BRANCH   4  14
HETATM   14  C5          0      65.629  30.100 -38.121  1.00  0.00     0.025 C 
HETATM   15  C6          0      64.595  29.407 -38.733  1.00  0.00     0.004 C 
HETATM   16  C7          0      63.384  30.072 -38.902  1.00  0.00     0.026 C 
HETATM   17  C8          0      63.245  31.422 -38.597  1.00  0.00     0.112 C 
HETATM   18  C10         0      64.430  32.145 -38.609  1.00  0.00     0.112 C 
HETATM   19  C12         0      65.618  31.470 -38.353  1.00  0.00     0.028 C 
BRANCH  17  20
HETATM   20  O9          0      62.046  31.920 -38.118  1.00  0.00    -0.357 OA
HETATM   21  H9          0      61.974  32.710 -37.594  1.00  0.00     0.218 HD
ENDBRANCH  17  20
BRANCH  18  22
HETATM   22  O11         0      64.327  33.524 -38.499  1.00  0.00    -0.357 OA
HETATM   23  H11         0      64.905  33.951 -37.877  1.00  0.00     0.218 HD
ENDBRANCH  18  22
ENDBRANCH   4  14
BRANCH   8  24
HETATM   24  O17         0      65.427  25.367 -33.319  1.00  0.00    -0.359 OA
HETATM   25  H17         0      64.995  25.762 -32.570  1.00  0.00     0.218 HD
ENDBRANCH   8  24
TORSDOF 5
ENDMDL
MODEL 4
REMARK VINA RESULT:      -0.0     11.347     13.328
REMARK  5 active torsions:
REMARK  status: ('A' for Active; 'I' for Inactive)
REMARK    1  A    between atoms: C4_4  and  C5_5 
REMARK    2  A    between atoms: C8_8  and  O9_9 
REMARK    3  A    between atoms: C10_11  and  O11_12 
REMARK    4  A    between atoms: C16_18  and  O17_19 
REMARK    5  A    between atoms: C19_22  and  O20_23 
ROOT
HETATM    1  O1          0      71.509  26.931 -29.932  1.00  0.00    -0.286 OA
HETATM    2  C2          0      72.720  27.282 -29.895  1.00  0.00     0.201 C 
HETATM    3  C3          0      73.385  27.558 -28.712  1.00  0.00     0.067 C 
HETATM    4  C4          0      74.688  28.042 -28.705  1.00  0.00     0.103 C 
HETATM    5  O13         0      75.306  28.219 -29.859  1.00  0.00    -0.307 OA
HETATM    6  C14         0      74.708  28.008 -31.012  1.00  0.00     0.107 C 
HETATM    7  C15         0      75.184  28.557 -32.194  1.00  0.00     0.049 C 
HETATM    8  C16         0      74.419  28.546 -33.354  1.00  0.00     0.093 C 
HETATM    9  C18         0      73.460  27.542 -33.415  1.00  0.00     0.048 C 
HETATM   10  C19         0      72.996  26.939 -32.255  1.00  0.00     0.096 C 
HETATM   11  C21         0      73.498  27.323 -31.041  1.00  0.00     0.084 C 
ENDROOT
BRANCH  10  12
HETATM   12  O20         0      71.770  26.280 -32.274  1.00  0.00    -0.359 OA
HETATM   13  H20         0      70.989  26.797 -32.429  1.00  0.00     0.218 HD
ENDBRANCH  10  12
BRANCH   4  14
HETATM   14  C5          0      75.096  28.853 -27.556  1.00  0.00     0.025 C 
HETATM   15  C6          0      76.093  29.814 -27.630  1.00  0.00     0.004 C 
HETATM   16  C7          0      75.908  30.991 -26.912  1.00  0.00     0.026 C 
HETATM   17  C8          0      74.834  31.155 -26.044  1.00  0.00     0.112 C 
HETATM   18  C10         0      74.287  29.971 -25.569  1.00  0.00     0.112 C 
HETATM   19  C12         0      74.413  28.826 -26.347  1.00  0.00     0.028 C 
BRANCH  17  20
HETATM   20  O9          0      74.253  32.398 -25.862  1.00  0.00    -0.357 OA
HETATM   21  H9          0      74.536  33.022 -25.204  1.00  0.00     0.218 HD
ENDBRANCH  17  20
BRANCH  18  22
HETATM   22  O11         0      73.341  30.077 -24.559  1.00  0.00    -0.357 OA
HETATM   23  H11         0      72.748  29.343 -24.447  1.00  0.00     0.218 HD
ENDBRANCH  18  22
ENDBRANCH   4  14
BRANCH   8  24
HETATM   24  O17         0      74.389  29.646 -34.218  1.00  0.00    -0.359 OA
HETATM   25  H17         0      74.590  29.561 -35.142  1.00  0.00     0.218 HD
ENDBRANCH   8  24
TORSDOF 5
ENDMDL
MODEL 5
REMARK VINA RESULT:      -0.0      5.953      8.275
REMARK  5 active torsions:
REMARK  status: ('A' for Active; 'I' for Inactive)
REMARK    1  A    between atoms: C4_4  and  C5_5 
REMARK    2  A    between atoms: C8_8  and  O9_9 
REMARK    3  A    between atoms: C10_11  and  O11_12 
REMARK    4  A    between atoms: C16_18  and  O17_19 
REMARK    5  A    between atoms: C19_22  and  O20_23 
ROOT
HETATM    1  O1          0      71.825  27.828 -26.241  1.00  0.00    -0.286 OA
HETATM    2  C2          0      70.964  27.704 -25.327  1.00  0.00     0.201 C 
HETATM    3  C3          0      69.969  26.742 -25.360  1.00  0.00     0.067 C 
HETATM    4  C4          0      68.972  26.692 -24.392  1.00  0.00     0.103 C 
HETATM    5  O13         0      68.996  27.576 -23.410  1.00  0.00    -0.307 OA
HETATM    6  C14         0      69.896  28.533 -23.352  1.00  0.00     0.107 C 
HETATM    7  C15         0      69.704  29.673 -22.586  1.00  0.00     0.049 C 
HETATM    8  C16         0      70.527  30.784 -22.724  1.00  0.00     0.093 C 
HETATM    9  C18         0      71.795  30.516 -23.226  1.00  0.00     0.048 C 
HETATM   10  C19         0      72.034  29.360 -23.958  1.00  0.00     0.096 C 
HETATM   11  C21         0      71.017  28.470 -24.173  1.00  0.00     0.084 C 
ENDROOT
BRANCH  10  12
HETATM   12  O20         0      73.137  29.307 -24.804  1.00  0.00    -0.359 OA
HETATM   13  H20         0      73.652  28.509 -24.815  1.00  0.00     0.218 HD
ENDBRANCH  10  12
BRANCH   4  14
HETATM   14  C5          0      67.688  26.107 -24.782  1.00  0.00     0.025 C 
HETATM   15  C6          0      66.489  26.452 -24.176  1.00  0.00     0.004 C 
HETATM   16  C7          0      65.363  26.553 -24.986  1.00  0.00     0.026 C 
HETATM   17  C8          0      65.395  26.192 -26.329  1.00  0.00     0.112 C 
HETATM   18  C10         0      66.402  25.296 -26.664  1.00  0.00     0.112 C 
HETATM   19  C12         0      67.554  25.276 -25.887  1.00  0.00     0.028 C 
BRANCH  17  20
HETATM   20  O9          0      64.614  26.853 -27.260  1.00  0.00    -0.357 OA
HETATM   21  H9          0      64.108  27.633 -27.066  1.00  0.00     0.218 HD
ENDBRANCH  17  20
BRANCH  18  22
HETATM   22  O11         0      66.365  24.758 -27.942  1.00  0.00    -0.357 OA
HETATM   23  H11         0      65.722  25.120 -28.542  1.00  0.00     0.218 HD
ENDBRANCH  18  22
ENDBRANCH   4  14
BRANCH   8  24
HETATM   24  O17         0      70.011  32.084 -22.687  1.00  0.00    -0.359 OA
HETATM   25  H17         0      70.008  32.597 -21.887  1.00  0.00     0.218 HD
ENDBRANCH   8  24
TORSDOF 5
ENDMDL
MODEL 6
REMARK VINA RESULT:      -0.0     16.282     17.460
REMARK  5 active torsions:
REMARK  status: ('A' for Active; 'I' for Inactive)
REMARK    1  A    between atoms: C4_4  and  C5_5 
REMARK    2  A    between atoms: C8_8  and  O9_9 
REMARK    3  A    between atoms: C10_11  and  O11_12 
REMARK    4  A    between atoms: C16_18  and  O17_19 
REMARK    5  A    between atoms: C19_22  and  O20_23 
ROOT
HETATM    1  O1          0      72.390  31.642 -35.237  1.00  0.00    -0.286 OA
HETATM    2  C2          0      73.294  30.923 -34.729  1.00  0.00     0.201 C 
HETATM    3  C3          0      73.868  31.197 -33.500  1.00  0.00     0.067 C 
HETATM    4  C4          0      74.933  30.449 -33.010  1.00  0.00     0.103 C 
HETATM    5  O13         0      75.387  29.442 -33.734  1.00  0.00    -0.307 OA
HETATM    6  C14         0      74.903  29.162 -34.924  1.00  0.00     0.107 C 
HETATM    7  C15         0      75.610  28.396 -35.840  1.00  0.00     0.049 C 
HETATM    8  C16         0      75.218  28.317 -37.171  1.00  0.00     0.093 C 
HETATM    9  C18         0      73.871  28.570 -37.401  1.00  0.00     0.048 C 
HETATM   10  C19         0      73.121  29.293 -36.483  1.00  0.00     0.096 C 
HETATM   11  C21         0      73.709  29.747 -35.334  1.00  0.00     0.084 C 
ENDROOT
BRANCH  10  12
HETATM   12  O20         0      71.943  29.905 -36.899  1.00  0.00    -0.359 OA
HETATM   13  H20         0      71.158  29.374 -36.946  1.00  0.00     0.218 HD
ENDBRANCH  10  12
BRANCH   4  14
HETATM   14  C5          0      75.844  31.113 -32.075  1.00  0.00     0.025 C 
HETATM   15  C6          0      77.172  30.740 -31.928  1.00  0.00     0.004 C 
HETATM   16  C7          0      78.107  31.752 -31.735  1.00  0.00     0.026 C 
HETATM   17  C8          0      77.723  33.077 -31.560  1.00  0.00     0.112 C 
HETATM   18  C10         0      76.425  33.248 -31.097  1.00  0.00     0.112 C 
HETATM   19  C12         0      75.489  32.260 -31.377  1.00  0.00     0.028 C 
BRANCH  17  20
HETATM   20  O9          0      78.516  34.113 -32.021  1.00  0.00    -0.357 OA
HETATM   21  H9          0      79.225  33.998 -32.644  1.00  0.00     0.218 HD
ENDBRANCH  17  20
BRANCH  18  22
HETATM   22  O11         0      76.054  34.532 -30.726  1.00  0.00    -0.357 OA
HETATM   23  H11         0      76.705  35.216 -30.834  1.00  0.00     0.218 HD
ENDBRANCH  18  22
ENDBRANCH   4  14
BRANCH   8  24
HETATM   24  O17         0      76.155  28.321 -38.209  1.00  0.00    -0.359 OA
HETATM   25  H17         0      76.841  27.667 -38.265  1.00  0.00     0.218 HD
ENDBRANCH   8  24
TORSDOF 5
ENDMDL
MODEL 7
REMARK VINA RESULT:      -0.0     14.563     15.803
REMARK  5 active torsions:
REMARK  status: ('A' for Active; 'I' for Inactive)
REMARK    1  A    between atoms: C4_4  and  C5_5 
REMARK    2  A    between atoms: C8_8  and  O9_9 
REMARK    3  A    between atoms: C10_11  and  O11_12 
REMARK    4  A    between atoms: C16_18  and  O17_19 
REMARK    5  A    between atoms: C19_22  and  O20_23 
ROOT
HETATM    1  O1          0      71.533  31.797 -32.802  1.00  0.00    -0.286 OA
HETATM    2  C2          0      72.437  31.078 -32.294  1.00  0.00     0.201 C 
HETATM    3  C3          0      73.011  31.352 -31.064  1.00  0.00     0.067 C 
HETATM    4  C4          0      74.075  30.604 -30.575  1.00  0.00     0.103 C 
HETATM    5  O13         0      74.530  29.597 -31.299  1.00  0.00    -0.307 OA
HETATM    6  C14         0      74.046  29.317 -32.489  1.00  0.00     0.107 C 
HETATM    7  C15         0      74.753  28.551 -33.405  1.00  0.00     0.049 C 
HETATM    8  C16         0      74.360  28.472 -34.736  1.00  0.00     0.093 C 
HETATM    9  C18         0      73.013  28.725 -34.966  1.00  0.00     0.048 C 
HETATM   10  C19         0      72.264  29.448 -34.048  1.00  0.00     0.096 C 
HETATM   11  C21         0      72.852  29.902 -32.899  1.00  0.00     0.084 C 
ENDROOT
BRANCH  10  12
HETATM   12  O20         0      71.086  30.061 -34.464  1.00  0.00    -0.359 OA
HETATM   13  H20         0      70.300  29.529 -34.511  1.00  0.00     0.218 HD
ENDBRANCH  10  12
BRANCH   4  14
HETATM   14  C5          0      74.986  31.268 -29.640  1.00  0.00     0.025 C 
HETATM   15  C6          0      76.315  30.896 -29.493  1.00  0.00     0.004 C 
HETATM   16  C7          0      77.250  31.907 -29.300  1.00  0.00     0.026 C 
HETATM   17  C8          0      76.865  33.232 -29.125  1.00  0.00     0.112 C 
HETATM   18  C10         0      75.568  33.403 -28.662  1.00  0.00     0.112 C 
HETATM   19  C12         0      74.631  32.415 -28.942  1.00  0.00     0.028 C 
BRANCH  17  20
HETATM   20  O9          0      77.659  34.268 -29.586  1.00  0.00    -0.357 OA
HETATM   21  H9          0      78.368  34.153 -30.209  1.00  0.00     0.218 HD
ENDBRANCH  17  20
BRANCH  18  22
HETATM   22  O11         0      75.196  34.687 -28.291  1.00  0.00    -0.357 OA
HETATM   23  H11         0      75.847  35.371 -28.399  1.00  0.00     0.218 HD
ENDBRANCH  18  22
ENDBRANCH   4  14
BRANCH   8  24
HETATM   24  O17         0      75.298  28.477 -35.774  1.00  0.00    -0.359 OA
HETATM   25  H17         0      75.984  27.822 -35.830  1.00  0.00     0.218 HD
ENDBRANCH   8  24
TORSDOF 5
ENDMDL
MODEL 8
REMARK VINA RESULT:      -0.0      3.442      4.393
REMARK  5 active torsions:
REMARK  status: ('A' for Active; 'I' for Inactive)
REMARK    1  A    between atoms: C4_4  and  C5_5 
REMARK    2  A    between atoms: C8_8  and  O9_9 
REMARK    3  A    between atoms: C10_11  and  O11_12 
REMARK    4  A    between atoms: C16_18  and  O17_19 
REMARK    5  A    between atoms: C19_22  and  O20_23 
ROOT
HETATM    1  O1          0      68.279  25.992 -28.377  1.00  0.00    -0.286 OA
HETATM    2  C2          0      67.820  25.114 -27.596  1.00  0.00     0.201 C 
HETATM    3  C3          0      66.472  24.810 -27.517  1.00  0.00     0.067 C 
HETATM    4  C4          0      65.981  23.912 -26.577  1.00  0.00     0.103 C 
HETATM    5  O13         0      66.833  23.323 -25.756  1.00  0.00    -0.307 OA
HETATM    6  C14         0      68.118  23.604 -25.763  1.00  0.00     0.107 C 
HETATM    7  C15         0      68.935  23.314 -24.680  1.00  0.00     0.049 C 
HETATM    8  C16         0      70.220  23.835 -24.587  1.00  0.00     0.093 C 
HETATM    9  C18         0      70.805  24.177 -25.800  1.00  0.00     0.048 C 
HETATM   10  C19         0      70.018  24.428 -26.916  1.00  0.00     0.096 C 
HETATM   11  C21         0      68.657  24.321 -26.825  1.00  0.00     0.084 C 
ENDROOT
BRANCH  10  12
HETATM   12  O20         0      70.545  25.173 -27.966  1.00  0.00    -0.359 OA
HETATM   13  H20         0      71.413  25.543 -27.858  1.00  0.00     0.218 HD
ENDBRANCH  10  12
BRANCH   4  14
HETATM   14  C5          0      64.592  24.085 -26.146  1.00  0.00     0.025 C 
HETATM   15  C6          0      64.133  23.672 -24.903  1.00  0.00     0.004 C 
HETATM   16  C7          0      63.209  24.485 -24.255  1.00  0.00     0.026 C 
HETATM   17  C8          0      62.656  25.600 -24.876  1.00  0.00     0.112 C 
HETATM   18  C10         0      62.680  25.562 -26.264  1.00  0.00     0.112 C 
HETATM   19  C12         0      63.668  24.809 -26.887  1.00  0.00     0.028 C 
BRANCH  17  20
HETATM   20  O9          0      62.318  26.725 -24.144  1.00  0.00    -0.357 OA
HETATM   21  H9          0      62.385  26.778 -23.198  1.00  0.00     0.218 HD
ENDBRANCH  17  20
BRANCH  18  22
HETATM   22  O11         0      61.976  26.554 -26.932  1.00  0.00    -0.357 OA
HETATM   23  H11         0      61.452  27.142 -26.400  1.00  0.00     0.218 HD
ENDBRANCH  18  22
ENDBRANCH   4  14
BRANCH   8  24
HETATM   24  O17         0      70.736  24.288 -23.367  1.00  0.00    -0.359 OA
HETATM   25  H17         0      70.570  23.828 -22.553  1.00  0.00     0.218 HD
ENDBRANCH   8  24
TORSDOF 5
ENDMDL
MODEL 9
REMARK VINA RESULT:      -0.0      8.689      9.809
REMARK  5 active torsions:
REMARK  status: ('A' for Active; 'I' for Inactive)
REMARK    1  A    between atoms: C4_4  and  C5_5 
REMARK    2  A    between atoms: C8_8  and  O9_9 
REMARK    3  A    between atoms: C10_11  and  O11_12 
REMARK    4  A    between atoms: C16_18  and  O17_19 
REMARK    5  A    between atoms: C19_22  and  O20_23 
ROOT
HETATM    1  O1          0      69.753  27.206 -31.552  1.00  0.00    -0.286 OA
HETATM    2  C2          0      68.926  27.511 -30.649  1.00  0.00     0.201 C 
HETATM    3  C3          0      67.628  27.031 -30.627  1.00  0.00     0.067 C 
HETATM    4  C4          0      66.707  27.464 -29.679  1.00  0.00     0.103 C 
HETATM    5  O13         0      67.097  28.339 -28.769  1.00  0.00    -0.307 OA
HETATM    6  C14         0      68.306  28.854 -28.768  1.00  0.00     0.107 C 
HETATM    7  C15         0      68.598  30.033 -28.096  1.00  0.00     0.049 C 
HETATM    8  C16         0      69.797  30.704 -28.304  1.00  0.00     0.093 C 
HETATM    9  C18         0      70.844  29.910 -28.756  1.00  0.00     0.048 C 
HETATM   10  C19         0      70.589  28.701 -29.391  1.00  0.00     0.096 C 
HETATM   11  C21         0      69.297  28.281 -29.557  1.00  0.00     0.084 C 
ENDROOT
BRANCH  10  12
HETATM   12  O20         0      71.567  28.142 -30.207  1.00  0.00    -0.359 OA
HETATM   13  H20         0      72.476  28.313 -29.993  1.00  0.00     0.218 HD
ENDBRANCH  10  12
BRANCH   4  14
HETATM   14  C5          0      65.291  27.415 -30.049  1.00  0.00     0.025 C 
HETATM   15  C6          0      64.340  28.260 -29.498  1.00  0.00     0.004 C 
HETATM   16  C7          0      63.339  28.739 -30.337  1.00  0.00     0.026 C 
HETATM   17  C8          0      63.208  28.290 -31.646  1.00  0.00     0.112 C 
HETATM   18  C10         0      63.765  27.041 -31.889  1.00  0.00     0.112 C 
HETATM   19  C12         0      64.821  26.622 -31.089  1.00  0.00     0.028 C 
BRANCH  17  20
HETATM   20  O9          0      62.747  29.132 -32.642  1.00  0.00    -0.357 OA
HETATM   21  H9          0      62.056  29.772 -32.515  1.00  0.00     0.218 HD
ENDBRANCH  17  20
BRANCH  18  22
HETATM   22  O11         0      63.499  26.464 -33.122  1.00  0.00    -0.357 OA
HETATM   23  H11         0      64.247  26.170 -33.630  1.00  0.00     0.218 HD
ENDBRANCH  18  22
ENDBRANCH   4  14
BRANCH   8  24
HETATM   24  O17         0      69.848  32.100 -28.379  1.00  0.00    -0.359 OA
HETATM   25  H17         0      70.108  32.631 -27.635  1.00  0.00     0.218 HD
ENDBRANCH   8  24
TORSDOF 5
ENDMDL
