MODEL 1
REMARK VINA RESULT:      -1.4      0.000      0.000
REMARK  5 active torsions:
REMARK  status: ('A' for Active; 'I' for Inactive)
REMARK    1  A    between atoms: C4_4  and  C5_5 
REMARK    2  A    between atoms: C8_8  and  O9_9 
REMARK    3  A    between atoms: C10_11  and  O11_12 
REMARK    4  A    between atoms: C16_18  and  O17_19 
REMARK    5  A    between atoms: C19_22  and  O20_23 
ROOT
HETATM    1  O1          0       7.291  65.201  20.890  1.00  0.00    -0.286 OA
HETATM    2  C2          0       7.678  66.343  20.518  1.00  0.00     0.201 C 
HETATM    3  C3          0       9.014  66.703  20.467  1.00  0.00     0.067 C 
HETATM    4  C4          0       9.408  67.998  20.153  1.00  0.00     0.103 C 
HETATM    5  O13         0       8.477  68.896  19.878  1.00  0.00    -0.307 OA
HETATM    6  C14         0       7.194  68.616  19.949  1.00  0.00     0.107 C 
HETATM    7  C15         0       6.234  69.612  20.059  1.00  0.00     0.049 C 
HETATM    8  C16         0       4.918  69.312  20.388  1.00  0.00     0.093 C 
HETATM    9  C18         0       4.515  68.019  20.076  1.00  0.00     0.048 C 
HETATM   10  C19         0       5.453  67.008  19.912  1.00  0.00     0.096 C 
HETATM   11  C21         0       6.785  67.290  20.042  1.00  0.00     0.084 C 
ENDROOT
BRANCH  10  12
HETATM   12  O20         0       5.051  65.682  20.037  1.00  0.00    -0.359 OA
HETATM   13  H20         0       5.724  65.012  20.040  1.00  0.00     0.218 HD
ENDBRANCH  10  12
BRANCH   4  14
HETATM   14  C5          0      10.692  68.456  20.685  1.00  0.00     0.025 C 
HETATM   15  C6          0      10.809  69.133  21.891  1.00  0.00     0.004 C 
HETATM   16  C7          0      11.907  68.838  22.692  1.00  0.00     0.026 C 
HETATM   17  C8          0      12.927  68.001  22.253  1.00  0.00     0.112 C 
HETATM   18  C10         0      13.040  67.899  20.872  1.00  0.00     0.112 C 
HETATM   19  C12         0      11.905  68.115  20.100  1.00  0.00     0.028 C 
BRANCH  17  20
HETATM   20  O9          0      13.610  67.189  23.141  1.00  0.00    -0.357 OA
HETATM   21  H9          0      13.242  66.874  23.958  1.00  0.00     0.218 HD
ENDBRANCH  17  20
BRANCH  18  22
HETATM   22  O11         0      14.152  67.231  20.380  1.00  0.00    -0.357 OA
HETATM   23  H11         0      15.003  67.599  20.591  1.00  0.00     0.218 HD
ENDBRANCH  18  22
ENDBRANCH   4  14
BRANCH   8  24
HETATM   24  O17         0       4.181  70.122  21.258  1.00  0.00    -0.359 OA
HETATM   25  H17         0       4.589  70.819  21.757  1.00  0.00     0.218 HD
ENDBRANCH   8  24
TORSDOF 5
ENDMDL
MODEL 2
REMARK VINA RESULT:      -1.4      2.112      6.706
REMARK  5 active torsions:
REMARK  status: ('A' for Active; 'I' for Inactive)
REMARK    1  A    between atoms: C4_4  and  C5_5 
REMARK    2  A    between atoms: C8_8  and  O9_9 
REMARK    3  A    between atoms: C10_11  and  O11_12 
REMARK    4  A    between atoms: C16_18  and  O17_19 
REMARK    5  A    between atoms: C19_22  and  O20_23 
ROOT
HETATM    1  O1          0      10.584  68.936  21.616  1.00  0.00    -0.286 OA
HETATM    2  C2          0       9.506  68.479  21.145  1.00  0.00     0.201 C 
HETATM    3  C3          0       8.393  69.269  20.916  1.00  0.00     0.067 C 
HETATM    4  C4          0       7.186  68.722  20.494  1.00  0.00     0.103 C 
HETATM    5  O13         0       7.116  67.419  20.291  1.00  0.00    -0.307 OA
HETATM    6  C14         0       8.132  66.619  20.529  1.00  0.00     0.107 C 
HETATM    7  C15         0       7.962  65.253  20.706  1.00  0.00     0.049 C 
HETATM    8  C16         0       8.985  64.457  21.206  1.00  0.00     0.093 C 
HETATM    9  C18         0      10.267  64.956  21.007  1.00  0.00     0.048 C 
HETATM   10  C19         0      10.470  66.310  20.781  1.00  0.00     0.096 C 
HETATM   11  C21         0       9.397  67.159  20.736  1.00  0.00     0.084 C 
ENDROOT
BRANCH  10  12
HETATM   12  O20         0      11.726  66.859  21.017  1.00  0.00    -0.359 OA
HETATM   13  H20         0      12.438  66.267  21.230  1.00  0.00     0.218 HD
ENDBRANCH  10  12
BRANCH   4  14
HETATM   14  C5          0       5.963  69.447  20.845  1.00  0.00     0.025 C 
HETATM   15  C6          0       5.196  70.125  19.909  1.00  0.00     0.004 C 
HETATM   16  C7          0       3.813  70.074  20.051  1.00  0.00     0.026 C 
HETATM   17  C8          0       3.215  69.484  21.159  1.00  0.00     0.112 C 
HETATM   18  C10         0       4.021  69.420  22.288  1.00  0.00     0.112 C 
HETATM   19  C12         0       5.400  69.386  22.113  1.00  0.00     0.028 C 
BRANCH  17  20
HETATM   20  O9          0       1.997  68.836  21.047  1.00  0.00    -0.357 OA
HETATM   21  H9          0       1.905  67.925  20.794  1.00  0.00     0.218 HD
ENDBRANCH  17  20
BRANCH  18  22
HETATM   22  O11         0       3.417  69.016  23.470  1.00  0.00    -0.357 OA
HETATM   23  H11         0       2.503  68.761  23.420  1.00  0.00     0.218 HD
ENDBRANCH  18  22
ENDBRANCH   4  14
BRANCH   8  24
HETATM   24  O17         0       8.729  63.428  22.119  1.00  0.00    -0.359 OA
HETATM   25  H17         0       8.650  63.595  23.050  1.00  0.00     0.218 HD
ENDBRANCH   8  24
TORSDOF 5
ENDMDL
MODEL 3
REMARK VINA RESULT:      -1.2      2.337      6.819
REMARK  5 active torsions:
REMARK  status: ('A' for Active; 'I' for Inactive)
REMARK    1  A    between atoms: C4_4  and  C5_5 
REMARK    2  A    between atoms: C8_8  and  O9_9 
REMARK    3  A    between atoms: C10_11  and  O11_12 
REMARK    4  A    between atoms: C16_18  and  O17_19 
REMARK    5  A    between atoms: C19_22  and  O20_23 
ROOT
HETATM    1  O1          0       8.923  67.574  25.002  1.00  0.00    -0.286 OA
HETATM    2  C2          0       8.891  68.115  23.862  1.00  0.00     0.201 C 
HETATM    3  C3          0       7.898  69.001  23.480  1.00  0.00     0.067 C 
HETATM    4  C4          0       7.829  69.503  22.185  1.00  0.00     0.103 C 
HETATM    5  O13         0       8.751  69.136  21.312  1.00  0.00    -0.307 OA
HETATM    6  C14         0       9.693  68.269  21.613  1.00  0.00     0.107 C 
HETATM    7  C15         0      10.397  67.586  20.632  1.00  0.00     0.049 C 
HETATM    8  C16         0      11.202  66.498  20.947  1.00  0.00     0.093 C 
HETATM    9  C18         0      11.673  66.475  22.255  1.00  0.00     0.048 C 
HETATM   10  C19         0      11.019  67.186  23.252  1.00  0.00     0.096 C 
HETATM   11  C21         0       9.912  67.928  22.943  1.00  0.00     0.084 C 
ENDROOT
BRANCH  10  12
HETATM   12  O20         0      11.213  66.826  24.582  1.00  0.00    -0.359 OA
HETATM   13  H20         0      11.647  66.000  24.761  1.00  0.00     0.218 HD
ENDBRANCH  10  12
BRANCH   4  14
HETATM   14  C5          0       6.511  69.904  21.692  1.00  0.00     0.025 C 
HETATM   15  C6          0       6.194  69.949  20.342  1.00  0.00     0.004 C 
HETATM   16  C7          0       4.919  69.540  19.965  1.00  0.00     0.026 C 
HETATM   17  C8          0       3.946  69.225  20.907  1.00  0.00     0.112 C 
HETATM   18  C10         0       4.138  69.804  22.154  1.00  0.00     0.112 C 
HETATM   19  C12         0       5.434  70.125  22.541  1.00  0.00     0.028 C 
BRANCH  17  20
HETATM   20  O9          0       3.001  68.247  20.651  1.00  0.00    -0.357 OA
HETATM   21  H9          0       2.063  68.397  20.685  1.00  0.00     0.218 HD
ENDBRANCH  17  20
BRANCH  18  22
HETATM   22  O11         0       3.104  69.679  23.071  1.00  0.00    -0.357 OA
HETATM   23  H11         0       2.469  68.989  22.912  1.00  0.00     0.218 HD
ENDBRANCH  18  22
ENDBRANCH   4  14
BRANCH   8  24
HETATM   24  O17         0      11.249  65.364  20.129  1.00  0.00    -0.359 OA
HETATM   25  H17         0      10.527  64.748  20.088  1.00  0.00     0.218 HD
ENDBRANCH   8  24
TORSDOF 5
ENDMDL
MODEL 4
REMARK VINA RESULT:      -1.2      2.242      3.191
REMARK  5 active torsions:
REMARK  status: ('A' for Active; 'I' for Inactive)
REMARK    1  A    between atoms: C4_4  and  C5_5 
REMARK    2  A    between atoms: C8_8  and  O9_9 
REMARK    3  A    between atoms: C10_11  and  O11_12 
REMARK    4  A    between atoms: C16_18  and  O17_19 
REMARK    5  A    between atoms: C19_22  and  O20_23 
ROOT
HETATM    1  O1          0       7.301  62.725  22.269  1.00  0.00    -0.286 OA
HETATM    2  C2          0       7.517  63.752  21.570  1.00  0.00     0.201 C 
HETATM    3  C3          0       8.746  64.389  21.533  1.00  0.00     0.067 C 
HETATM    4  C4          0       8.929  65.578  20.836  1.00  0.00     0.103 C 
HETATM    5  O13         0       7.905  66.094  20.180  1.00  0.00    -0.307 OA
HETATM    6  C14         0       6.708  65.550  20.213  1.00  0.00     0.107 C 
HETATM    7  C15         0       5.569  66.268  19.880  1.00  0.00     0.049 C 
HETATM    8  C16         0       4.299  65.777  20.158  1.00  0.00     0.093 C 
HETATM    9  C18         0       4.215  64.395  20.268  1.00  0.00     0.048 C 
HETATM   10  C19         0       5.345  63.640  20.554  1.00  0.00     0.096 C 
HETATM   11  C21         0       6.554  64.261  20.713  1.00  0.00     0.084 C 
ENDROOT
BRANCH  10  12
HETATM   12  O20         0       5.194  62.363  21.084  1.00  0.00    -0.359 OA
HETATM   13  H20         0       4.315  62.010  21.151  1.00  0.00     0.218 HD
ENDBRANCH  10  12
BRANCH   4  14
HETATM   14  C5          0       9.988  66.474  21.306  1.00  0.00     0.025 C 
HETATM   15  C6          0      11.337  66.186  21.158  1.00  0.00     0.004 C 
HETATM   16  C7          0      12.191  67.240  20.850  1.00  0.00     0.026 C 
HETATM   17  C8          0      11.745  68.556  20.822  1.00  0.00     0.112 C 
HETATM   18  C10         0      10.604  68.798  21.577  1.00  0.00     0.112 C 
HETATM   19  C12         0       9.724  67.745  21.798  1.00  0.00     0.028 C 
BRANCH  17  20
HETATM   20  O9          0      12.289  69.471  19.938  1.00  0.00    -0.357 OA
HETATM   21  H9          0      12.157  70.410  20.002  1.00  0.00     0.218 HD
ENDBRANCH  17  20
BRANCH  18  22
HETATM   22  O11         0      10.226  70.123  21.737  1.00  0.00    -0.357 OA
HETATM   23  H11         0      10.644  70.761  21.171  1.00  0.00     0.218 HD
ENDBRANCH  18  22
ENDBRANCH   4  14
BRANCH   8  24
HETATM   24  O17         0       3.278  66.615  20.621  1.00  0.00    -0.359 OA
HETATM   25  H17         0       3.192  66.835  21.541  1.00  0.00     0.218 HD
ENDBRANCH   8  24
TORSDOF 5
ENDMDL
MODEL 5
REMARK VINA RESULT:      -1.1      2.337      7.260
REMARK  5 active torsions:
REMARK  status: ('A' for Active; 'I' for Inactive)
REMARK    1  A    between atoms: C4_4  and  C5_5 
REMARK    2  A    between atoms: C8_8  and  O9_9 
REMARK    3  A    between atoms: C10_11  and  O11_12 
REMARK    4  A    between atoms: C16_18  and  O17_19 
REMARK    5  A    between atoms: C19_22  and  O20_23 
ROOT
HETATM    1  O1          0       8.076  69.767  22.605  1.00  0.00    -0.286 OA
HETATM    2  C2          0       7.718  68.918  21.743  1.00  0.00     0.201 C 
HETATM    3  C3          0       6.390  68.610  21.501  1.00  0.00     0.067 C 
HETATM    4  C4          0       6.027  67.598  20.619  1.00  0.00     0.103 C 
HETATM    5  O13         0       6.979  66.934  19.988  1.00  0.00    -0.307 OA
HETATM    6  C14         0       8.255  67.161  20.209  1.00  0.00     0.107 C 
HETATM    7  C15         0       9.232  66.234  19.876  1.00  0.00     0.049 C 
HETATM    8  C16         0      10.536  66.362  20.337  1.00  0.00     0.093 C 
HETATM    9  C18         0      10.920  67.658  20.660  1.00  0.00     0.048 C 
HETATM   10  C19         0       9.966  68.624  20.954  1.00  0.00     0.096 C 
HETATM   11  C21         0       8.637  68.301  20.908  1.00  0.00     0.084 C 
ENDROOT
BRANCH  10  12
HETATM   12  O20         0      10.340  69.750  21.681  1.00  0.00    -0.359 OA
HETATM   13  H20         0      10.479  70.560  21.206  1.00  0.00     0.218 HD
ENDBRANCH  10  12
BRANCH   4  14
HETATM   14  C5          0       4.742  66.936  20.853  1.00  0.00     0.025 C 
HETATM   15  C6          0       4.492  66.151  21.969  1.00  0.00     0.004 C 
HETATM   16  C7          0       3.229  66.233  22.545  1.00  0.00     0.026 C 
HETATM   17  C8          0       2.205  66.967  21.956  1.00  0.00     0.112 C 
HETATM   18  C10         0       2.348  67.168  20.590  1.00  0.00     0.112 C 
HETATM   19  C12         0       3.630  67.166  20.053  1.00  0.00     0.028 C 
BRANCH  17  20
HETATM   20  O9          0       1.254  67.606  22.731  1.00  0.00    -0.357 OA
HETATM   21  H9          0       1.464  68.230  23.416  1.00  0.00     0.218 HD
ENDBRANCH  17  20
BRANCH  18  22
HETATM   22  O11         0       1.269  67.727  19.920  1.00  0.00    -0.357 OA
HETATM   23  H11         0       0.479  67.202  19.864  1.00  0.00     0.218 HD
ENDBRANCH  18  22
ENDBRANCH   4  14
BRANCH   8  24
HETATM   24  O17         0      11.273  65.250  20.758  1.00  0.00    -0.359 OA
HETATM   25  H17         0      10.935  64.644  21.407  1.00  0.00     0.218 HD
ENDBRANCH   8  24
TORSDOF 5
ENDMDL
MODEL 6
REMARK VINA RESULT:      -1.1      2.360      6.581
REMARK  5 active torsions:
REMARK  status: ('A' for Active; 'I' for Inactive)
REMARK    1  A    between atoms: C4_4  and  C5_5 
REMARK    2  A    between atoms: C8_8  and  O9_9 
REMARK    3  A    between atoms: C10_11  and  O11_12 
REMARK    4  A    between atoms: C16_18  and  O17_19 
REMARK    5  A    between atoms: C19_22  and  O20_23 
ROOT
HETATM    1  O1          0      11.806  69.469  23.235  1.00  0.00    -0.286 OA
HETATM    2  C2          0      10.895  69.266  22.386  1.00  0.00     0.201 C 
HETATM    3  C3          0       9.664  69.898  22.440  1.00  0.00     0.067 C 
HETATM    4  C4          0       8.642  69.580  21.553  1.00  0.00     0.103 C 
HETATM    5  O13         0       8.867  68.665  20.627  1.00  0.00    -0.307 OA
HETATM    6  C14         0      10.004  68.008  20.555  1.00  0.00     0.107 C 
HETATM    7  C15         0      10.110  66.804  19.875  1.00  0.00     0.049 C 
HETATM    8  C16         0      11.231  65.993  20.013  1.00  0.00     0.093 C 
HETATM    9  C18         0      12.391  66.656  20.396  1.00  0.00     0.048 C 
HETATM   10  C19         0      12.322  67.886  21.037  1.00  0.00     0.096 C 
HETATM   11  C21         0      11.103  68.458  21.279  1.00  0.00     0.084 C 
ENDROOT
BRANCH  10  12
HETATM   12  O20         0      13.409  68.323  21.788  1.00  0.00    -0.359 OA
HETATM   13  H20         0      13.294  69.095  22.329  1.00  0.00     0.218 HD
ENDBRANCH  10  12
BRANCH   4  14
HETATM   14  C5          0       7.268  69.799  22.009  1.00  0.00     0.025 C 
HETATM   15  C6          0       6.163  69.578  21.200  1.00  0.00     0.004 C 
HETATM   16  C7          0       5.031  69.025  21.790  1.00  0.00     0.026 C 
HETATM   17  C8          0       4.950  68.823  23.164  1.00  0.00     0.112 C 
HETATM   18  C10         0       5.792  69.628  23.919  1.00  0.00     0.112 C 
HETATM   19  C12         0       6.960  70.098  23.330  1.00  0.00     0.028 C 
BRANCH  17  20
HETATM   20  O9          0       4.240  67.755  23.682  1.00  0.00    -0.357 OA
HETATM   21  H9          0       3.386  67.485  23.365  1.00  0.00     0.218 HD
ENDBRANCH  17  20
BRANCH  18  22
HETATM   22  O11         0       5.618  69.603  25.295  1.00  0.00    -0.357 OA
HETATM   23  H11         0       6.266  70.061  25.819  1.00  0.00     0.218 HD
ENDBRANCH  18  22
ENDBRANCH   4  14
BRANCH   8  24
HETATM   24  O17         0      11.118  64.601  20.094  1.00  0.00    -0.359 OA
HETATM   25  H17         0      11.212  64.140  20.919  1.00  0.00     0.218 HD
ENDBRANCH   8  24
TORSDOF 5
ENDMDL
MODEL 7
REMARK VINA RESULT:      -1.1      4.016      6.285
REMARK  5 active torsions:
REMARK  status: ('A' for Active; 'I' for Inactive)
REMARK    1  A    between atoms: C4_4  and  C5_5 
REMARK    2  A    between atoms: C8_8  and  O9_9 
REMARK    3  A    between atoms: C10_11  and  O11_12 
REMARK    4  A    between atoms: C16_18  and  O17_19 
REMARK    5  A    between atoms: C19_22  and  O20_23 
ROOT
HETATM    1  O1          0      12.685  65.531  25.480  1.00  0.00    -0.286 OA
HETATM    2  C2          0      11.810  65.139  24.660  1.00  0.00     0.201 C 
HETATM    3  C3          0      11.865  65.429  23.308  1.00  0.00     0.067 C 
HETATM    4  C4          0      10.835  65.073  22.444  1.00  0.00     0.103 C 
HETATM    5  O13         0       9.792  64.425  22.933  1.00  0.00    -0.307 OA
HETATM    6  C14         0       9.673  64.158  24.215  1.00  0.00     0.107 C 
HETATM    7  C15         0       8.446  63.853  24.787  1.00  0.00     0.049 C 
HETATM    8  C16         0       8.281  63.824  26.166  1.00  0.00     0.093 C 
HETATM    9  C18         0       9.441  63.583  26.892  1.00  0.00     0.048 C 
HETATM   10  C19         0      10.687  63.833  26.333  1.00  0.00     0.096 C 
HETATM   11  C21         0      10.774  64.304  25.051  1.00  0.00     0.084 C 
ENDROOT
BRANCH  10  12
HETATM   12  O20         0      11.785  64.011  27.169  1.00  0.00    -0.359 OA
HETATM   13  H20         0      12.577  63.526  26.973  1.00  0.00     0.218 HD
ENDBRANCH  10  12
BRANCH   4  14
HETATM   14  C5          0      10.657  65.889  21.241  1.00  0.00     0.025 C 
HETATM   15  C6          0       9.544  65.785  20.420  1.00  0.00     0.004 C 
HETATM   16  C7          0       9.034  66.959  19.875  1.00  0.00     0.026 C 
HETATM   17  C8          0       9.684  68.179  20.030  1.00  0.00     0.112 C 
HETATM   18  C10         0      11.044  68.081  20.293  1.00  0.00     0.112 C 
HETATM   19  C12         0      11.515  66.932  20.916  1.00  0.00     0.028 C 
BRANCH  17  20
HETATM   20  O9          0       8.967  69.358  20.122  1.00  0.00    -0.357 OA
HETATM   21  H9          0       9.311  70.207  19.868  1.00  0.00     0.218 HD
ENDBRANCH  17  20
BRANCH  18  22
HETATM   22  O11         0      11.775  69.260  20.269  1.00  0.00    -0.357 OA
HETATM   23  H11         0      12.381  69.405  20.986  1.00  0.00     0.218 HD
ENDBRANCH  18  22
ENDBRANCH   4  14
BRANCH   8  24
HETATM   24  O17         0       7.125  64.328  26.773  1.00  0.00    -0.359 OA
HETATM   25  H17         0       6.878  64.083  27.657  1.00  0.00     0.218 HD
ENDBRANCH   8  24
TORSDOF 5
ENDMDL
MODEL 8
REMARK VINA RESULT:      -1.0      1.863      7.180
REMARK  5 active torsions:
REMARK  status: ('A' for Active; 'I' for Inactive)
REMARK    1  A    between atoms: C4_4  and  C5_5 
REMARK    2  A    between atoms: C8_8  and  O9_9 
REMARK    3  A    between atoms: C10_11  and  O11_12 
REMARK    4  A    between atoms: C16_18  and  O17_19 
REMARK    5  A    between atoms: C19_22  and  O20_23 
ROOT
HETATM    1  O1          0      11.882  66.631  24.272  1.00  0.00    -0.286 OA
HETATM    2  C2          0      11.710  67.664  23.568  1.00  0.00     0.201 C 
HETATM    3  C3          0      10.462  68.083  23.142  1.00  0.00     0.067 C 
HETATM    4  C4          0      10.310  69.166  22.283  1.00  0.00     0.103 C 
HETATM    5  O13         0      11.389  69.816  21.885  1.00  0.00    -0.307 OA
HETATM    6  C14         0      12.601  69.437  22.230  1.00  0.00     0.107 C 
HETATM    7  C15         0      13.722  69.842  21.521  1.00  0.00     0.049 C 
HETATM    8  C16         0      14.960  69.244  21.726  1.00  0.00     0.093 C 
HETATM    9  C18         0      15.128  68.654  22.972  1.00  0.00     0.048 C 
HETATM   10  C19         0      14.026  68.278  23.729  1.00  0.00     0.096 C 
HETATM   11  C21         0      12.764  68.508  23.251  1.00  0.00     0.084 C 
ENDROOT
BRANCH  10  12
HETATM   12  O20         0      14.181  67.325  24.730  1.00  0.00    -0.359 OA
HETATM   13  H20         0      14.977  67.348  25.247  1.00  0.00     0.218 HD
ENDBRANCH  10  12
BRANCH   4  14
HETATM   14  C5          0       9.123  69.180  21.427  1.00  0.00     0.025 C 
HETATM   15  C6          0       9.053  68.489  20.226  1.00  0.00     0.004 C 
HETATM   16  C7          0       7.845  67.881  19.902  1.00  0.00     0.026 C 
HETATM   17  C8          0       6.705  68.064  20.677  1.00  0.00     0.112 C 
HETATM   18  C10         0       6.704  69.223  21.441  1.00  0.00     0.112 C 
HETATM   19  C12         0       7.926  69.763  21.824  1.00  0.00     0.028 C 
BRANCH  17  20
HETATM   20  O9          0       5.770  67.053  20.812  1.00  0.00    -0.357 OA
HETATM   21  H9          0       5.732  66.466  21.558  1.00  0.00     0.218 HD
ENDBRANCH  17  20
BRANCH  18  22
HETATM   22  O11         0       5.519  69.550  22.085  1.00  0.00    -0.357 OA
HETATM   23  H11         0       5.520  69.514  23.034  1.00  0.00     0.218 HD
ENDBRANCH  18  22
ENDBRANCH   4  14
BRANCH   8  24
HETATM   24  O17         0      15.822  68.967  20.658  1.00  0.00    -0.359 OA
HETATM   25  H17         0      16.618  68.464  20.778  1.00  0.00     0.218 HD
ENDBRANCH   8  24
TORSDOF 5
ENDMDL
MODEL 9
REMARK VINA RESULT:      -1.0      1.993      2.297
REMARK  5 active torsions:
REMARK  status: ('A' for Active; 'I' for Inactive)
REMARK    1  A    between atoms: C4_4  and  C5_5 
REMARK    2  A    between atoms: C8_8  and  O9_9 
REMARK    3  A    between atoms: C10_11  and  O11_12 
REMARK    4  A    between atoms: C16_18  and  O17_19 
REMARK    5  A    between atoms: C19_22  and  O20_23 
ROOT
HETATM    1  O1          0       6.942  64.274  21.914  1.00  0.00    -0.286 OA
HETATM    2  C2          0       6.829  65.483  21.573  1.00  0.00     0.201 C 
HETATM    3  C3          0       7.876  66.213  21.037  1.00  0.00     0.067 C 
HETATM    4  C4          0       7.754  67.571  20.766  1.00  0.00     0.103 C 
HETATM    5  O13         0       6.599  68.166  21.010  1.00  0.00    -0.307 OA
HETATM    6  C14         0       5.586  67.528  21.553  1.00  0.00     0.107 C 
HETATM    7  C15         0       4.543  68.204  22.171  1.00  0.00     0.049 C 
HETATM    8  C16         0       3.615  67.533  22.958  1.00  0.00     0.093 C 
HETATM    9  C18         0       3.464  66.183  22.666  1.00  0.00     0.048 C 
HETATM   10  C19         0       4.468  65.487  22.007  1.00  0.00     0.096 C 
HETATM   11  C21         0       5.609  66.139  21.627  1.00  0.00     0.084 C 
ENDROOT
BRANCH  10  12
HETATM   12  O20         0       4.511  64.100  22.105  1.00  0.00    -0.359 OA
HETATM   13  H20         0       4.561  63.598  21.301  1.00  0.00     0.218 HD
ENDBRANCH  10  12
BRANCH   4  14
HETATM   14  C5          0       8.979  68.373  20.792  1.00  0.00     0.025 C 
HETATM   15  C6          0       9.184  69.402  21.699  1.00  0.00     0.004 C 
HETATM   16  C7          0      10.464  69.554  22.223  1.00  0.00     0.026 C 
HETATM   17  C8          0      11.535  68.797  21.762  1.00  0.00     0.112 C 
HETATM   18  C10         0      11.377  68.287  20.480  1.00  0.00     0.112 C 
HETATM   19  C12         0      10.086  68.065  20.013  1.00  0.00     0.028 C 
BRANCH  17  20
HETATM   20  O9          0      12.560  68.425  22.615  1.00  0.00    -0.357 OA
HETATM   21  H9          0      12.465  67.775  23.302  1.00  0.00     0.218 HD
ENDBRANCH  17  20
BRANCH  18  22
HETATM   22  O11         0      12.485  67.686  19.901  1.00  0.00    -0.357 OA
HETATM   23  H11         0      12.742  66.838  20.242  1.00  0.00     0.218 HD
ENDBRANCH  18  22
ENDBRANCH   4  14
BRANCH   8  24
HETATM   24  O17         0       3.135  68.086  24.151  1.00  0.00    -0.359 OA
HETATM   25  H17         0       3.653  68.697  24.661  1.00  0.00     0.218 HD
ENDBRANCH   8  24
TORSDOF 5
ENDMDL
