MODEL 1
REMARK VINA RESULT:      -0.5      0.000      0.000
REMARK  5 active torsions:
REMARK  status: ('A' for Active; 'I' for Inactive)
REMARK    1  A    between atoms: C4_4  and  C5_5 
REMARK    2  A    between atoms: C8_8  and  O9_9 
REMARK    3  A    between atoms: C10_11  and  O11_12 
REMARK    4  A    between atoms: C16_18  and  O17_19 
REMARK    5  A    between atoms: C19_22  and  O20_23 
ROOT
HETATM    1  O1          0      61.257  64.572 -23.963  1.00  0.00    -0.286 OA
HETATM    2  C2          0      60.791  65.740 -24.066  1.00  0.00     0.201 C 
HETATM    3  C3          0      60.360  66.273 -25.269  1.00  0.00     0.067 C 
HETATM    4  C4          0      59.948  67.597 -25.373  1.00  0.00     0.103 C 
HETATM    5  O13         0      59.952  68.350 -24.287  1.00  0.00    -0.307 OA
HETATM    6  C14         0      60.387  67.905 -23.129  1.00  0.00     0.107 C 
HETATM    7  C15         0      60.769  68.767 -22.111  1.00  0.00     0.049 C 
HETATM    8  C16         0      61.460  68.307 -20.997  1.00  0.00     0.093 C 
HETATM    9  C18         0      61.275  66.961 -20.706  1.00  0.00     0.048 C 
HETATM   10  C19         0      60.849  66.078 -21.690  1.00  0.00     0.096 C 
HETATM   11  C21         0      60.592  66.541 -22.952  1.00  0.00     0.084 C 
ENDROOT
BRANCH  10  12
HETATM   12  O20         0      61.082  64.716 -21.529  1.00  0.00    -0.359 OA
HETATM   13  H20         0      61.715  64.302 -22.103  1.00  0.00     0.218 HD
ENDBRANCH  10  12
BRANCH   4  14
HETATM   14  C5          0      60.090  68.242 -26.679  1.00  0.00     0.025 C 
HETATM   15  C6          0      60.146  69.620 -26.836  1.00  0.00     0.004 C 
HETATM   16  C7          0      61.018  70.125 -27.795  1.00  0.00     0.026 C 
HETATM   17  C8          0      61.712  69.289 -28.662  1.00  0.00     0.112 C 
HETATM   18  C10         0      61.131  68.042 -28.854  1.00  0.00     0.112 C 
HETATM   19  C12         0      60.332  67.523 -27.842  1.00  0.00     0.028 C 
BRANCH  17  20
HETATM   20  O9          0      62.978  69.624 -29.108  1.00  0.00    -0.357 OA
HETATM   21  H9          0      63.274  70.518 -29.234  1.00  0.00     0.218 HD
ENDBRANCH  17  20
BRANCH  18  22
HETATM   22  O11         0      61.675  67.242 -29.849  1.00  0.00    -0.357 OA
HETATM   23  H11         0      61.651  67.582 -30.736  1.00  0.00     0.218 HD
ENDBRANCH  18  22
ENDBRANCH   4  14
BRANCH   8  24
HETATM   24  O17         0      62.506  69.045 -20.432  1.00  0.00    -0.359 OA
HETATM   25  H17         0      62.966  69.716 -20.923  1.00  0.00     0.218 HD
ENDBRANCH   8  24
TORSDOF 5
ENDMDL
MODEL 2
REMARK VINA RESULT:      -0.5      3.298      6.302
REMARK  5 active torsions:
REMARK  status: ('A' for Active; 'I' for Inactive)
REMARK    1  A    between atoms: C4_4  and  C5_5 
REMARK    2  A    between atoms: C8_8  and  O9_9 
REMARK    3  A    between atoms: C10_11  and  O11_12 
REMARK    4  A    between atoms: C16_18  and  O17_19 
REMARK    5  A    between atoms: C19_22  and  O20_23 
ROOT
HETATM    1  O1          0      60.802  67.121 -24.926  1.00  0.00    -0.286 OA
HETATM    2  C2          0      60.456  66.701 -26.065  1.00  0.00     0.201 C 
HETATM    3  C3          0      60.394  65.355 -26.381  1.00  0.00     0.067 C 
HETATM    4  C4          0      60.109  64.922 -27.671  1.00  0.00     0.103 C 
HETATM    5  O13         0      59.875  65.826 -28.607  1.00  0.00    -0.307 OA
HETATM    6  C14         0      59.959  67.116 -28.369  1.00  0.00     0.107 C 
HETATM    7  C15         0      60.113  68.040 -29.392  1.00  0.00     0.049 C 
HETATM    8  C16         0      60.454  69.361 -29.128  1.00  0.00     0.093 C 
HETATM    9  C18         0      60.113  69.812 -27.858  1.00  0.00     0.048 C 
HETATM   10  C19         0      59.906  68.912 -26.822  1.00  0.00     0.096 C 
HETATM   11  C21         0      60.022  67.569 -27.055  1.00  0.00     0.084 C 
ENDROOT
BRANCH  10  12
HETATM   12  O20         0      60.000  69.356 -25.506  1.00  0.00    -0.359 OA
HETATM   13  H20         0      60.714  69.941 -25.284  1.00  0.00     0.218 HD
ENDBRANCH  10  12
BRANCH   4  14
HETATM   14  C5          0      60.633  63.615 -28.070  1.00  0.00     0.025 C 
HETATM   15  C6          0      61.345  63.416 -29.244  1.00  0.00     0.004 C 
HETATM   16  C7          0      62.418  62.531 -29.205  1.00  0.00     0.026 C 
HETATM   17  C8          0      62.694  61.768 -28.076  1.00  0.00     0.112 C 
HETATM   18  C10         0      61.608  61.563 -27.236  1.00  0.00     0.112 C 
HETATM   19  C12         0      60.588  62.508 -27.232  1.00  0.00     0.028 C 
BRANCH  17  20
HETATM   20  O9          0      63.996  61.439 -27.743  1.00  0.00    -0.357 OA
HETATM   21  H9          0      64.752  61.682 -28.265  1.00  0.00     0.218 HD
ENDBRANCH  17  20
BRANCH  18  22
HETATM   22  O11         0      61.778  60.657 -26.199  1.00  0.00    -0.357 OA
HETATM   23  H11         0      61.912  59.747 -26.440  1.00  0.00     0.218 HD
ENDBRANCH  18  22
ENDBRANCH   4  14
BRANCH   8  24
HETATM   24  O17         0      61.359  70.056 -29.937  1.00  0.00    -0.359 OA
HETATM   25  H17         0      62.087  70.542 -29.568  1.00  0.00     0.218 HD
ENDBRANCH   8  24
TORSDOF 5
ENDMDL
MODEL 3
REMARK VINA RESULT:      -0.4      4.025      4.819
REMARK  5 active torsions:
REMARK  status: ('A' for Active; 'I' for Inactive)
REMARK    1  A    between atoms: C4_4  and  C5_5 
REMARK    2  A    between atoms: C8_8  and  O9_9 
REMARK    3  A    between atoms: C10_11  and  O11_12 
REMARK    4  A    between atoms: C16_18  and  O17_19 
REMARK    5  A    between atoms: C19_22  and  O20_23 
ROOT
HETATM    1  O1          0      64.491  66.738 -23.190  1.00  0.00    -0.286 OA
HETATM    2  C2          0      64.308  67.640 -24.053  1.00  0.00     0.201 C 
HETATM    3  C3          0      63.059  67.947 -24.564  1.00  0.00     0.067 C 
HETATM    4  C4          0      62.898  68.874 -25.588  1.00  0.00     0.103 C 
HETATM    5  O13         0      63.968  69.486 -26.064  1.00  0.00    -0.307 OA
HETATM    6  C14         0      65.180  69.204 -25.641  1.00  0.00     0.107 C 
HETATM    7  C15         0      66.307  69.525 -26.384  1.00  0.00     0.049 C 
HETATM    8  C16         0      67.556  69.006 -26.063  1.00  0.00     0.093 C 
HETATM    9  C18         0      67.710  68.627 -24.735  1.00  0.00     0.048 C 
HETATM   10  C19         0      66.601  68.344 -23.949  1.00  0.00     0.096 C 
HETATM   11  C21         0      65.346  68.455 -24.481  1.00  0.00     0.084 C 
ENDROOT
BRANCH  10  12
HETATM   12  O20         0      66.759  67.567 -22.805  1.00  0.00    -0.359 OA
HETATM   13  H20         0      67.037  68.001 -22.008  1.00  0.00     0.218 HD
ENDBRANCH  10  12
BRANCH   4  14
HETATM   14  C5          0      61.731  68.715 -26.458  1.00  0.00     0.025 C 
HETATM   15  C6          0      60.614  69.533 -26.374  1.00  0.00     0.004 C 
HETATM   16  C7          0      59.991  69.897 -27.563  1.00  0.00     0.026 C 
HETATM   17  C8          0      60.381  69.360 -28.785  1.00  0.00     0.112 C 
HETATM   18  C10         0      61.029  68.135 -28.699  1.00  0.00     0.112 C 
HETATM   19  C12         0      61.716  67.832 -27.530  1.00  0.00     0.028 C 
BRANCH  17  20
HETATM   20  O9          0      60.305  70.109 -29.946  1.00  0.00    -0.357 OA
HETATM   21  H9          0      60.865  69.972 -30.701  1.00  0.00     0.218 HD
ENDBRANCH  17  20
BRANCH  18  22
HETATM   22  O11         0      61.271  67.467 -29.891  1.00  0.00    -0.357 OA
HETATM   23  H11         0      62.158  67.500 -30.231  1.00  0.00     0.218 HD
ENDBRANCH  18  22
ENDBRANCH   4  14
BRANCH   8  24
HETATM   24  O17         0      68.449  68.589 -27.056  1.00  0.00    -0.359 OA
HETATM   25  H17         0      68.151  68.334 -27.921  1.00  0.00     0.218 HD
ENDBRANCH   8  24
TORSDOF 5
ENDMDL
MODEL 4
REMARK VINA RESULT:      -0.4      2.836      6.135
REMARK  5 active torsions:
REMARK  status: ('A' for Active; 'I' for Inactive)
REMARK    1  A    between atoms: C4_4  and  C5_5 
REMARK    2  A    between atoms: C8_8  and  O9_9 
REMARK    3  A    between atoms: C10_11  and  O11_12 
REMARK    4  A    between atoms: C16_18  and  O17_19 
REMARK    5  A    between atoms: C19_22  and  O20_23 
ROOT
HETATM    1  O1          0      62.893  67.784 -24.499  1.00  0.00    -0.286 OA
HETATM    2  C2          0      62.077  67.466 -25.407  1.00  0.00     0.201 C 
HETATM    3  C3          0      61.331  66.300 -25.370  1.00  0.00     0.067 C 
HETATM    4  C4          0      60.516  65.923 -26.432  1.00  0.00     0.103 C 
HETATM    5  O13         0      60.444  66.714 -27.488  1.00  0.00    -0.307 OA
HETATM    6  C14         0      61.159  67.812 -27.589  1.00  0.00     0.107 C 
HETATM    7  C15         0      61.397  68.419 -28.814  1.00  0.00     0.049 C 
HETATM    8  C16         0      62.352  69.419 -28.951  1.00  0.00     0.093 C 
HETATM    9  C18         0      62.640  70.119 -27.785  1.00  0.00     0.048 C 
HETATM   10  C19         0      62.371  69.560 -26.543  1.00  0.00     0.096 C 
HETATM   11  C21         0      61.803  68.318 -26.465  1.00  0.00     0.084 C 
ENDROOT
BRANCH  10  12
HETATM   12  O20         0      63.038  70.044 -25.421  1.00  0.00    -0.359 OA
HETATM   13  H20         0      63.791  70.605 -25.558  1.00  0.00     0.218 HD
ENDBRANCH  10  12
BRANCH   4  14
HETATM   14  C5          0      60.259  64.492 -26.603  1.00  0.00     0.025 C 
HETATM   15  C6          0      60.113  63.898 -27.849  1.00  0.00     0.004 C 
HETATM   16  C7          0      60.659  62.631 -28.027  1.00  0.00     0.026 C 
HETATM   17  C8          0      61.214  61.920 -26.968  1.00  0.00     0.112 C 
HETATM   18  C10         0      60.755  62.297 -25.713  1.00  0.00     0.112 C 
HETATM   19  C12         0      60.293  63.597 -25.542  1.00  0.00     0.028 C 
BRANCH  17  20
HETATM   20  O9          0      62.285  61.068 -27.170  1.00  0.00    -0.357 OA
HETATM   21  H9          0      63.191  61.353 -27.186  1.00  0.00     0.218 HD
ENDBRANCH  17  20
BRANCH  18  22
HETATM   22  O11         0      61.129  61.500 -24.641  1.00  0.00    -0.357 OA
HETATM   23  H11         0      61.682  61.900 -23.980  1.00  0.00     0.218 HD
ENDBRANCH  18  22
ENDBRANCH   4  14
BRANCH   8  24
HETATM   24  O17         0      63.186  69.483 -30.072  1.00  0.00    -0.359 OA
HETATM   25  H17         0      64.084  69.788 -30.010  1.00  0.00     0.218 HD
ENDBRANCH   8  24
TORSDOF 5
ENDMDL
MODEL 5
REMARK VINA RESULT:      -0.4      1.740      2.135
REMARK  5 active torsions:
REMARK  status: ('A' for Active; 'I' for Inactive)
REMARK    1  A    between atoms: C4_4  and  C5_5 
REMARK    2  A    between atoms: C8_8  and  O9_9 
REMARK    3  A    between atoms: C10_11  and  O11_12 
REMARK    4  A    between atoms: C16_18  and  O17_19 
REMARK    5  A    between atoms: C19_22  and  O20_23 
ROOT
HETATM    1  O1          0      63.404  64.143 -24.948  1.00  0.00    -0.286 OA
HETATM    2  C2          0      62.272  64.690 -24.850  1.00  0.00     0.201 C 
HETATM    3  C3          0      61.680  65.382 -25.894  1.00  0.00     0.067 C 
HETATM    4  C4          0      60.479  66.062 -25.728  1.00  0.00     0.103 C 
HETATM    5  O13         0      59.885  66.024 -24.549  1.00  0.00    -0.307 OA
HETATM    6  C14         0      60.422  65.413 -23.515  1.00  0.00     0.107 C 
HETATM    7  C15         0      60.031  65.696 -22.214  1.00  0.00     0.049 C 
HETATM    8  C16         0      60.766  65.245 -21.125  1.00  0.00     0.093 C 
HETATM    9  C18         0      61.538  64.115 -21.366  1.00  0.00     0.048 C 
HETATM   10  C19         0      61.909  63.777 -22.660  1.00  0.00     0.096 C 
HETATM   11  C21         0      61.496  64.552 -23.709  1.00  0.00     0.084 C 
ENDROOT
BRANCH  10  12
HETATM   12  O20         0      63.003  62.940 -22.858  1.00  0.00    -0.359 OA
HETATM   13  H20         0      63.789  63.109 -22.352  1.00  0.00     0.218 HD
ENDBRANCH  10  12
BRANCH   4  14
HETATM   14  C5          0      60.232  67.208 -26.605  1.00  0.00     0.025 C 
HETATM   15  C6          0      60.032  68.494 -26.123  1.00  0.00     0.004 C 
HETATM   16  C7          0      60.585  69.546 -26.846  1.00  0.00     0.026 C 
HETATM   17  C8          0      61.200  69.342 -28.077  1.00  0.00     0.112 C 
HETATM   18  C10         0      60.798  68.192 -28.742  1.00  0.00     0.112 C 
HETATM   19  C12         0      60.329  67.123 -27.988  1.00  0.00     0.028 C 
BRANCH  17  20
HETATM   20  O9          0      62.270  70.124 -28.473  1.00  0.00    -0.357 OA
HETATM   21  H9          0      62.323  70.558 -29.316  1.00  0.00     0.218 HD
ENDBRANCH  17  20
BRANCH  18  22
HETATM   22  O11         0      61.235  68.037 -30.050  1.00  0.00    -0.357 OA
HETATM   23  H11         0      61.869  68.669 -30.369  1.00  0.00     0.218 HD
ENDBRANCH  18  22
ENDBRANCH   4  14
BRANCH   8  24
HETATM   24  O17         0      60.972  66.052 -20.000  1.00  0.00    -0.359 OA
HETATM   25  H17         0      60.388  66.770 -19.787  1.00  0.00     0.218 HD
ENDBRANCH   8  24
TORSDOF 5
ENDMDL
MODEL 6
REMARK VINA RESULT:      -0.3      2.317      2.372
REMARK  5 active torsions:
REMARK  status: ('A' for Active; 'I' for Inactive)
REMARK    1  A    between atoms: C4_4  and  C5_5 
REMARK    2  A    between atoms: C8_8  and  O9_9 
REMARK    3  A    between atoms: C10_11  and  O11_12 
REMARK    4  A    between atoms: C16_18  and  O17_19 
REMARK    5  A    between atoms: C19_22  and  O20_23 
ROOT
HETATM    1  O1          0      63.450  65.256 -24.184  1.00  0.00    -0.286 OA
HETATM    2  C2          0      62.898  66.389 -24.131  1.00  0.00     0.201 C 
HETATM    3  C3          0      61.898  66.778 -25.005  1.00  0.00     0.067 C 
HETATM    4  C4          0      61.379  68.068 -24.991  1.00  0.00     0.103 C 
HETATM    5  O13         0      61.844  68.930 -24.104  1.00  0.00    -0.307 OA
HETATM    6  C14         0      62.819  68.623 -23.276  1.00  0.00     0.107 C 
HETATM    7  C15         0      63.572  69.599 -22.640  1.00  0.00     0.049 C 
HETATM    8  C16         0      64.751  69.283 -21.975  1.00  0.00     0.093 C 
HETATM    9  C18         0      64.841  67.968 -21.534  1.00  0.00     0.048 C 
HETATM   10  C19         0      64.067  66.974 -22.117  1.00  0.00     0.096 C 
HETATM   11  C21         0      63.197  67.293 -23.123  1.00  0.00     0.084 C 
ENDROOT
BRANCH  10  12
HETATM   12  O20         0      64.460  65.645 -21.992  1.00  0.00    -0.359 OA
HETATM   13  H20         0      63.787  64.995 -21.828  1.00  0.00     0.218 HD
ENDBRANCH  10  12
BRANCH   4  14
HETATM   14  C5          0      60.820  68.579 -26.244  1.00  0.00     0.025 C 
HETATM   15  C6          0      61.045  69.871 -26.696  1.00  0.00     0.004 C 
HETATM   16  C7          0      61.227  70.053 -28.063  1.00  0.00     0.026 C 
HETATM   17  C8          0      61.059  69.010 -28.966  1.00  0.00     0.112 C 
HETATM   18  C10         0      60.245  67.978 -28.516  1.00  0.00     0.112 C 
HETATM   19  C12         0      60.148  67.765 -27.146  1.00  0.00     0.028 C 
BRANCH  17  20
HETATM   20  O9          0      61.822  68.939 -30.118  1.00  0.00    -0.357 OA
HETATM   21  H9          0      61.511  68.567 -30.936  1.00  0.00     0.218 HD
ENDBRANCH  17  20
BRANCH  18  22
HETATM   22  O11         0      59.891  67.007 -29.441  1.00  0.00    -0.357 OA
HETATM   23  H11         0      60.379  66.992 -30.257  1.00  0.00     0.218 HD
ENDBRANCH  18  22
ENDBRANCH   4  14
BRANCH   8  24
HETATM   24  O17         0      65.875  70.113 -22.048  1.00  0.00    -0.359 OA
HETATM   25  H17         0      66.630  69.885 -22.577  1.00  0.00     0.218 HD
ENDBRANCH   8  24
TORSDOF 5
ENDMDL
MODEL 7
REMARK VINA RESULT:      -0.3      2.673      2.933
REMARK  5 active torsions:
REMARK  status: ('A' for Active; 'I' for Inactive)
REMARK    1  A    between atoms: C4_4  and  C5_5 
REMARK    2  A    between atoms: C8_8  and  O9_9 
REMARK    3  A    between atoms: C10_11  and  O11_12 
REMARK    4  A    between atoms: C16_18  and  O17_19 
REMARK    5  A    between atoms: C19_22  and  O20_23 
ROOT
HETATM    1  O1          0      63.580  63.775 -26.169  1.00  0.00    -0.286 OA
HETATM    2  C2          0      62.990  64.721 -25.579  1.00  0.00     0.201 C 
HETATM    3  C3          0      61.857  65.333 -26.089  1.00  0.00     0.067 C 
HETATM    4  C4          0      61.287  66.440 -25.472  1.00  0.00     0.103 C 
HETATM    5  O13         0      61.835  66.900 -24.361  1.00  0.00    -0.307 OA
HETATM    6  C14         0      62.932  66.380 -23.855  1.00  0.00     0.107 C 
HETATM    7  C15         0      63.722  67.077 -22.953  1.00  0.00     0.049 C 
HETATM    8  C16         0      64.998  66.637 -22.621  1.00  0.00     0.093 C 
HETATM    9  C18         0      65.211  65.274 -22.791  1.00  0.00     0.048 C 
HETATM   10  C19         0      64.408  64.537 -23.651  1.00  0.00     0.096 C 
HETATM   11  C21         0      63.388  65.153 -24.323  1.00  0.00     0.084 C 
ENDROOT
BRANCH  10  12
HETATM   12  O20         0      64.876  63.323 -24.146  1.00  0.00    -0.359 OA
HETATM   13  H20         0      65.353  62.755 -23.553  1.00  0.00     0.218 HD
ENDBRANCH  10  12
BRANCH   4  14
HETATM   14  C5          0      60.530  67.363 -26.319  1.00  0.00     0.025 C 
HETATM   15  C6          0      60.346  68.700 -25.998  1.00  0.00     0.004 C 
HETATM   16  C7          0      60.386  69.625 -27.037  1.00  0.00     0.026 C 
HETATM   17  C8          0      60.471  69.225 -28.366  1.00  0.00     0.112 C 
HETATM   18  C10         0      60.018  67.936 -28.614  1.00  0.00     0.112 C 
HETATM   19  C12         0      60.068  67.008 -27.580  1.00  0.00     0.028 C 
BRANCH  17  20
HETATM   20  O9          0      61.153  69.991 -29.295  1.00  0.00    -0.357 OA
HETATM   21  H9          0      61.200  70.940 -29.264  1.00  0.00     0.218 HD
ENDBRANCH  17  20
BRANCH  18  22
HETATM   22  O11         0      59.904  67.555 -29.943  1.00  0.00    -0.357 OA
HETATM   23  H11         0      60.492  66.873 -30.247  1.00  0.00     0.218 HD
ENDBRANCH  18  22
ENDBRANCH   4  14
BRANCH   8  24
HETATM   24  O17         0      66.060  67.533 -22.459  1.00  0.00    -0.359 OA
HETATM   25  H17         0      66.963  67.264 -22.580  1.00  0.00     0.218 HD
ENDBRANCH   8  24
TORSDOF 5
ENDMDL
MODEL 8
REMARK VINA RESULT:      -0.3      2.255      6.572
REMARK  5 active torsions:
REMARK  status: ('A' for Active; 'I' for Inactive)
REMARK    1  A    between atoms: C4_4  and  C5_5 
REMARK    2  A    between atoms: C8_8  and  O9_9 
REMARK    3  A    between atoms: C10_11  and  O11_12 
REMARK    4  A    between atoms: C16_18  and  O17_19 
REMARK    5  A    between atoms: C19_22  and  O20_23 
ROOT
HETATM    1  O1          0      64.419  66.558 -27.447  1.00  0.00    -0.286 OA
HETATM    2  C2          0      63.664  67.137 -26.618  1.00  0.00     0.201 C 
HETATM    3  C3          0      63.435  66.650 -25.343  1.00  0.00     0.067 C 
HETATM    4  C4          0      62.520  67.251 -24.486  1.00  0.00     0.103 C 
HETATM    5  O13         0      61.872  68.325 -24.902  1.00  0.00    -0.307 OA
HETATM    6  C14         0      62.023  68.806 -26.116  1.00  0.00     0.107 C 
HETATM    7  C15         0      61.087  69.655 -26.688  1.00  0.00     0.049 C 
HETATM    8  C16         0      61.117  69.954 -28.045  1.00  0.00     0.093 C 
HETATM    9  C18         0      62.363  69.821 -28.647  1.00  0.00     0.048 C 
HETATM   10  C19         0      63.340  69.016 -28.077  1.00  0.00     0.096 C 
HETATM   11  C21         0      63.081  68.363 -26.903  1.00  0.00     0.084 C 
ENDROOT
BRANCH  10  12
HETATM   12  O20         0      64.382  68.546 -28.870  1.00  0.00    -0.359 OA
HETATM   13  H20         0      65.110  69.130 -29.042  1.00  0.00     0.218 HD
ENDBRANCH  10  12
BRANCH   4  14
HETATM   14  C5          0      61.897  66.402 -23.469  1.00  0.00     0.025 C 
HETATM   15  C6          0      60.598  65.926 -23.578  1.00  0.00     0.004 C 
HETATM   16  C7          0      60.347  64.630 -23.139  1.00  0.00     0.026 C 
HETATM   17  C8          0      61.321  63.879 -22.489  1.00  0.00     0.112 C 
HETATM   18  C10         0      62.320  64.626 -21.880  1.00  0.00     0.112 C 
HETATM   19  C12         0      62.608  65.885 -22.393  1.00  0.00     0.028 C 
BRANCH  17  20
HETATM   20  O9          0      61.374  62.505 -22.641  1.00  0.00    -0.357 OA
HETATM   21  H9          0      61.469  62.069 -23.480  1.00  0.00     0.218 HD
ENDBRANCH  17  20
BRANCH  18  22
HETATM   22  O11         0      63.207  63.941 -21.062  1.00  0.00    -0.357 OA
HETATM   23  H11         0      62.876  63.645 -20.222  1.00  0.00     0.218 HD
ENDBRANCH  18  22
ENDBRANCH   4  14
BRANCH   8  24
HETATM   24  O17         0      59.942  70.046 -28.798  1.00  0.00    -0.359 OA
HETATM   25  H17         0      59.176  70.504 -28.474  1.00  0.00     0.218 HD
ENDBRANCH   8  24
TORSDOF 5
ENDMDL
MODEL 9
REMARK VINA RESULT:      -0.3      2.607      3.360
REMARK  5 active torsions:
REMARK  status: ('A' for Active; 'I' for Inactive)
REMARK    1  A    between atoms: C4_4  and  C5_5 
REMARK    2  A    between atoms: C8_8  and  O9_9 
REMARK    3  A    between atoms: C10_11  and  O11_12 
REMARK    4  A    between atoms: C16_18  and  O17_19 
REMARK    5  A    between atoms: C19_22  and  O20_23 
ROOT
HETATM    1  O1          0      61.066  62.944 -27.072  1.00  0.00    -0.286 OA
HETATM    2  C2          0      61.115  63.950 -26.313  1.00  0.00     0.201 C 
HETATM    3  C3          0      60.652  65.199 -26.691  1.00  0.00     0.067 C 
HETATM    4  C4          0      60.811  66.313 -25.875  1.00  0.00     0.103 C 
HETATM    5  O13         0      61.402  66.161 -24.702  1.00  0.00    -0.307 OA
HETATM    6  C14         0      61.893  65.006 -24.311  1.00  0.00     0.107 C 
HETATM    7  C15         0      62.841  64.919 -23.302  1.00  0.00     0.049 C 
HETATM    8  C16         0      63.539  63.740 -23.068  1.00  0.00     0.093 C 
HETATM    9  C18         0      62.896  62.583 -23.490  1.00  0.00     0.048 C 
HETATM   10  C19         0      61.909  62.640 -24.464  1.00  0.00     0.096 C 
HETATM   11  C21         0      61.555  63.847 -25.002  1.00  0.00     0.084 C 
ENDROOT
BRANCH  10  12
HETATM   12  O20         0      61.591  61.489 -25.179  1.00  0.00    -0.359 OA
HETATM   13  H20         0      61.231  61.592 -26.051  1.00  0.00     0.218 HD
ENDBRANCH  10  12
BRANCH   4  14
HETATM   14  C5          0      60.870  67.621 -26.530  1.00  0.00     0.025 C 
HETATM   15  C6          0      61.836  68.570 -26.229  1.00  0.00     0.004 C 
HETATM   16  C7          0      62.350  69.322 -27.280  1.00  0.00     0.026 C 
HETATM   17  C8          0      61.828  69.231 -28.566  1.00  0.00     0.112 C 
HETATM   18  C10         0      60.519  68.772 -28.629  1.00  0.00     0.112 C 
HETATM   19  C12         0      60.057  67.951 -27.607  1.00  0.00     0.028 C 
BRANCH  17  20
HETATM   20  O9          0      62.641  69.388 -29.674  1.00  0.00    -0.357 OA
HETATM   21  H9          0      63.528  69.052 -29.730  1.00  0.00     0.218 HD
ENDBRANCH  17  20
BRANCH  18  22
HETATM   22  O11         0      59.888  68.841 -29.863  1.00  0.00    -0.357 OA
HETATM   23  H11         0      59.635  69.704 -30.169  1.00  0.00     0.218 HD
ENDBRANCH  18  22
ENDBRANCH   4  14
BRANCH   8  24
HETATM   24  O17         0      64.902  63.751 -22.752  1.00  0.00    -0.359 OA
HETATM   25  H17         0      65.209  63.925 -21.870  1.00  0.00     0.218 HD
ENDBRANCH   8  24
TORSDOF 5
ENDMDL
