MODEL 1
REMARK VINA RESULT:      -2.5      0.000      0.000
REMARK  5 active torsions:
REMARK  status: ('A' for Active; 'I' for Inactive)
REMARK    1  A    between atoms: C4_4  and  C5_5 
REMARK    2  A    between atoms: C8_8  and  O9_9 
REMARK    3  A    between atoms: C10_11  and  O11_12 
REMARK    4  A    between atoms: C16_18  and  O17_19 
REMARK    5  A    between atoms: C19_22  and  O20_23 
ROOT
HETATM    1  O1          0      30.910  37.680 -25.466  1.00  0.00    -0.286 OA
HETATM    2  C2          0      31.611  38.144 -24.525  1.00  0.00     0.201 C 
HETATM    3  C3          0      32.995  38.146 -24.551  1.00  0.00     0.067 C 
HETATM    4  C4          0      33.744  38.569 -23.458  1.00  0.00     0.103 C 
HETATM    5  O13         0      33.109  38.995 -22.381  1.00  0.00    -0.307 OA
HETATM    6  C14         0      31.798  38.979 -22.290  1.00  0.00     0.107 C 
HETATM    7  C15         0      31.149  39.036 -21.064  1.00  0.00     0.049 C 
HETATM    8  C16         0      29.791  38.763 -20.953  1.00  0.00     0.093 C 
HETATM    9  C18         0      29.055  38.963 -22.115  1.00  0.00     0.048 C 
HETATM   10  C19         0      29.680  38.959 -23.355  1.00  0.00     0.096 C 
HETATM   11  C21         0      31.033  38.773 -23.433  1.00  0.00     0.084 C 
ENDROOT
BRANCH  10  12
HETATM   12  O20         0      28.922  38.721 -24.497  1.00  0.00    -0.359 OA
HETATM   13  H20         0      28.057  38.345 -24.388  1.00  0.00     0.218 HD
ENDBRANCH  10  12
BRANCH   4  14
HETATM   14  C5          0      35.087  38.005 -23.309  1.00  0.00     0.025 C 
HETATM   15  C6          0      35.714  37.280 -24.311  1.00  0.00     0.004 C 
HETATM   16  C7          0      37.082  37.469 -24.484  1.00  0.00     0.026 C 
HETATM   17  C8          0      37.827  38.249 -23.607  1.00  0.00     0.112 C 
HETATM   18  C10         0      37.272  38.392 -22.343  1.00  0.00     0.112 C 
HETATM   19  C12         0      35.892  38.282 -22.211  1.00  0.00     0.028 C 
BRANCH  17  20
HETATM   20  O9          0      38.913  38.980 -24.056  1.00  0.00    -0.357 OA
HETATM   21  H9          0      39.747  39.020 -23.601  1.00  0.00     0.218 HD
ENDBRANCH  17  20
BRANCH  18  22
HETATM   22  O11         0      38.059  38.998 -21.375  1.00  0.00    -0.357 OA
HETATM   23  H11         0      38.819  38.514 -21.072  1.00  0.00     0.218 HD
ENDBRANCH  18  22
ENDBRANCH   4  14
BRANCH   8  24
HETATM   24  O17         0      29.280  38.032 -19.875  1.00  0.00    -0.359 OA
HETATM   25  H17         0      28.893  38.460 -19.121  1.00  0.00     0.218 HD
ENDBRANCH   8  24
TORSDOF 5
ENDMDL
MODEL 2
REMARK VINA RESULT:      -2.4      1.695      2.186
REMARK  5 active torsions:
REMARK  status: ('A' for Active; 'I' for Inactive)
REMARK    1  A    between atoms: C4_4  and  C5_5 
REMARK    2  A    between atoms: C8_8  and  O9_9 
REMARK    3  A    between atoms: C10_11  and  O11_12 
REMARK    4  A    between atoms: C16_18  and  O17_19 
REMARK    5  A    between atoms: C19_22  and  O20_23 
ROOT
HETATM    1  O1          0      31.135  35.432 -23.178  1.00  0.00    -0.286 OA
HETATM    2  C2          0      31.536  36.612 -22.981  1.00  0.00     0.201 C 
HETATM    3  C3          0      32.876  36.941 -22.877  1.00  0.00     0.067 C 
HETATM    4  C4          0      33.287  38.231 -22.558  1.00  0.00     0.103 C 
HETATM    5  O13         0      32.368  39.162 -22.371  1.00  0.00    -0.307 OA
HETATM    6  C14         0      31.081  38.894 -22.422  1.00  0.00     0.107 C 
HETATM    7  C15         0      30.137  39.733 -21.848  1.00  0.00     0.049 C 
HETATM    8  C16         0      28.818  39.327 -21.680  1.00  0.00     0.093 C 
HETATM    9  C18         0      28.395  38.332 -22.552  1.00  0.00     0.048 C 
HETATM   10  C19         0      29.316  37.504 -23.179  1.00  0.00     0.096 C 
HETATM   11  C21         0      30.653  37.681 -22.950  1.00  0.00     0.084 C 
ENDROOT
BRANCH  10  12
HETATM   12  O20         0      28.896  36.276 -23.680  1.00  0.00    -0.359 OA
HETATM   13  H20         0      28.337  35.739 -23.131  1.00  0.00     0.218 HD
ENDBRANCH  10  12
BRANCH   4  14
HETATM   14  C5          0      34.582  38.376 -21.891  1.00  0.00     0.025 C 
HETATM   15  C6          0      34.840  37.859 -20.629  1.00  0.00     0.004 C 
HETATM   16  C7          0      36.099  37.313 -20.401  1.00  0.00     0.026 C 
HETATM   17  C8          0      37.113  37.397 -21.349  1.00  0.00     0.112 C 
HETATM   18  C10         0      36.973  38.437 -22.257  1.00  0.00     0.112 C 
HETATM   19  C12         0      35.694  38.908 -22.531  1.00  0.00     0.028 C 
BRANCH  17  20
HETATM   20  O9          0      38.048  36.386 -21.477  1.00  0.00    -0.357 OA
HETATM   21  H9          0      38.983  36.513 -21.361  1.00  0.00     0.218 HD
ENDBRANCH  17  20
BRANCH  18  22
HETATM   22  O11         0      38.046  38.682 -23.103  1.00  0.00    -0.357 OA
HETATM   23  H11         0      37.942  39.382 -23.737  1.00  0.00     0.218 HD
ENDBRANCH  18  22
ENDBRANCH   4  14
BRANCH   8  24
HETATM   24  O17         0      28.100  39.647 -20.522  1.00  0.00    -0.359 OA
HETATM   25  H17         0      27.568  40.433 -20.466  1.00  0.00     0.218 HD
ENDBRANCH   8  24
TORSDOF 5
ENDMDL
MODEL 3
REMARK VINA RESULT:      -2.4      1.781      6.909
REMARK  5 active torsions:
REMARK  status: ('A' for Active; 'I' for Inactive)
REMARK    1  A    between atoms: C4_4  and  C5_5 
REMARK    2  A    between atoms: C8_8  and  O9_9 
REMARK    3  A    between atoms: C10_11  and  O11_12 
REMARK    4  A    between atoms: C16_18  and  O17_19 
REMARK    5  A    between atoms: C19_22  and  O20_23 
ROOT
HETATM    1  O1          0      36.817  37.559 -25.463  1.00  0.00    -0.286 OA
HETATM    2  C2          0      36.515  37.429 -24.245  1.00  0.00     0.201 C 
HETATM    3  C3          0      35.229  37.145 -23.817  1.00  0.00     0.067 C 
HETATM    4  C4          0      34.902  37.109 -22.466  1.00  0.00     0.103 C 
HETATM    5  O13         0      35.854  37.332 -21.577  1.00  0.00    -0.307 OA
HETATM    6  C14         0      37.082  37.643 -21.930  1.00  0.00     0.107 C 
HETATM    7  C15         0      37.961  38.258 -21.051  1.00  0.00     0.049 C 
HETATM    8  C16         0      39.156  38.811 -21.495  1.00  0.00     0.093 C 
HETATM    9  C18         0      39.652  38.269 -22.674  1.00  0.00     0.048 C 
HETATM   10  C19         0      38.808  37.606 -23.555  1.00  0.00     0.096 C 
HETATM   11  C21         0      37.480  37.470 -23.251  1.00  0.00     0.084 C 
ENDROOT
BRANCH  10  12
HETATM   12  O20         0      39.190  37.459 -24.884  1.00  0.00    -0.359 OA
HETATM   13  H20         0      39.162  36.589 -25.263  1.00  0.00     0.218 HD
ENDBRANCH  10  12
BRANCH   4  14
HETATM   14  C5          0      33.515  37.406 -22.105  1.00  0.00     0.025 C 
HETATM   15  C6          0      33.176  38.253 -21.060  1.00  0.00     0.004 C 
HETATM   16  C7          0      32.081  39.092 -21.240  1.00  0.00     0.026 C 
HETATM   17  C8          0      31.268  39.000 -22.365  1.00  0.00     0.112 C 
HETATM   18  C10         0      31.296  37.765 -23.000  1.00  0.00     0.112 C 
HETATM   19  C12         0      32.438  36.983 -22.873  1.00  0.00     0.028 C 
BRANCH  17  20
HETATM   20  O9          0      30.664  40.125 -22.898  1.00  0.00    -0.357 OA
HETATM   21  H9          0      31.099  40.726 -23.490  1.00  0.00     0.218 HD
ENDBRANCH  17  20
BRANCH  18  22
HETATM   22  O11         0      30.368  37.557 -24.010  1.00  0.00    -0.357 OA
HETATM   23  H11         0      29.491  37.307 -23.743  1.00  0.00     0.218 HD
ENDBRANCH  18  22
ENDBRANCH   4  14
BRANCH   8  24
HETATM   24  O17         0      39.631  40.026 -20.987  1.00  0.00    -0.359 OA
HETATM   25  H17         0      40.364  40.063 -20.385  1.00  0.00     0.218 HD
ENDBRANCH   8  24
TORSDOF 5
ENDMDL
MODEL 4
REMARK VINA RESULT:      -2.2      2.182      6.609
REMARK  5 active torsions:
REMARK  status: ('A' for Active; 'I' for Inactive)
REMARK    1  A    between atoms: C4_4  and  C5_5 
REMARK    2  A    between atoms: C8_8  and  O9_9 
REMARK    3  A    between atoms: C10_11  and  O11_12 
REMARK    4  A    between atoms: C16_18  and  O17_19 
REMARK    5  A    between atoms: C19_22  and  O20_23 
ROOT
HETATM    1  O1          0      34.329  37.141 -26.899  1.00  0.00    -0.286 OA
HETATM    2  C2          0      34.770  37.144 -25.717  1.00  0.00     0.201 C 
HETATM    3  C3          0      33.965  36.909 -24.615  1.00  0.00     0.067 C 
HETATM    4  C4          0      34.454  37.019 -23.318  1.00  0.00     0.103 C 
HETATM    5  O13         0      35.725  37.336 -23.144  1.00  0.00    -0.307 OA
HETATM    6  C14         0      36.523  37.605 -24.155  1.00  0.00     0.107 C 
HETATM    7  C15         0      37.706  38.310 -23.984  1.00  0.00     0.049 C 
HETATM    8  C16         0      38.411  38.810 -25.072  1.00  0.00     0.093 C 
HETATM    9  C18         0      38.191  38.143 -26.271  1.00  0.00     0.048 C 
HETATM   10  C19         0      37.040  37.390 -26.459  1.00  0.00     0.096 C 
HETATM   11  C21         0      36.122  37.290 -25.448  1.00  0.00     0.084 C 
ENDROOT
BRANCH  10  12
HETATM   12  O20         0      36.619  37.101 -27.753  1.00  0.00    -0.359 OA
HETATM   13  H20         0      35.834  36.577 -27.859  1.00  0.00     0.218 HD
ENDBRANCH  10  12
BRANCH   4  14
HETATM   14  C5          0      33.494  37.356 -22.266  1.00  0.00     0.025 C 
HETATM   15  C6          0      33.699  38.390 -21.363  1.00  0.00     0.004 C 
HETATM   16  C7          0      32.596  39.153 -20.996  1.00  0.00     0.026 C 
HETATM   17  C8          0      31.309  38.820 -21.405  1.00  0.00     0.112 C 
HETATM   18  C10         0      31.135  37.484 -21.741  1.00  0.00     0.112 C 
HETATM   19  C12         0      32.239  36.767 -22.187  1.00  0.00     0.028 C 
BRANCH  17  20
HETATM   20  O9          0      30.367  39.803 -21.650  1.00  0.00    -0.357 OA
HETATM   21  H9          0      30.578  40.724 -21.749  1.00  0.00     0.218 HD
ENDBRANCH  17  20
BRANCH  18  22
HETATM   22  O11         0      29.835  37.059 -21.973  1.00  0.00    -0.357 OA
HETATM   23  H11         0      29.622  36.790 -22.860  1.00  0.00     0.218 HD
ENDBRANCH  18  22
ENDBRANCH   4  14
BRANCH   8  24
HETATM   24  O17         0      39.015  40.072 -25.032  1.00  0.00    -0.359 OA
HETATM   25  H17         0      38.519  40.856 -24.830  1.00  0.00     0.218 HD
ENDBRANCH   8  24
TORSDOF 5
ENDMDL
MODEL 5
REMARK VINA RESULT:      -2.2      1.622      2.360
REMARK  5 active torsions:
REMARK  status: ('A' for Active; 'I' for Inactive)
REMARK    1  A    between atoms: C4_4  and  C5_5 
REMARK    2  A    between atoms: C8_8  and  O9_9 
REMARK    3  A    between atoms: C10_11  and  O11_12 
REMARK    4  A    between atoms: C16_18  and  O17_19 
REMARK    5  A    between atoms: C19_22  and  O20_23 
ROOT
HETATM    1  O1          0      33.060  36.891 -24.903  1.00  0.00    -0.286 OA
HETATM    2  C2          0      33.428  37.604 -23.930  1.00  0.00     0.201 C 
HETATM    3  C3          0      34.755  37.911 -23.683  1.00  0.00     0.067 C 
HETATM    4  C4          0      35.141  38.612 -22.547  1.00  0.00     0.103 C 
HETATM    5  O13         0      34.209  39.010 -21.699  1.00  0.00    -0.307 OA
HETATM    6  C14         0      32.939  38.714 -21.867  1.00  0.00     0.107 C 
HETATM    7  C15         0      32.031  38.768 -20.819  1.00  0.00     0.049 C 
HETATM    8  C16         0      30.761  38.216 -20.935  1.00  0.00     0.093 C 
HETATM    9  C18         0      30.284  38.111 -22.236  1.00  0.00     0.048 C 
HETATM   10  C19         0      31.162  38.101 -23.311  1.00  0.00     0.096 C 
HETATM   11  C21         0      32.508  38.212 -23.090  1.00  0.00     0.084 C 
ENDROOT
BRANCH  10  12
HETATM   12  O20         0      30.742  37.571 -24.527  1.00  0.00    -0.359 OA
HETATM   13  H20         0      30.952  38.052 -25.319  1.00  0.00     0.218 HD
ENDBRANCH  10  12
BRANCH   4  14
HETATM   14  C5          0      36.498  38.382 -22.046  1.00  0.00     0.025 C 
HETATM   15  C6          0      36.774  38.136 -20.709  1.00  0.00     0.004 C 
HETATM   16  C7          0      37.764  37.203 -20.416  1.00  0.00     0.026 C 
HETATM   17  C8          0      38.546  36.632 -21.414  1.00  0.00     0.112 C 
HETATM   18  C10         0      38.634  37.379 -22.581  1.00  0.00     0.112 C 
HETATM   19  C12         0      37.590  38.242 -22.893  1.00  0.00     0.028 C 
BRANCH  17  20
HETATM   20  O9          0      39.004  35.332 -21.298  1.00  0.00    -0.357 OA
HETATM   21  H9          0      39.921  35.102 -21.197  1.00  0.00     0.218 HD
ENDBRANCH  17  20
BRANCH  18  22
HETATM   22  O11         0      39.548  36.952 -23.533  1.00  0.00    -0.357 OA
HETATM   23  H11         0      39.403  36.093 -23.913  1.00  0.00     0.218 HD
ENDBRANCH  18  22
ENDBRANCH   4  14
BRANCH   8  24
HETATM   24  O17         0      30.169  37.520 -19.876  1.00  0.00    -0.359 OA
HETATM   25  H17         0      29.706  37.970 -19.179  1.00  0.00     0.218 HD
ENDBRANCH   8  24
TORSDOF 5
ENDMDL
MODEL 6
REMARK VINA RESULT:      -2.2      2.123      6.816
REMARK  5 active torsions:
REMARK  status: ('A' for Active; 'I' for Inactive)
REMARK    1  A    between atoms: C4_4  and  C5_5 
REMARK    2  A    between atoms: C8_8  and  O9_9 
REMARK    3  A    between atoms: C10_11  and  O11_12 
REMARK    4  A    between atoms: C16_18  and  O17_19 
REMARK    5  A    between atoms: C19_22  and  O20_23 
ROOT
HETATM    1  O1          0      32.881  35.060 -22.087  1.00  0.00    -0.286 OA
HETATM    2  C2          0      33.062  36.285 -21.845  1.00  0.00     0.201 C 
HETATM    3  C3          0      32.026  37.148 -21.530  1.00  0.00     0.067 C 
HETATM    4  C4          0      32.239  38.513 -21.369  1.00  0.00     0.103 C 
HETATM    5  O13         0      33.466  38.984 -21.502  1.00  0.00    -0.307 OA
HETATM    6  C14         0      34.478  38.214 -21.837  1.00  0.00     0.107 C 
HETATM    7  C15         0      35.652  38.736 -22.361  1.00  0.00     0.049 C 
HETATM    8  C16         0      36.609  37.915 -22.946  1.00  0.00     0.093 C 
HETATM    9  C18         0      36.593  36.594 -22.514  1.00  0.00     0.048 C 
HETATM   10  C19         0      35.449  36.053 -21.941  1.00  0.00     0.096 C 
HETATM   11  C21         0      34.335  36.831 -21.786  1.00  0.00     0.084 C 
ENDROOT
BRANCH  10  12
HETATM   12  O20         0      35.289  34.671 -21.918  1.00  0.00    -0.359 OA
HETATM   13  H20         0      36.071  34.132 -21.924  1.00  0.00     0.218 HD
ENDBRANCH  10  12
BRANCH   4  14
HETATM   14  C5          0      31.109  39.403 -21.641  1.00  0.00     0.025 C 
HETATM   15  C6          0      30.722  39.757 -22.925  1.00  0.00     0.004 C 
HETATM   16  C7          0      29.359  39.863 -23.182  1.00  0.00     0.026 C 
HETATM   17  C8          0      28.415  39.752 -22.167  1.00  0.00     0.112 C 
HETATM   18  C10         0      28.896  40.034 -20.895  1.00  0.00     0.112 C 
HETATM   19  C12         0      30.248  39.839 -20.642  1.00  0.00     0.028 C 
BRANCH  17  20
HETATM   20  O9          0      27.171  39.198 -22.413  1.00  0.00    -0.357 OA
HETATM   21  H9          0      26.352  39.660 -22.277  1.00  0.00     0.218 HD
ENDBRANCH  17  20
BRANCH  18  22
HETATM   22  O11         0      27.959  40.123 -19.875  1.00  0.00    -0.357 OA
HETATM   23  H11         0      27.864  39.365 -19.311  1.00  0.00     0.218 HD
ENDBRANCH  18  22
ENDBRANCH   4  14
BRANCH   8  24
HETATM   24  O17         0      37.292  38.301 -24.104  1.00  0.00    -0.359 OA
HETATM   25  H17         0      37.306  39.205 -24.398  1.00  0.00     0.218 HD
ENDBRANCH   8  24
TORSDOF 5
ENDMDL
MODEL 7
REMARK VINA RESULT:      -2.1      2.166      6.551
REMARK  5 active torsions:
REMARK  status: ('A' for Active; 'I' for Inactive)
REMARK    1  A    between atoms: C4_4  and  C5_5 
REMARK    2  A    between atoms: C8_8  and  O9_9 
REMARK    3  A    between atoms: C10_11  and  O11_12 
REMARK    4  A    between atoms: C16_18  and  O17_19 
REMARK    5  A    between atoms: C19_22  and  O20_23 
ROOT
HETATM    1  O1          0      35.378  36.190 -26.063  1.00  0.00    -0.286 OA
HETATM    2  C2          0      34.771  36.874 -25.193  1.00  0.00     0.201 C 
HETATM    3  C3          0      33.537  37.459 -25.425  1.00  0.00     0.067 C 
HETATM    4  C4          0      32.938  38.292 -24.487  1.00  0.00     0.103 C 
HETATM    5  O13         0      33.560  38.508 -23.342  1.00  0.00    -0.307 OA
HETATM    6  C14         0      34.749  38.008 -23.086  1.00  0.00     0.107 C 
HETATM    7  C15         0      35.566  38.535 -22.096  1.00  0.00     0.049 C 
HETATM    8  C16         0      36.905  38.178 -22.000  1.00  0.00     0.093 C 
HETATM    9  C18         0      37.224  36.942 -22.549  1.00  0.00     0.048 C 
HETATM   10  C19         0      36.403  36.364 -23.509  1.00  0.00     0.096 C 
HETATM   11  C21         0      35.263  37.008 -23.904  1.00  0.00     0.084 C 
ENDROOT
BRANCH  10  12
HETATM   12  O20         0      36.924  35.385 -24.349  1.00  0.00    -0.359 OA
HETATM   13  H20         0      37.868  35.340 -24.449  1.00  0.00     0.218 HD
ENDBRANCH  10  12
BRANCH   4  14
HETATM   14  C5          0      32.011  39.307 -24.989  1.00  0.00     0.025 C 
HETATM   15  C6          0      32.092  39.831 -26.271  1.00  0.00     0.004 C 
HETATM   16  C7          0      30.898  40.090 -26.938  1.00  0.00     0.026 C 
HETATM   17  C8          0      29.666  39.960 -26.306  1.00  0.00     0.112 C 
HETATM   18  C10         0      29.712  40.058 -24.922  1.00  0.00     0.112 C 
HETATM   19  C12         0      30.891  39.712 -24.274  1.00  0.00     0.028 C 
BRANCH  17  20
HETATM   20  O9          0      28.547  39.554 -27.011  1.00  0.00    -0.357 OA
HETATM   21  H9          0      28.252  38.652 -27.060  1.00  0.00     0.218 HD
ENDBRANCH  17  20
BRANCH  18  22
HETATM   22  O11         0      28.496  40.125 -24.256  1.00  0.00    -0.357 OA
HETATM   23  H11         0      27.995  39.320 -24.195  1.00  0.00     0.218 HD
ENDBRANCH  18  22
ENDBRANCH   4  14
BRANCH   8  24
HETATM   24  O17         0      37.891  39.120 -21.688  1.00  0.00    -0.359 OA
HETATM   25  H17         0      38.489  38.996 -20.961  1.00  0.00     0.218 HD
ENDBRANCH   8  24
TORSDOF 5
ENDMDL
MODEL 8
REMARK VINA RESULT:      -2.0      1.768      6.658
REMARK  5 active torsions:
REMARK  status: ('A' for Active; 'I' for Inactive)
REMARK    1  A    between atoms: C4_4  and  C5_5 
REMARK    2  A    between atoms: C8_8  and  O9_9 
REMARK    3  A    between atoms: C10_11  and  O11_12 
REMARK    4  A    between atoms: C16_18  and  O17_19 
REMARK    5  A    between atoms: C19_22  and  O20_23 
ROOT
HETATM    1  O1          0      35.250  36.166 -24.915  1.00  0.00    -0.286 OA
HETATM    2  C2          0      34.925  36.702 -23.821  1.00  0.00     0.201 C 
HETATM    3  C3          0      33.632  37.109 -23.540  1.00  0.00     0.067 C 
HETATM    4  C4          0      33.322  37.790 -22.368  1.00  0.00     0.103 C 
HETATM    5  O13         0      34.287  38.030 -21.498  1.00  0.00    -0.307 OA
HETATM    6  C14         0      35.538  37.698 -21.733  1.00  0.00     0.107 C 
HETATM    7  C15         0      36.591  38.283 -21.044  1.00  0.00     0.049 C 
HETATM    8  C16         0      37.906  38.122 -21.464  1.00  0.00     0.093 C 
HETATM    9  C18         0      38.145  36.980 -22.219  1.00  0.00     0.048 C 
HETATM   10  C19         0      37.106  36.343 -22.883  1.00  0.00     0.096 C 
HETATM   11  C21         0      35.833  36.833 -22.781  1.00  0.00     0.084 C 
ENDROOT
BRANCH  10  12
HETATM   12  O20         0      37.397  35.501 -23.952  1.00  0.00    -0.359 OA
HETATM   13  H20         0      37.308  34.565 -23.819  1.00  0.00     0.218 HD
ENDBRANCH  10  12
BRANCH   4  14
HETATM   14  C5          0      32.163  38.684 -22.400  1.00  0.00     0.025 C 
HETATM   15  C6          0      31.403  38.890 -23.542  1.00  0.00     0.004 C 
HETATM   16  C7          0      30.027  39.017 -23.386  1.00  0.00     0.026 C 
HETATM   17  C8          0      29.437  39.074 -22.128  1.00  0.00     0.112 C 
HETATM   18  C10         0      30.283  39.493 -21.110  1.00  0.00     0.112 C 
HETATM   19  C12         0      31.648  39.277 -21.254  1.00  0.00     0.028 C 
BRANCH  17  20
HETATM   20  O9          0      28.177  38.545 -21.911  1.00  0.00    -0.357 OA
HETATM   21  H9          0      27.968  37.622 -22.006  1.00  0.00     0.218 HD
ENDBRANCH  17  20
BRANCH  18  22
HETATM   22  O11         0      29.702  39.748 -19.876  1.00  0.00    -0.357 OA
HETATM   23  H11         0      29.883  39.127 -19.179  1.00  0.00     0.218 HD
ENDBRANCH  18  22
ENDBRANCH   4  14
BRANCH   8  24
HETATM   24  O17         0      38.819  39.181 -21.422  1.00  0.00    -0.359 OA
HETATM   25  H17         0      39.399  39.370 -22.150  1.00  0.00     0.218 HD
ENDBRANCH   8  24
TORSDOF 5
ENDMDL
MODEL 9
REMARK VINA RESULT:      -1.7      3.467      5.509
REMARK  5 active torsions:
REMARK  status: ('A' for Active; 'I' for Inactive)
REMARK    1  A    between atoms: C4_4  and  C5_5 
REMARK    2  A    between atoms: C8_8  and  O9_9 
REMARK    3  A    between atoms: C10_11  and  O11_12 
REMARK    4  A    between atoms: C16_18  and  O17_19 
REMARK    5  A    between atoms: C19_22  and  O20_23 
ROOT
HETATM    1  O1          0      33.560  36.403 -22.713  1.00  0.00    -0.286 OA
HETATM    2  C2          0      34.585  36.964 -23.187  1.00  0.00     0.201 C 
HETATM    3  C3          0      34.868  36.990 -24.542  1.00  0.00     0.067 C 
HETATM    4  C4          0      36.055  37.525 -25.029  1.00  0.00     0.103 C 
HETATM    5  O13         0      36.919  38.037 -24.171  1.00  0.00    -0.307 OA
HETATM    6  C14         0      36.717  38.005 -22.872  1.00  0.00     0.107 C 
HETATM    7  C15         0      37.757  38.162 -21.966  1.00  0.00     0.049 C 
HETATM    8  C16         0      37.588  37.875 -20.617  1.00  0.00     0.093 C 
HETATM    9  C18         0      36.278  37.954 -20.160  1.00  0.00     0.048 C 
HETATM   10  C19         0      35.214  37.847 -21.045  1.00  0.00     0.096 C 
HETATM   11  C21         0      35.457  37.680 -22.381  1.00  0.00     0.084 C 
ENDROOT
BRANCH  10  12
HETATM   12  O20         0      33.959  37.491 -20.561  1.00  0.00    -0.359 OA
HETATM   13  H20         0      33.479  38.134 -20.053  1.00  0.00     0.218 HD
ENDBRANCH  10  12
BRANCH   4  14
HETATM   14  C5          0      36.552  37.003 -26.303  1.00  0.00     0.025 C 
HETATM   15  C6          0      36.108  37.470 -27.532  1.00  0.00     0.004 C 
HETATM   16  C7          0      37.046  37.591 -28.552  1.00  0.00     0.026 C 
HETATM   17  C8          0      38.352  37.137 -28.401  1.00  0.00     0.112 C 
HETATM   18  C10         0      38.515  36.154 -27.434  1.00  0.00     0.112 C 
HETATM   19  C12         0      37.612  36.109 -26.379  1.00  0.00     0.028 C 
BRANCH  17  20
HETATM   20  O9          0      39.404  37.784 -29.024  1.00  0.00    -0.357 OA
HETATM   21  H9          0      39.562  37.754 -29.960  1.00  0.00     0.218 HD
ENDBRANCH  17  20
BRANCH  18  22
HETATM   22  O11         0      39.755  35.534 -27.372  1.00  0.00    -0.357 OA
HETATM   23  H11         0      40.206  35.391 -28.196  1.00  0.00     0.218 HD
ENDBRANCH  18  22
ENDBRANCH   4  14
BRANCH   8  24
HETATM   24  O17         0      38.589  37.237 -19.876  1.00  0.00    -0.359 OA
HETATM   25  H17         0      39.179  36.607 -20.273  1.00  0.00     0.218 HD
ENDBRANCH   8  24
TORSDOF 5
ENDMDL
