MODEL 1
REMARK VINA RESULT:      -2.0      0.000      0.000
REMARK  5 active torsions:
REMARK  status: ('A' for Active; 'I' for Inactive)
REMARK    1  A    between atoms: C4_4  and  C5_5 
REMARK    2  A    between atoms: C8_8  and  O9_9 
REMARK    3  A    between atoms: C10_11  and  O11_12 
REMARK    4  A    between atoms: C16_18  and  O17_19 
REMARK    5  A    between atoms: C19_22  and  O20_23 
ROOT
HETATM    1  O1          0      33.183   8.847  18.907  1.00  0.00    -0.286 OA
HETATM    2  C2          0      33.153   9.120  17.675  1.00  0.00     0.201 C 
HETATM    3  C3          0      32.033   8.912  16.888  1.00  0.00     0.067 C 
HETATM    4  C4          0      32.058   9.124  15.515  1.00  0.00     0.103 C 
HETATM    5  O13         0      33.177   9.555  14.959  1.00  0.00    -0.307 OA
HETATM    6  C14         0      34.279   9.733  15.655  1.00  0.00     0.107 C 
HETATM    7  C15         0      35.526   9.790  15.048  1.00  0.00     0.049 C 
HETATM    8  C16         0      36.696   9.721  15.794  1.00  0.00     0.093 C 
HETATM    9  C18         0      36.572  10.125  17.118  1.00  0.00     0.048 C 
HETATM   10  C19         0      35.332  10.125  17.743  1.00  0.00     0.096 C 
HETATM   11  C21         0      34.220   9.740  17.044  1.00  0.00     0.084 C 
ENDROOT
BRANCH  10  12
HETATM   12  O20         0      35.270  10.100  19.132  1.00  0.00    -0.359 OA
HETATM   13  H20         0      34.564  10.573  19.555  1.00  0.00     0.218 HD
ENDBRANCH  10  12
BRANCH   4  14
HETATM   14  C5          0      31.120   8.351  14.700  1.00  0.00     0.025 C 
HETATM   15  C6          0      29.936   7.831  15.205  1.00  0.00     0.004 C 
HETATM   16  C7          0      28.817   7.857  14.379  1.00  0.00     0.026 C 
HETATM   17  C8          0      28.900   8.260  13.050  1.00  0.00     0.112 C 
HETATM   18  C10         0      30.163   8.144  12.487  1.00  0.00     0.112 C 
HETATM   19  C12         0      31.269   8.207  13.326  1.00  0.00     0.028 C 
BRANCH  17  20
HETATM   20  O9          0      27.844   8.916  12.442  1.00  0.00    -0.357 OA
HETATM   21  H9          0      26.972   8.549  12.359  1.00  0.00     0.218 HD
ENDBRANCH  17  20
BRANCH  18  22
HETATM   22  O11         0      30.263   8.352  11.118  1.00  0.00    -0.357 OA
HETATM   23  H11         0      30.850   7.780  10.638  1.00  0.00     0.218 HD
ENDBRANCH  18  22
ENDBRANCH   4  14
BRANCH   8  24
HETATM   24  O17         0      37.804   8.993  15.348  1.00  0.00    -0.359 OA
HETATM   25  H17         0      38.625   8.992  15.824  1.00  0.00     0.218 HD
ENDBRANCH   8  24
TORSDOF 5
ENDMDL
MODEL 2
REMARK VINA RESULT:      -1.8      2.083      7.189
REMARK  5 active torsions:
REMARK  status: ('A' for Active; 'I' for Inactive)
REMARK    1  A    between atoms: C4_4  and  C5_5 
REMARK    2  A    between atoms: C8_8  and  O9_9 
REMARK    3  A    between atoms: C10_11  and  O11_12 
REMARK    4  A    between atoms: C16_18  and  O17_19 
REMARK    5  A    between atoms: C19_22  and  O20_23 
ROOT
HETATM    1  O1          0      33.987   9.565  13.917  1.00  0.00    -0.286 OA
HETATM    2  C2          0      34.033   9.652  15.175  1.00  0.00     0.201 C 
HETATM    3  C3          0      35.200   9.930  15.866  1.00  0.00     0.067 C 
HETATM    4  C4          0      35.244   9.919  17.255  1.00  0.00     0.103 C 
HETATM    5  O13         0      34.135   9.656  17.924  1.00  0.00    -0.307 OA
HETATM    6  C14         0      33.010   9.349  17.317  1.00  0.00     0.107 C 
HETATM    7  C15         0      31.979   8.695  17.976  1.00  0.00     0.049 C 
HETATM    8  C16         0      30.908   8.150  17.279  1.00  0.00     0.093 C 
HETATM    9  C18         0      30.655   8.731  16.042  1.00  0.00     0.048 C 
HETATM   10  C19         0      31.651   9.432  15.376  1.00  0.00     0.096 C 
HETATM   11  C21         0      32.886   9.567  15.949  1.00  0.00     0.084 C 
ENDROOT
BRANCH  10  12
HETATM   12  O20         0      31.545   9.625  14.002  1.00  0.00    -0.359 OA
HETATM   13  H20         0      32.301   9.967  13.541  1.00  0.00     0.218 HD
ENDBRANCH  10  12
BRANCH   4  14
HETATM   14  C5          0      36.533   9.619  17.882  1.00  0.00     0.025 C 
HETATM   15  C6          0      36.674   8.695  18.907  1.00  0.00     0.004 C 
HETATM   16  C7          0      37.812   7.895  18.902  1.00  0.00     0.026 C 
HETATM   17  C8          0      38.841   8.096  17.989  1.00  0.00     0.112 C 
HETATM   18  C10         0      38.903   9.378  17.458  1.00  0.00     0.112 C 
HETATM   19  C12         0      37.732  10.125  17.397  1.00  0.00     0.028 C 
BRANCH  17  20
HETATM   20  O9          0      39.584   7.031  17.512  1.00  0.00    -0.357 OA
HETATM   21  H9          0      39.609   6.771  16.599  1.00  0.00     0.218 HD
ENDBRANCH  17  20
BRANCH  18  22
HETATM   22  O11         0      40.017   9.687  16.691  1.00  0.00    -0.357 OA
HETATM   23  H11         0      40.824   9.870  17.158  1.00  0.00     0.218 HD
ENDBRANCH  18  22
ENDBRANCH   4  14
BRANCH   8  24
HETATM   24  O17         0      30.358   6.913  17.637  1.00  0.00    -0.359 OA
HETATM   25  H17         0      29.783   6.821  18.387  1.00  0.00     0.218 HD
ENDBRANCH   8  24
TORSDOF 5
ENDMDL
MODEL 3
REMARK VINA RESULT:      -1.8      3.288      4.978
REMARK  5 active torsions:
REMARK  status: ('A' for Active; 'I' for Inactive)
REMARK    1  A    between atoms: C4_4  and  C5_5 
REMARK    2  A    between atoms: C8_8  and  O9_9 
REMARK    3  A    between atoms: C10_11  and  O11_12 
REMARK    4  A    between atoms: C16_18  and  O17_19 
REMARK    5  A    between atoms: C19_22  and  O20_23 
ROOT
HETATM    1  O1          0      32.387   9.651  15.045  1.00  0.00    -0.286 OA
HETATM    2  C2          0      33.575   9.847  14.668  1.00  0.00     0.201 C 
HETATM    3  C3          0      33.922  10.012  13.337  1.00  0.00     0.067 C 
HETATM    4  C4          0      35.249  10.124  12.940  1.00  0.00     0.103 C 
HETATM    5  O13         0      36.194  10.092  13.863  1.00  0.00    -0.307 OA
HETATM    6  C14         0      35.921   9.901  15.135  1.00  0.00     0.107 C 
HETATM    7  C15         0      36.888   9.472  16.034  1.00  0.00     0.049 C 
HETATM    8  C16         0      36.545   9.030  17.306  1.00  0.00     0.093 C 
HETATM    9  C18         0      35.343   9.524  17.795  1.00  0.00     0.048 C 
HETATM   10  C19         0      34.372  10.004  16.927  1.00  0.00     0.096 C 
HETATM   11  C21         0      34.607  10.007  15.579  1.00  0.00     0.084 C 
ENDROOT
BRANCH  10  12
HETATM   12  O20         0      33.051  10.081  17.358  1.00  0.00    -0.359 OA
HETATM   13  H20         0      32.843   9.736  18.218  1.00  0.00     0.218 HD
ENDBRANCH  10  12
BRANCH   4  14
HETATM   14  C5          0      35.579   9.695  11.579  1.00  0.00     0.025 C 
HETATM   15  C6          0      36.873   9.710  11.079  1.00  0.00     0.004 C 
HETATM   16  C7          0      37.256   8.660  10.251  1.00  0.00     0.026 C 
HETATM   17  C8          0      36.346   7.699   9.823  1.00  0.00     0.112 C 
HETATM   18  C10         0      35.020   8.109   9.841  1.00  0.00     0.112 C 
HETATM   19  C12         0      34.647   9.101  10.739  1.00  0.00     0.028 C 
BRANCH  17  20
HETATM   20  O9          0      36.744   6.391   9.612  1.00  0.00    -0.357 OA
HETATM   21  H9          0      36.166   5.709   9.291  1.00  0.00     0.218 HD
ENDBRANCH  17  20
BRANCH  18  22
HETATM   22  O11         0      34.093   7.262   9.250  1.00  0.00    -0.357 OA
HETATM   23  H11         0      33.293   7.659   8.924  1.00  0.00     0.218 HD
ENDBRANCH  18  22
ENDBRANCH   4  14
BRANCH   8  24
HETATM   24  O17         0      37.180   7.928  17.890  1.00  0.00    -0.359 OA
HETATM   25  H17         0      36.730   7.101  18.014  1.00  0.00     0.218 HD
ENDBRANCH   8  24
TORSDOF 5
ENDMDL
MODEL 4
REMARK VINA RESULT:      -1.8      2.744      5.124
REMARK  5 active torsions:
REMARK  status: ('A' for Active; 'I' for Inactive)
REMARK    1  A    between atoms: C4_4  and  C5_5 
REMARK    2  A    between atoms: C8_8  and  O9_9 
REMARK    3  A    between atoms: C10_11  and  O11_12 
REMARK    4  A    between atoms: C16_18  and  O17_19 
REMARK    5  A    between atoms: C19_22  and  O20_23 
ROOT
HETATM    1  O1          0      33.613   9.890  17.574  1.00  0.00    -0.286 OA
HETATM    2  C2          0      32.994   9.285  16.657  1.00  0.00     0.201 C 
HETATM    3  C3          0      33.514   9.117  15.385  1.00  0.00     0.067 C 
HETATM    4  C4          0      32.769   8.537  14.364  1.00  0.00     0.103 C 
HETATM    5  O13         0      31.544   8.121  14.630  1.00  0.00    -0.307 OA
HETATM    6  C14         0      30.989   8.290  15.810  1.00  0.00     0.107 C 
HETATM    7  C15         0      29.614   8.233  15.986  1.00  0.00     0.049 C 
HETATM    8  C16         0      29.019   8.660  17.167  1.00  0.00     0.093 C 
HETATM    9  C18         0      29.843   8.626  18.285  1.00  0.00     0.048 C 
HETATM   10  C19         0      31.224   8.635  18.144  1.00  0.00     0.096 C 
HETATM   11  C21         0      31.779   8.661  16.893  1.00  0.00     0.084 C 
ENDROOT
BRANCH  10  12
HETATM   12  O20         0      32.015   9.036  19.216  1.00  0.00    -0.359 OA
HETATM   13  H20         0      32.719   8.460  19.490  1.00  0.00     0.218 HD
ENDBRANCH  10  12
BRANCH   4  14
HETATM   14  C5          0      33.100   8.923  12.991  1.00  0.00     0.025 C 
HETATM   15  C6          0      33.717  10.125  12.676  1.00  0.00     0.004 C 
HETATM   16  C7          0      34.669  10.115  11.661  1.00  0.00     0.026 C 
HETATM   17  C8          0      34.905   8.979  10.894  1.00  0.00     0.112 C 
HETATM   18  C10         0      33.849   8.079  10.851  1.00  0.00     0.112 C 
HETATM   19  C12         0      32.960   8.052  11.918  1.00  0.00     0.028 C 
BRANCH  17  20
HETATM   20  O9          0      36.171   8.703  10.409  1.00  0.00    -0.357 OA
HETATM   21  H9          0      36.336   8.310   9.559  1.00  0.00     0.218 HD
ENDBRANCH  17  20
BRANCH  18  22
HETATM   22  O11         0      33.958   7.026   9.953  1.00  0.00    -0.357 OA
HETATM   23  H11         0      33.167   6.530   9.774  1.00  0.00     0.218 HD
ENDBRANCH  18  22
ENDBRANCH   4  14
BRANCH   8  24
HETATM   24  O17         0      27.817   9.376  17.161  1.00  0.00    -0.359 OA
HETATM   25  H17         0      27.059   9.076  16.672  1.00  0.00     0.218 HD
ENDBRANCH   8  24
TORSDOF 5
ENDMDL
MODEL 5
REMARK VINA RESULT:      -1.7      1.869      2.974
REMARK  5 active torsions:
REMARK  status: ('A' for Active; 'I' for Inactive)
REMARK    1  A    between atoms: C4_4  and  C5_5 
REMARK    2  A    between atoms: C8_8  and  O9_9 
REMARK    3  A    between atoms: C10_11  and  O11_12 
REMARK    4  A    between atoms: C16_18  and  O17_19 
REMARK    5  A    between atoms: C19_22  and  O20_23 
ROOT
HETATM    1  O1          0      30.890   8.643  16.659  1.00  0.00    -0.286 OA
HETATM    2  C2          0      31.513   9.161  15.691  1.00  0.00     0.201 C 
HETATM    3  C3          0      30.933   9.371  14.452  1.00  0.00     0.067 C 
HETATM    4  C4          0      31.670   9.849  13.374  1.00  0.00     0.103 C 
HETATM    5  O13         0      32.950  10.125  13.553  1.00  0.00    -0.307 OA
HETATM    6  C14         0      33.558   9.909  14.699  1.00  0.00     0.107 C 
HETATM    7  C15         0      34.939   9.811  14.786  1.00  0.00     0.049 C 
HETATM    8  C16         0      35.558   9.334  15.935  1.00  0.00     0.093 C 
HETATM    9  C18         0      34.818   9.476  17.102  1.00  0.00     0.048 C 
HETATM   10  C19         0      33.438   9.623  17.049  1.00  0.00     0.096 C 
HETATM   11  C21         0      32.804   9.645  15.837  1.00  0.00     0.084 C 
ENDROOT
BRANCH  10  12
HETATM   12  O20         0      32.679   9.329  18.177  1.00  0.00    -0.359 OA
HETATM   13  H20         0      32.705   8.441  18.513  1.00  0.00     0.218 HD
ENDBRANCH  10  12
BRANCH   4  14
HETATM   14  C5          0      31.208   9.486  12.033  1.00  0.00     0.025 C 
HETATM   15  C6          0      31.752  10.028  10.878  1.00  0.00     0.004 C 
HETATM   16  C7          0      31.908   9.185   9.782  1.00  0.00     0.026 C 
HETATM   17  C8          0      31.417   7.884   9.787  1.00  0.00     0.112 C 
HETATM   18  C10         0      30.378   7.659  10.681  1.00  0.00     0.112 C 
HETATM   19  C12         0      30.296   8.462  11.812  1.00  0.00     0.028 C 
BRANCH  17  20
HETATM   20  O9          0      32.074   6.876   9.103  1.00  0.00    -0.357 OA
HETATM   21  H9          0      31.977   6.721   8.171  1.00  0.00     0.218 HD
ENDBRANCH  17  20
BRANCH  18  22
HETATM   22  O11         0      29.728   6.436  10.594  1.00  0.00    -0.357 OA
HETATM   23  H11         0      29.999   5.761  11.205  1.00  0.00     0.218 HD
ENDBRANCH  18  22
ENDBRANCH   4  14
BRANCH   8  24
HETATM   24  O17         0      36.668   8.485  15.866  1.00  0.00    -0.359 OA
HETATM   25  H17         0      36.731   7.701  16.399  1.00  0.00     0.218 HD
ENDBRANCH   8  24
TORSDOF 5
ENDMDL
MODEL 6
REMARK VINA RESULT:      -1.7      2.184      7.252
REMARK  5 active torsions:
REMARK  status: ('A' for Active; 'I' for Inactive)
REMARK    1  A    between atoms: C4_4  and  C5_5 
REMARK    2  A    between atoms: C8_8  and  O9_9 
REMARK    3  A    between atoms: C10_11  and  O11_12 
REMARK    4  A    between atoms: C16_18  and  O17_19 
REMARK    5  A    between atoms: C19_22  and  O20_23 
ROOT
HETATM    1  O1          0      32.847   8.182   9.825  1.00  0.00    -0.286 OA
HETATM    2  C2          0      32.398   8.771  10.846  1.00  0.00     0.201 C 
HETATM    3  C3          0      33.058   8.774  12.062  1.00  0.00     0.067 C 
HETATM    4  C4          0      32.492   9.343  13.197  1.00  0.00     0.103 C 
HETATM    5  O13         0      31.303   9.910  13.097  1.00  0.00    -0.307 OA
HETATM    6  C14         0      30.617   9.902  11.976  1.00  0.00     0.107 C 
HETATM    7  C15         0      29.247  10.123  11.955  1.00  0.00     0.049 C 
HETATM    8  C16         0      28.492   9.864  10.817  1.00  0.00     0.093 C 
HETATM    9  C18         0      29.199   9.903   9.622  1.00  0.00     0.048 C 
HETATM   10  C19         0      30.576   9.732   9.611  1.00  0.00     0.096 C 
HETATM   11  C21         0      31.246   9.541  10.789  1.00  0.00     0.084 C 
ENDROOT
BRANCH  10  12
HETATM   12  O20         0      31.204   9.340   8.433  1.00  0.00    -0.359 OA
HETATM   13  H20         0      30.666   8.969   7.744  1.00  0.00     0.218 HD
ENDBRANCH  10  12
BRANCH   4  14
HETATM   14  C5          0      32.911   8.809  14.495  1.00  0.00     0.025 C 
HETATM   15  C6          0      34.226   8.471  14.779  1.00  0.00     0.004 C 
HETATM   16  C7          0      34.703   8.754  16.055  1.00  0.00     0.026 C 
HETATM   17  C8          0      33.866   9.232  17.057  1.00  0.00     0.112 C 
HETATM   18  C10         0      32.521   8.937  16.879  1.00  0.00     0.112 C 
HETATM   19  C12         0      32.053   8.742  15.585  1.00  0.00     0.028 C 
BRANCH  17  20
HETATM   20  O9          0      34.340  10.107  18.019  1.00  0.00    -0.357 OA
HETATM   21  H9          0      34.896  10.853  17.826  1.00  0.00     0.218 HD
ENDBRANCH  17  20
BRANCH  18  22
HETATM   22  O11         0      31.669   9.224  17.936  1.00  0.00    -0.357 OA
HETATM   23  H11         0      32.074   9.484  18.756  1.00  0.00     0.218 HD
ENDBRANCH  18  22
ENDBRANCH   4  14
BRANCH   8  24
HETATM   24  O17         0      27.221   9.285  10.903  1.00  0.00    -0.359 OA
HETATM   25  H17         0      26.811   8.868  10.154  1.00  0.00     0.218 HD
ENDBRANCH   8  24
TORSDOF 5
ENDMDL
MODEL 7
REMARK VINA RESULT:      -1.6      2.024      2.790
REMARK  5 active torsions:
REMARK  status: ('A' for Active; 'I' for Inactive)
REMARK    1  A    between atoms: C4_4  and  C5_5 
REMARK    2  A    between atoms: C8_8  and  O9_9 
REMARK    3  A    between atoms: C10_11  and  O11_12 
REMARK    4  A    between atoms: C16_18  and  O17_19 
REMARK    5  A    between atoms: C19_22  and  O20_23 
ROOT
HETATM    1  O1          0      35.638   8.978  18.919  1.00  0.00    -0.286 OA
HETATM    2  C2          0      35.356   9.377  17.756  1.00  0.00     0.201 C 
HETATM    3  C3          0      34.064   9.384  17.258  1.00  0.00     0.067 C 
HETATM    4  C4          0      33.794   9.732  15.939  1.00  0.00     0.103 C 
HETATM    5  O13         0      34.799  10.083  15.157  1.00  0.00    -0.307 OA
HETATM    6  C14         0      36.048  10.057  15.569  1.00  0.00     0.107 C 
HETATM    7  C15         0      37.111  10.029  14.678  1.00  0.00     0.049 C 
HETATM    8  C16         0      38.403   9.747  15.105  1.00  0.00     0.093 C 
HETATM    9  C18         0      38.652  10.024  16.444  1.00  0.00     0.048 C 
HETATM   10  C19         0      37.607  10.106  17.354  1.00  0.00     0.096 C 
HETATM   11  C21         0      36.320   9.929  16.927  1.00  0.00     0.084 C 
ENDROOT
BRANCH  10  12
HETATM   12  O20         0      37.872   9.946  18.710  1.00  0.00    -0.359 OA
HETATM   13  H20         0      37.590  10.633  19.303  1.00  0.00     0.218 HD
ENDBRANCH  10  12
BRANCH   4  14
HETATM   14  C5          0      32.591   9.163  15.329  1.00  0.00     0.025 C 
HETATM   15  C6          0      32.563   8.684  14.027  1.00  0.00     0.004 C 
HETATM   16  C7          0      31.816   7.537  13.778  1.00  0.00     0.026 C 
HETATM   17  C8          0      31.016   6.961  14.759  1.00  0.00     0.112 C 
HETATM   18  C10         0      30.622   7.828  15.769  1.00  0.00     0.112 C 
HETATM   19  C12         0      31.432   8.921  16.055  1.00  0.00     0.028 C 
BRANCH  17  20
HETATM   20  O9          0      30.827   5.591  14.805  1.00  0.00    -0.357 OA
HETATM   21  H9          0      30.103   5.143  14.383  1.00  0.00     0.218 HD
ENDBRANCH  17  20
BRANCH  18  22
HETATM   22  O11         0      29.673   7.358  16.667  1.00  0.00    -0.357 OA
HETATM   23  H11         0      29.735   7.672  17.561  1.00  0.00     0.218 HD
ENDBRANCH  18  22
ENDBRANCH   4  14
BRANCH   8  24
HETATM   24  O17         0      39.262   8.942  14.348  1.00  0.00    -0.359 OA
HETATM   25  H17         0      40.202   8.955  14.479  1.00  0.00     0.218 HD
ENDBRANCH   8  24
TORSDOF 5
ENDMDL
MODEL 8
REMARK VINA RESULT:      -1.6      1.964      6.790
REMARK  5 active torsions:
REMARK  status: ('A' for Active; 'I' for Inactive)
REMARK    1  A    between atoms: C4_4  and  C5_5 
REMARK    2  A    between atoms: C8_8  and  O9_9 
REMARK    3  A    between atoms: C10_11  and  O11_12 
REMARK    4  A    between atoms: C16_18  and  O17_19 
REMARK    5  A    between atoms: C19_22  and  O20_23 
ROOT
HETATM    1  O1          0      33.151   8.448  11.522  1.00  0.00    -0.286 OA
HETATM    2  C2          0      32.969   9.024  12.629  1.00  0.00     0.201 C 
HETATM    3  C3          0      33.964   9.149  13.583  1.00  0.00     0.067 C 
HETATM    4  C4          0      33.709   9.697  14.835  1.00  0.00     0.103 C 
HETATM    5  O13         0      32.488  10.125  15.104  1.00  0.00    -0.307 OA
HETATM    6  C14         0      31.498   9.996  14.248  1.00  0.00     0.107 C 
HETATM    7  C15         0      30.172  10.063  14.649  1.00  0.00     0.049 C 
HETATM    8  C16         0      29.141   9.676  13.801  1.00  0.00     0.093 C 
HETATM    9  C18         0      29.439   9.744  12.446  1.00  0.00     0.048 C 
HETATM   10  C19         0      30.757   9.727  12.012  1.00  0.00     0.096 C 
HETATM   11  C21         0      31.773   9.659  12.927  1.00  0.00     0.084 C 
ENDROOT
BRANCH  10  12
HETATM   12  O20         0      31.037   9.359  10.699  1.00  0.00    -0.359 OA
HETATM   13  H20         0      31.734   8.731  10.551  1.00  0.00     0.218 HD
ENDBRANCH  10  12
BRANCH   4  14
HETATM   14  C5          0      34.565   9.266  15.942  1.00  0.00     0.025 C 
HETATM   15  C6          0      35.510  10.094  16.529  1.00  0.00     0.004 C 
HETATM   16  C7          0      35.675  10.009  17.907  1.00  0.00     0.026 C 
HETATM   17  C8          0      35.020   9.042  18.662  1.00  0.00     0.112 C 
HETATM   18  C10         0      34.631   7.916  17.949  1.00  0.00     0.112 C 
HETATM   19  C12         0      34.390   8.048  16.586  1.00  0.00     0.028 C 
BRANCH  17  20
HETATM   20  O9          0      34.619   9.306  19.959  1.00  0.00    -0.357 OA
HETATM   21  H9          0      33.751   9.111  20.294  1.00  0.00     0.218 HD
ENDBRANCH  17  20
BRANCH  18  22
HETATM   22  O11         0      34.146   6.843  18.683  1.00  0.00    -0.357 OA
HETATM   23  H11         0      34.681   6.542  19.408  1.00  0.00     0.218 HD
ENDBRANCH  18  22
ENDBRANCH   4  14
BRANCH   8  24
HETATM   24  O17         0      28.034   8.964  14.277  1.00  0.00    -0.359 OA
HETATM   25  H17         0      28.110   8.341  14.990  1.00  0.00     0.218 HD
ENDBRANCH   8  24
TORSDOF 5
ENDMDL
MODEL 9
REMARK VINA RESULT:      -1.5      2.277      6.514
REMARK  5 active torsions:
REMARK  status: ('A' for Active; 'I' for Inactive)
REMARK    1  A    between atoms: C4_4  and  C5_5 
REMARK    2  A    between atoms: C8_8  and  O9_9 
REMARK    3  A    between atoms: C10_11  and  O11_12 
REMARK    4  A    between atoms: C16_18  and  O17_19 
REMARK    5  A    between atoms: C19_22  and  O20_23 
ROOT
HETATM    1  O1          0      32.181   9.823  12.165  1.00  0.00    -0.286 OA
HETATM    2  C2          0      32.926   9.932  13.177  1.00  0.00     0.201 C 
HETATM    3  C3          0      34.296  10.108  13.085  1.00  0.00     0.067 C 
HETATM    4  C4          0      35.106  10.122  14.215  1.00  0.00     0.103 C 
HETATM    5  O13         0      34.543   9.984  15.402  1.00  0.00    -0.307 OA
HETATM    6  C14         0      33.252   9.777  15.543  1.00  0.00     0.107 C 
HETATM    7  C15         0      32.721   9.242  16.708  1.00  0.00     0.049 C 
HETATM    8  C16         0      31.407   8.790  16.761  1.00  0.00     0.093 C 
HETATM    9  C18         0      30.550   9.367  15.832  1.00  0.00     0.048 C 
HETATM   10  C19         0      31.052   9.953  14.677  1.00  0.00     0.096 C 
HETATM   11  C21         0      32.403   9.977  14.460  1.00  0.00     0.084 C 
ENDROOT
BRANCH  10  12
HETATM   12  O20         0      30.212  10.125  13.582  1.00  0.00    -0.359 OA
HETATM   13  H20         0      30.040  11.011  13.288  1.00  0.00     0.218 HD
ENDBRANCH  10  12
BRANCH   4  14
HETATM   14  C5          0      36.501   9.710  14.044  1.00  0.00     0.025 C 
HETATM   15  C6          0      37.401   9.649  15.098  1.00  0.00     0.004 C 
HETATM   16  C7          0      38.313   8.599  15.106  1.00  0.00     0.026 C 
HETATM   17  C8          0      38.418   7.715  14.037  1.00  0.00     0.112 C 
HETATM   18  C10         0      37.961   8.215  12.825  1.00  0.00     0.112 C 
HETATM   19  C12         0      36.987   9.206  12.845  1.00  0.00     0.028 C 
BRANCH  17  20
HETATM   20  O9          0      38.754   6.389  14.244  1.00  0.00    -0.357 OA
HETATM   21  H9          0      39.234   5.862  13.616  1.00  0.00     0.218 HD
ENDBRANCH  17  20
BRANCH  18  22
HETATM   22  O11         0      38.215   7.451  11.695  1.00  0.00    -0.357 OA
HETATM   23  H11         0      38.083   6.513  11.771  1.00  0.00     0.218 HD
ENDBRANCH  18  22
ENDBRANCH   4  14
BRANCH   8  24
HETATM   24  O17         0      31.066   7.622  17.451  1.00  0.00    -0.359 OA
HETATM   25  H17         0      30.160   7.366  17.582  1.00  0.00     0.218 HD
ENDBRANCH   8  24
TORSDOF 5
ENDMDL
