MODEL 1
REMARK VINA RESULT:      -4.0      0.000      0.000
REMARK  5 active torsions:
REMARK  status: ('A' for Active; 'I' for Inactive)
REMARK    1  A    between atoms: C4_4  and  C5_5 
REMARK    2  A    between atoms: C8_8  and  O9_9 
REMARK    3  A    between atoms: C10_11  and  O11_12 
REMARK    4  A    between atoms: C16_18  and  O17_19 
REMARK    5  A    between atoms: C19_22  and  O20_23 
ROOT
HETATM    1  O1          0      45.392  71.652  21.077  1.00  0.00    -0.286 OA
HETATM    2  C2          0      44.799  71.040  22.007  1.00  0.00     0.201 C 
HETATM    3  C3          0      45.143  69.758  22.401  1.00  0.00     0.067 C 
HETATM    4  C4          0      44.408  69.069  23.358  1.00  0.00     0.103 C 
HETATM    5  O13         0      43.369  69.667  23.914  1.00  0.00    -0.307 OA
HETATM    6  C14         0      42.978  70.869  23.550  1.00  0.00     0.107 C 
HETATM    7  C15         0      41.698  71.333  23.819  1.00  0.00     0.049 C 
HETATM    8  C16         0      41.208  72.486  23.218  1.00  0.00     0.093 C 
HETATM    9  C18         0      42.179  73.389  22.801  1.00  0.00     0.048 C 
HETATM   10  C19         0      43.481  72.967  22.567  1.00  0.00     0.096 C 
HETATM   11  C21         0      43.815  71.655  22.766  1.00  0.00     0.084 C 
ENDROOT
BRANCH  10  12
HETATM   12  O20         0      44.310  73.736  21.757  1.00  0.00    -0.359 OA
HETATM   13  H20         0      43.927  74.479  21.306  1.00  0.00     0.218 HD
ENDBRANCH  10  12
BRANCH   4  14
HETATM   14  C5          0      44.425  67.606  23.290  1.00  0.00     0.025 C 
HETATM   15  C6          0      44.619  66.804  24.405  1.00  0.00     0.004 C 
HETATM   16  C7          0      43.882  65.626  24.487  1.00  0.00     0.026 C 
HETATM   17  C8          0      43.080  65.192  23.437  1.00  0.00     0.112 C 
HETATM   18  C10         0      43.438  65.690  22.191  1.00  0.00     0.112 C 
HETATM   19  C12         0      44.098  66.911  22.133  1.00  0.00     0.028 C 
BRANCH  17  20
HETATM   20  O9          0      41.909  64.497  23.680  1.00  0.00    -0.357 OA
HETATM   21  H9          0      41.353  64.648  24.436  1.00  0.00     0.218 HD
ENDBRANCH  17  20
BRANCH  18  22
HETATM   22  O11         0      42.794  65.145  21.089  1.00  0.00    -0.357 OA
HETATM   23  H11         0      43.240  64.437  20.637  1.00  0.00     0.218 HD
ENDBRANCH  18  22
ENDBRANCH   4  14
BRANCH   8  24
HETATM   24  O17         0      39.885  72.569  22.770  1.00  0.00    -0.359 OA
HETATM   25  H17         0      39.539  73.362  22.378  1.00  0.00     0.218 HD
ENDBRANCH   8  24
TORSDOF 5
ENDMDL
MODEL 2
REMARK VINA RESULT:      -3.8      2.378      2.412
REMARK  5 active torsions:
REMARK  status: ('A' for Active; 'I' for Inactive)
REMARK    1  A    between atoms: C4_4  and  C5_5 
REMARK    2  A    between atoms: C8_8  and  O9_9 
REMARK    3  A    between atoms: C10_11  and  O11_12 
REMARK    4  A    between atoms: C16_18  and  O17_19 
REMARK    5  A    between atoms: C19_22  and  O20_23 
ROOT
HETATM    1  O1          0      44.663  71.668  25.719  1.00  0.00    -0.286 OA
HETATM    2  C2          0      43.717  70.862  25.508  1.00  0.00     0.201 C 
HETATM    3  C3          0      43.868  69.488  25.592  1.00  0.00     0.067 C 
HETATM    4  C4          0      42.836  68.619  25.255  1.00  0.00     0.103 C 
HETATM    5  O13         0      41.681  69.127  24.865  1.00  0.00    -0.307 OA
HETATM    6  C14         0      41.496  70.422  24.732  1.00  0.00     0.107 C 
HETATM    7  C15         0      40.462  70.938  23.963  1.00  0.00     0.049 C 
HETATM    8  C16         0      40.421  72.284  23.618  1.00  0.00     0.093 C 
HETATM    9  C18         0      41.109  73.131  24.478  1.00  0.00     0.048 C 
HETATM   10  C19         0      42.117  72.640  25.296  1.00  0.00     0.096 C 
HETATM   11  C21         0      42.426  71.307  25.267  1.00  0.00     0.084 C 
ENDROOT
BRANCH  10  12
HETATM   12  O20         0      43.067  73.518  25.807  1.00  0.00    -0.359 OA
HETATM   13  H20         0      43.475  73.299  26.636  1.00  0.00     0.218 HD
ENDBRANCH  10  12
BRANCH   4  14
HETATM   14  C5          0      43.212  67.283  24.789  1.00  0.00     0.025 C 
HETATM   15  C6          0      43.777  66.328  25.622  1.00  0.00     0.004 C 
HETATM   16  C7          0      43.385  65.005  25.445  1.00  0.00     0.026 C 
HETATM   17  C8          0      42.563  64.623  24.390  1.00  0.00     0.112 C 
HETATM   18  C10         0      42.580  65.483  23.301  1.00  0.00     0.112 C 
HETATM   19  C12         0      42.892  66.819  23.520  1.00  0.00     0.028 C 
BRANCH  17  20
HETATM   20  O9          0      41.659  63.585  24.536  1.00  0.00    -0.357 OA
HETATM   21  H9          0      41.894  62.720  24.851  1.00  0.00     0.218 HD
ENDBRANCH  17  20
BRANCH  18  22
HETATM   22  O11         0      41.929  65.056  22.152  1.00  0.00    -0.357 OA
HETATM   23  H11         0      42.179  65.472  21.336  1.00  0.00     0.218 HD
ENDBRANCH  18  22
ENDBRANCH   4  14
BRANCH   8  24
HETATM   24  O17         0      40.017  72.698  22.344  1.00  0.00    -0.359 OA
HETATM   25  H17         0      39.801  72.074  21.661  1.00  0.00     0.218 HD
ENDBRANCH   8  24
TORSDOF 5
ENDMDL
MODEL 3
REMARK VINA RESULT:      -3.5      4.157      6.399
REMARK  5 active torsions:
REMARK  status: ('A' for Active; 'I' for Inactive)
REMARK    1  A    between atoms: C4_4  and  C5_5 
REMARK    2  A    between atoms: C8_8  and  O9_9 
REMARK    3  A    between atoms: C10_11  and  O11_12 
REMARK    4  A    between atoms: C16_18  and  O17_19 
REMARK    5  A    between atoms: C19_22  and  O20_23 
ROOT
HETATM    1  O1          0      44.442  67.175  20.849  1.00  0.00    -0.286 OA
HETATM    2  C2          0      44.654  66.198  21.619  1.00  0.00     0.201 C 
HETATM    3  C3          0      45.620  65.239  21.365  1.00  0.00     0.067 C 
HETATM    4  C4          0      45.764  64.118  22.174  1.00  0.00     0.103 C 
HETATM    5  O13         0      44.968  63.984  23.221  1.00  0.00    -0.307 OA
HETATM    6  C14         0      44.011  64.846  23.486  1.00  0.00     0.107 C 
HETATM    7  C15         0      42.944  64.522  24.311  1.00  0.00     0.049 C 
HETATM    8  C16         0      41.817  65.331  24.384  1.00  0.00     0.093 C 
HETATM    9  C18         0      42.027  66.663  24.046  1.00  0.00     0.048 C 
HETATM   10  C19         0      43.112  67.028  23.260  1.00  0.00     0.096 C 
HETATM   11  C21         0      43.991  66.072  22.829  1.00  0.00     0.084 C 
ENDROOT
BRANCH  10  12
HETATM   12  O20         0      43.080  68.240  22.577  1.00  0.00    -0.359 OA
HETATM   13  H20         0      43.213  69.036  23.078  1.00  0.00     0.218 HD
ENDBRANCH  10  12
BRANCH   4  14
HETATM   14  C5          0      46.327  62.914  21.559  1.00  0.00     0.025 C 
HETATM   15  C6          0      46.665  62.845  20.215  1.00  0.00     0.004 C 
HETATM   16  C7          0      47.815  62.141  19.875  1.00  0.00     0.026 C 
HETATM   17  C8          0      48.534  61.417  20.821  1.00  0.00     0.112 C 
HETATM   18  C10         0      47.801  61.033  21.936  1.00  0.00     0.112 C 
HETATM   19  C12         0      46.704  61.804  22.303  1.00  0.00     0.028 C 
BRANCH  17  20
HETATM   20  O9          0      49.909  61.295  20.725  1.00  0.00    -0.357 OA
HETATM   21  H9          0      50.421  60.681  21.239  1.00  0.00     0.218 HD
ENDBRANCH  17  20
BRANCH  18  22
HETATM   22  O11         0      48.412  60.153  22.817  1.00  0.00    -0.357 OA
HETATM   23  H11         0      47.857  59.741  23.468  1.00  0.00     0.218 HD
ENDBRANCH  18  22
ENDBRANCH   4  14
BRANCH   8  24
HETATM   24  O17         0      40.530  64.786  24.458  1.00  0.00    -0.359 OA
HETATM   25  H17         0      40.180  64.442  25.272  1.00  0.00     0.218 HD
ENDBRANCH   8  24
TORSDOF 5
ENDMDL
MODEL 4
REMARK VINA RESULT:      -3.5      2.942      4.457
REMARK  5 active torsions:
REMARK  status: ('A' for Active; 'I' for Inactive)
REMARK    1  A    between atoms: C4_4  and  C5_5 
REMARK    2  A    between atoms: C8_8  and  O9_9 
REMARK    3  A    between atoms: C10_11  and  O11_12 
REMARK    4  A    between atoms: C16_18  and  O17_19 
REMARK    5  A    between atoms: C19_22  and  O20_23 
ROOT
HETATM    1  O1          0      43.303  75.456  20.392  1.00  0.00    -0.286 OA
HETATM    2  C2          0      43.373  75.070  21.591  1.00  0.00     0.201 C 
HETATM    3  C3          0      43.871  73.830  21.953  1.00  0.00     0.067 C 
HETATM    4  C4          0      43.841  73.390  23.271  1.00  0.00     0.103 C 
HETATM    5  O13         0      43.342  74.189  24.197  1.00  0.00    -0.307 OA
HETATM    6  C14         0      42.822  75.361  23.902  1.00  0.00     0.107 C 
HETATM    7  C15         0      41.957  76.015  24.767  1.00  0.00     0.049 C 
HETATM    8  C16         0      41.217  77.116  24.352  1.00  0.00     0.093 C 
HETATM    9  C18         0      41.759  77.817  23.282  1.00  0.00     0.048 C 
HETATM   10  C19         0      42.663  77.207  22.424  1.00  0.00     0.096 C 
HETATM   11  C21         0      43.038  75.910  22.643  1.00  0.00     0.084 C 
ENDROOT
BRANCH  10  12
HETATM   12  O20         0      42.857  77.737  21.152  1.00  0.00    -0.359 OA
HETATM   13  H20         0      42.168  77.615  20.510  1.00  0.00     0.218 HD
ENDBRANCH  10  12
BRANCH   4  14
HETATM   14  C5          0      43.800  71.943  23.493  1.00  0.00     0.025 C 
HETATM   15  C6          0      43.429  71.378  24.705  1.00  0.00     0.004 C 
HETATM   16  C7          0      42.665  70.216  24.667  1.00  0.00     0.026 C 
HETATM   17  C8          0      42.391  69.562  23.471  1.00  0.00     0.112 C 
HETATM   18  C10         0      43.295  69.820  22.449  1.00  0.00     0.112 C 
HETATM   19  C12         0      43.983  71.027  22.465  1.00  0.00     0.028 C 
BRANCH  17  20
HETATM   20  O9          0      41.195  68.891  23.288  1.00  0.00    -0.357 OA
HETATM   21  H9          0      40.881  68.205  23.867  1.00  0.00     0.218 HD
ENDBRANCH  17  20
BRANCH  18  22
HETATM   22  O11         0      43.179  69.051  21.299  1.00  0.00    -0.357 OA
HETATM   23  H11         0      43.045  69.518  20.482  1.00  0.00     0.218 HD
ENDBRANCH  18  22
ENDBRANCH   4  14
BRANCH   8  24
HETATM   24  O17         0      39.887  77.292  24.751  1.00  0.00    -0.359 OA
HETATM   25  H17         0      39.509  78.157  24.858  1.00  0.00     0.218 HD
ENDBRANCH   8  24
TORSDOF 5
ENDMDL
MODEL 5
REMARK VINA RESULT:      -3.5      3.096      5.325
REMARK  5 active torsions:
REMARK  status: ('A' for Active; 'I' for Inactive)
REMARK    1  A    between atoms: C4_4  and  C5_5 
REMARK    2  A    between atoms: C8_8  and  O9_9 
REMARK    3  A    between atoms: C10_11  and  O11_12 
REMARK    4  A    between atoms: C16_18  and  O17_19 
REMARK    5  A    between atoms: C19_22  and  O20_23 
ROOT
HETATM    1  O1          0      41.652  76.733  24.794  1.00  0.00    -0.286 OA
HETATM    2  C2          0      41.771  75.796  23.958  1.00  0.00     0.201 C 
HETATM    3  C3          0      41.376  74.496  24.227  1.00  0.00     0.067 C 
HETATM    4  C4          0      41.611  73.462  23.328  1.00  0.00     0.103 C 
HETATM    5  O13         0      42.209  73.740  22.183  1.00  0.00    -0.307 OA
HETATM    6  C14         0      42.637  74.950  21.894  1.00  0.00     0.107 C 
HETATM    7  C15         0      43.593  75.171  20.913  1.00  0.00     0.049 C 
HETATM    8  C16         0      44.225  76.403  20.786  1.00  0.00     0.093 C 
HETATM    9  C18         0      43.509  77.484  21.286  1.00  0.00     0.048 C 
HETATM   10  C19         0      42.513  77.293  22.234  1.00  0.00     0.096 C 
HETATM   11  C21         0      42.222  76.028  22.668  1.00  0.00     0.084 C 
ENDROOT
BRANCH  10  12
HETATM   12  O20         0      42.119  78.363  23.032  1.00  0.00    -0.359 OA
HETATM   13  H20         0      41.312  78.276  23.525  1.00  0.00     0.218 HD
ENDBRANCH  10  12
BRANCH   4  14
HETATM   14  C5          0      41.737  72.111  23.879  1.00  0.00     0.025 C 
HETATM   15  C6          0      40.995  71.670  24.964  1.00  0.00     0.004 C 
HETATM   16  C7          0      40.537  70.356  24.941  1.00  0.00     0.026 C 
HETATM   17  C8          0      40.916  69.470  23.938  1.00  0.00     0.112 C 
HETATM   18  C10         0      42.106  69.792  23.299  1.00  0.00     0.112 C 
HETATM   19  C12         0      42.497  71.125  23.264  1.00  0.00     0.028 C 
BRANCH  17  20
HETATM   20  O9          0      40.050  68.484  23.498  1.00  0.00    -0.357 OA
HETATM   21  H9          0      39.189  68.661  23.138  1.00  0.00     0.218 HD
ENDBRANCH  17  20
BRANCH  18  22
HETATM   22  O11         0      42.626  68.847  22.426  1.00  0.00    -0.357 OA
HETATM   23  H11         0      43.389  69.102  21.920  1.00  0.00     0.218 HD
ENDBRANCH  18  22
ENDBRANCH   4  14
BRANCH   8  24
HETATM   24  O17         0      45.590  76.495  20.496  1.00  0.00    -0.359 OA
HETATM   25  H17         0      46.243  76.038  21.013  1.00  0.00     0.218 HD
ENDBRANCH   8  24
TORSDOF 5
ENDMDL
MODEL 6
REMARK VINA RESULT:      -3.4      2.233      7.318
REMARK  5 active torsions:
REMARK  status: ('A' for Active; 'I' for Inactive)
REMARK    1  A    between atoms: C4_4  and  C5_5 
REMARK    2  A    between atoms: C8_8  and  O9_9 
REMARK    3  A    between atoms: C10_11  and  O11_12 
REMARK    4  A    between atoms: C16_18  and  O17_19 
REMARK    5  A    between atoms: C19_22  and  O20_23 
ROOT
HETATM    1  O1          0      40.585  69.351  23.821  1.00  0.00    -0.286 OA
HETATM    2  C2          0      41.473  70.213  23.574  1.00  0.00     0.201 C 
HETATM    3  C3          0      41.283  71.567  23.788  1.00  0.00     0.067 C 
HETATM    4  C4          0      42.238  72.505  23.412  1.00  0.00     0.103 C 
HETATM    5  O13         0      43.359  72.081  22.856  1.00  0.00    -0.307 OA
HETATM    6  C14         0      43.574  70.810  22.596  1.00  0.00     0.107 C 
HETATM    7  C15         0      44.531  70.403  21.678  1.00  0.00     0.049 C 
HETATM    8  C16         0      44.580  69.091  21.220  1.00  0.00     0.093 C 
HETATM    9  C18         0      44.025  68.149  22.078  1.00  0.00     0.048 C 
HETATM   10  C19         0      43.099  68.530  23.040  1.00  0.00     0.096 C 
HETATM   11  C21         0      42.743  69.845  23.156  1.00  0.00     0.084 C 
ENDROOT
BRANCH  10  12
HETATM   12  O20         0      42.245  67.572  23.579  1.00  0.00    -0.359 OA
HETATM   13  H20         0      42.557  66.677  23.631  1.00  0.00     0.218 HD
ENDBRANCH  10  12
BRANCH   4  14
HETATM   14  C5          0      41.766  73.856  23.104  1.00  0.00     0.025 C 
HETATM   15  C6          0      40.962  74.587  23.967  1.00  0.00     0.004 C 
HETATM   16  C7          0      41.200  75.954  24.067  1.00  0.00     0.026 C 
HETATM   17  C8          0      42.114  76.597  23.239  1.00  0.00     0.112 C 
HETATM   18  C10         0      42.373  75.943  22.042  1.00  0.00     0.112 C 
HETATM   19  C12         0      42.208  74.564  21.994  1.00  0.00     0.028 C 
BRANCH  17  20
HETATM   20  O9          0      42.843  77.682  23.695  1.00  0.00    -0.357 OA
HETATM   21  H9          0      43.687  77.607  24.124  1.00  0.00     0.218 HD
ENDBRANCH  17  20
BRANCH  18  22
HETATM   22  O11         0      43.127  76.630  21.101  1.00  0.00    -0.357 OA
HETATM   23  H11         0      42.921  76.472  20.187  1.00  0.00     0.218 HD
ENDBRANCH  18  22
ENDBRANCH   4  14
BRANCH   8  24
HETATM   24  O17         0      44.850  68.796  19.880  1.00  0.00    -0.359 OA
HETATM   25  H17         0      44.384  69.223  19.171  1.00  0.00     0.218 HD
ENDBRANCH   8  24
TORSDOF 5
ENDMDL
MODEL 7
REMARK VINA RESULT:      -3.4      5.875      9.073
REMARK  5 active torsions:
REMARK  status: ('A' for Active; 'I' for Inactive)
REMARK    1  A    between atoms: C4_4  and  C5_5 
REMARK    2  A    between atoms: C8_8  and  O9_9 
REMARK    3  A    between atoms: C10_11  and  O11_12 
REMARK    4  A    between atoms: C16_18  and  O17_19 
REMARK    5  A    between atoms: C19_22  and  O20_23 
ROOT
HETATM    1  O1          0      51.100  65.545  21.648  1.00  0.00    -0.286 OA
HETATM    2  C2          0      50.051  65.067  21.135  1.00  0.00     0.201 C 
HETATM    3  C3          0      48.864  65.775  21.058  1.00  0.00     0.067 C 
HETATM    4  C4          0      47.696  65.189  20.581  1.00  0.00     0.103 C 
HETATM    5  O13         0      47.736  63.932  20.177  1.00  0.00    -0.307 OA
HETATM    6  C14         0      48.828  63.204  20.263  1.00  0.00     0.107 C 
HETATM    7  C15         0      48.786  61.818  20.226  1.00  0.00     0.049 C 
HETATM    8  C16         0      49.894  61.053  20.571  1.00  0.00     0.093 C 
HETATM    9  C18         0      51.118  61.695  20.426  1.00  0.00     0.048 C 
HETATM   10  C19         0      51.191  63.081  20.412  1.00  0.00     0.096 C 
HETATM   11  C21         0      50.046  63.822  20.524  1.00  0.00     0.084 C 
ENDROOT
BRANCH  10  12
HETATM   12  O20         0      52.401  63.703  20.704  1.00  0.00    -0.359 OA
HETATM   13  H20         0      53.194  63.185  20.639  1.00  0.00     0.218 HD
ENDBRANCH  10  12
BRANCH   4  14
HETATM   14  C5          0      46.427  65.733  21.069  1.00  0.00     0.025 C 
HETATM   15  C6          0      45.703  66.691  20.375  1.00  0.00     0.004 C 
HETATM   16  C7          0      44.316  66.581  20.382  1.00  0.00     0.026 C 
HETATM   17  C8          0      43.664  65.633  21.162  1.00  0.00     0.112 C 
HETATM   18  C10         0      44.392  65.180  22.254  1.00  0.00     0.112 C 
HETATM   19  C12         0      45.779  65.222  22.186  1.00  0.00     0.028 C 
BRANCH  17  20
HETATM   20  O9          0      42.481  65.056  20.735  1.00  0.00    -0.357 OA
HETATM   21  H9          0      42.211  65.017  19.824  1.00  0.00     0.218 HD
ENDBRANCH  17  20
BRANCH  18  22
HETATM   22  O11         0      43.721  64.379  23.168  1.00  0.00    -0.357 OA
HETATM   23  H11         0      43.761  64.642  24.080  1.00  0.00     0.218 HD
ENDBRANCH  18  22
ENDBRANCH   4  14
BRANCH   8  24
HETATM   24  O17         0      49.765  59.875  21.315  1.00  0.00    -0.359 OA
HETATM   25  H17         0      49.651  59.030  20.897  1.00  0.00     0.218 HD
ENDBRANCH   8  24
TORSDOF 5
ENDMDL
MODEL 8
REMARK VINA RESULT:      -3.1      1.561      2.021
REMARK  5 active torsions:
REMARK  status: ('A' for Active; 'I' for Inactive)
REMARK    1  A    between atoms: C4_4  and  C5_5 
REMARK    2  A    between atoms: C8_8  and  O9_9 
REMARK    3  A    between atoms: C10_11  and  O11_12 
REMARK    4  A    between atoms: C16_18  and  O17_19 
REMARK    5  A    between atoms: C19_22  and  O20_23 
ROOT
HETATM    1  O1          0      45.667  71.952  22.812  1.00  0.00    -0.286 OA
HETATM    2  C2          0      44.816  71.054  23.060  1.00  0.00     0.201 C 
HETATM    3  C3          0      45.080  69.705  22.901  1.00  0.00     0.067 C 
HETATM    4  C4          0      44.093  68.743  23.082  1.00  0.00     0.103 C 
HETATM    5  O13         0      42.881  69.135  23.434  1.00  0.00    -0.307 OA
HETATM    6  C14         0      42.567  70.406  23.562  1.00  0.00     0.107 C 
HETATM    7  C15         0      41.250  70.840  23.533  1.00  0.00     0.049 C 
HETATM    8  C16         0      40.937  72.189  23.412  1.00  0.00     0.093 C 
HETATM    9  C18         0      41.925  73.062  23.851  1.00  0.00     0.048 C 
HETATM   10  C19         0      43.247  72.646  23.937  1.00  0.00     0.096 C 
HETATM   11  C21         0      43.577  71.361  23.603  1.00  0.00     0.084 C 
ENDROOT
BRANCH  10  12
HETATM   12  O20         0      44.260  73.599  23.945  1.00  0.00    -0.359 OA
HETATM   13  H20         0      45.137  73.314  24.173  1.00  0.00     0.218 HD
ENDBRANCH  10  12
BRANCH   4  14
HETATM   14  C5          0      44.240  67.485  22.348  1.00  0.00     0.025 C 
HETATM   15  C6          0      45.052  67.357  21.230  1.00  0.00     0.004 C 
HETATM   16  C7          0      45.766  66.172  21.083  1.00  0.00     0.026 C 
HETATM   17  C8          0      45.578  65.097  21.945  1.00  0.00     0.112 C 
HETATM   18  C10         0      44.351  65.080  22.593  1.00  0.00     0.112 C 
HETATM   19  C12         0      43.698  66.289  22.802  1.00  0.00     0.028 C 
BRANCH  17  20
HETATM   20  O9          0      46.628  64.254  22.265  1.00  0.00    -0.357 OA
HETATM   21  H9          0      46.572  63.306  22.236  1.00  0.00     0.218 HD
ENDBRANCH  17  20
BRANCH  18  22
HETATM   22  O11         0      44.036  63.937  23.315  1.00  0.00    -0.357 OA
HETATM   23  H11         0      44.758  63.366  23.551  1.00  0.00     0.218 HD
ENDBRANCH  18  22
ENDBRANCH   4  14
BRANCH   8  24
HETATM   24  O17         0      39.875  72.622  22.610  1.00  0.00    -0.359 OA
HETATM   25  H17         0      39.828  72.408  21.686  1.00  0.00     0.218 HD
ENDBRANCH   8  24
TORSDOF 5
ENDMDL
MODEL 9
REMARK VINA RESULT:      -3.1      2.507      4.252
REMARK  5 active torsions:
REMARK  status: ('A' for Active; 'I' for Inactive)
REMARK    1  A    between atoms: C4_4  and  C5_5 
REMARK    2  A    between atoms: C8_8  and  O9_9 
REMARK    3  A    between atoms: C10_11  and  O11_12 
REMARK    4  A    between atoms: C16_18  and  O17_19 
REMARK    5  A    between atoms: C19_22  and  O20_23 
ROOT
HETATM    1  O1          0      41.987  73.746  26.508  1.00  0.00    -0.286 OA
HETATM    2  C2          0      41.695  73.346  25.347  1.00  0.00     0.201 C 
HETATM    3  C3          0      41.431  72.019  25.055  1.00  0.00     0.067 C 
HETATM    4  C4          0      41.213  71.590  23.751  1.00  0.00     0.103 C 
HETATM    5  O13         0      41.241  72.481  22.776  1.00  0.00    -0.307 OA
HETATM    6  C14         0      41.524  73.747  22.994  1.00  0.00     0.107 C 
HETATM    7  C15         0      41.944  74.588  21.974  1.00  0.00     0.049 C 
HETATM    8  C16         0      42.482  75.840  22.247  1.00  0.00     0.093 C 
HETATM    9  C18         0      42.093  76.394  23.460  1.00  0.00     0.048 C 
HETATM   10  C19         0      41.623  75.586  24.487  1.00  0.00     0.096 C 
HETATM   11  C21         0      41.526  74.235  24.296  1.00  0.00     0.084 C 
ENDROOT
BRANCH  10  12
HETATM   12  O20         0      41.654  76.060  25.794  1.00  0.00    -0.359 OA
HETATM   13  H20         0      40.864  75.981  26.316  1.00  0.00     0.218 HD
ENDBRANCH  10  12
BRANCH   4  14
HETATM   14  C5          0      41.539  70.196  23.441  1.00  0.00     0.025 C 
HETATM   15  C6          0      42.674  69.829  22.734  1.00  0.00     0.004 C 
HETATM   16  C7          0      43.337  68.672  23.133  1.00  0.00     0.026 C 
HETATM   17  C8          0      42.816  67.835  24.114  1.00  0.00     0.112 C 
HETATM   18  C10         0      41.442  67.932  24.288  1.00  0.00     0.112 C 
HETATM   19  C12         0      40.817  69.130  23.961  1.00  0.00     0.028 C 
BRANCH  17  20
HETATM   20  O9          0      43.652  67.138  24.968  1.00  0.00    -0.357 OA
HETATM   21  H9          0      43.963  67.480  25.798  1.00  0.00     0.218 HD
ENDBRANCH  17  20
BRANCH  18  22
HETATM   22  O11         0      40.846  66.991  25.116  1.00  0.00    -0.357 OA
HETATM   23  H11         0      41.393  66.599  25.786  1.00  0.00     0.218 HD
ENDBRANCH  18  22
ENDBRANCH   4  14
BRANCH   8  24
HETATM   24  O17         0      43.575  76.336  21.528  1.00  0.00    -0.359 OA
HETATM   25  H17         0      44.465  76.250  21.849  1.00  0.00     0.218 HD
ENDBRANCH   8  24
TORSDOF 5
ENDMDL
