MODEL 1
REMARK VINA RESULT:      -4.7      0.000      0.000
REMARK  5 active torsions:
REMARK  status: ('A' for Active; 'I' for Inactive)
REMARK    1  A    between atoms: C4_4  and  C5_5 
REMARK    2  A    between atoms: C8_8  and  O9_9 
REMARK    3  A    between atoms: C10_11  and  O11_12 
REMARK    4  A    between atoms: C16_18  and  O17_19 
REMARK    5  A    between atoms: C19_22  and  O20_23 
ROOT
HETATM    1  O1          0      47.143   4.590  -0.310  1.00  0.00    -0.286 OA
HETATM    2  C2          0      46.441   3.931  -1.125  1.00  0.00     0.201 C 
HETATM    3  C3          0      46.219   2.570  -0.995  1.00  0.00     0.067 C 
HETATM    4  C4          0      45.527   1.849  -1.961  1.00  0.00     0.103 C 
HETATM    5  O13         0      45.056   2.491  -3.016  1.00  0.00    -0.307 OA
HETATM    6  C14         0      45.270   3.775  -3.206  1.00  0.00     0.107 C 
HETATM    7  C15         0      45.139   4.360  -4.457  1.00  0.00     0.049 C 
HETATM    8  C16         0      45.608   5.644  -4.706  1.00  0.00     0.093 C 
HETATM    9  C18         0      45.700   6.462  -3.586  1.00  0.00     0.048 C 
HETATM   10  C19         0      45.785   5.910  -2.315  1.00  0.00     0.096 C 
HETATM   11  C21         0      45.760   4.551  -2.161  1.00  0.00     0.084 C 
ENDROOT
BRANCH  10  12
HETATM   12  O20         0      46.305   6.674  -1.275  1.00  0.00    -0.359 OA
HETATM   13  H20         0      45.925   6.568  -0.411  1.00  0.00     0.218 HD
ENDBRANCH  10  12
BRANCH   4  14
HETATM   14  C5          0      45.840   0.424  -2.085  1.00  0.00     0.025 C 
HETATM   15  C6          0      44.920  -0.510  -2.540  1.00  0.00     0.004 C 
HETATM   16  C7          0      45.391  -1.531  -3.359  1.00  0.00     0.026 C 
HETATM   17  C8          0      46.749  -1.698  -3.610  1.00  0.00     0.112 C 
HETATM   18  C10         0      47.587  -1.151  -2.648  1.00  0.00     0.112 C 
HETATM   19  C12         0      47.122  -0.076  -1.901  1.00  0.00     0.028 C 
BRANCH  17  20
HETATM   20  O9          0      47.190  -2.183  -4.829  1.00  0.00    -0.357 OA
HETATM   21  H9          0      47.246  -3.108  -5.040  1.00  0.00     0.218 HD
ENDBRANCH  17  20
BRANCH  18  22
HETATM   22  O11         0      48.938  -1.451  -2.749  1.00  0.00    -0.357 OA
HETATM   23  H11         0      49.294  -1.546  -3.625  1.00  0.00     0.218 HD
ENDBRANCH  18  22
ENDBRANCH   4  14
BRANCH   8  24
HETATM   24  O17         0      46.246   5.968  -5.908  1.00  0.00    -0.359 OA
HETATM   25  H17         0      47.089   6.407  -5.923  1.00  0.00     0.218 HD
ENDBRANCH   8  24
TORSDOF 5
ENDMDL
MODEL 2
REMARK VINA RESULT:      -4.5      1.776      2.303
REMARK  5 active torsions:
REMARK  status: ('A' for Active; 'I' for Inactive)
REMARK    1  A    between atoms: C4_4  and  C5_5 
REMARK    2  A    between atoms: C8_8  and  O9_9 
REMARK    3  A    between atoms: C10_11  and  O11_12 
REMARK    4  A    between atoms: C16_18  and  O17_19 
REMARK    5  A    between atoms: C19_22  and  O20_23 
ROOT
HETATM    1  O1          0      46.828   2.946  -1.449  1.00  0.00    -0.286 OA
HETATM    2  C2          0      45.856   2.810  -2.241  1.00  0.00     0.201 C 
HETATM    3  C3          0      45.168   1.618  -2.388  1.00  0.00     0.067 C 
HETATM    4  C4          0      44.167   1.466  -3.341  1.00  0.00     0.103 C 
HETATM    5  O13         0      43.858   2.498  -4.106  1.00  0.00    -0.307 OA
HETATM    6  C14         0      44.505   3.641  -4.033  1.00  0.00     0.107 C 
HETATM    7  C15         0      44.471   4.567  -5.066  1.00  0.00     0.049 C 
HETATM    8  C16         0      45.348   5.645  -5.097  1.00  0.00     0.093 C 
HETATM    9  C18         0      45.844   6.034  -3.859  1.00  0.00     0.048 C 
HETATM   10  C19         0      45.850   5.147  -2.791  1.00  0.00     0.096 C 
HETATM   11  C21         0      45.347   3.885  -2.954  1.00  0.00     0.084 C 
ENDROOT
BRANCH  10  12
HETATM   12  O20         0      46.714   5.372  -1.724  1.00  0.00    -0.359 OA
HETATM   13  H20         0      46.951   4.632  -1.179  1.00  0.00     0.218 HD
ENDBRANCH  10  12
BRANCH   4  14
HETATM   14  C5          0      43.925   0.115  -3.849  1.00  0.00     0.025 C 
HETATM   15  C6          0      42.782  -0.229  -4.557  1.00  0.00     0.004 C 
HETATM   16  C7          0      42.924  -1.116  -5.619  1.00  0.00     0.026 C 
HETATM   17  C8          0      44.135  -1.745  -5.887  1.00  0.00     0.112 C 
HETATM   18  C10         0      44.994  -1.837  -4.800  1.00  0.00     0.112 C 
HETATM   19  C12         0      44.887  -0.886  -3.792  1.00  0.00     0.028 C 
BRANCH  17  20
HETATM   20  O9          0      44.505  -2.048  -7.185  1.00  0.00    -0.357 OA
HETATM   21  H9          0      43.894  -2.090  -7.912  1.00  0.00     0.218 HD
ENDBRANCH  17  20
BRANCH  18  22
HETATM   22  O11         0      46.130  -2.617  -4.960  1.00  0.00    -0.357 OA
HETATM   23  H11         0      46.023  -3.557  -4.865  1.00  0.00     0.218 HD
ENDBRANCH  18  22
ENDBRANCH   4  14
BRANCH   8  24
HETATM   24  O17         0      45.936   6.072  -6.293  1.00  0.00    -0.359 OA
HETATM   25  H17         0      45.544   6.754  -6.826  1.00  0.00     0.218 HD
ENDBRANCH   8  24
TORSDOF 5
ENDMDL
MODEL 3
REMARK VINA RESULT:      -4.5      2.337      3.964
REMARK  5 active torsions:
REMARK  status: ('A' for Active; 'I' for Inactive)
REMARK    1  A    between atoms: C4_4  and  C5_5 
REMARK    2  A    between atoms: C8_8  and  O9_9 
REMARK    3  A    between atoms: C10_11  and  O11_12 
REMARK    4  A    between atoms: C16_18  and  O17_19 
REMARK    5  A    between atoms: C19_22  and  O20_23 
ROOT
HETATM    1  O1          0      46.180   5.670  -5.601  1.00  0.00    -0.286 OA
HETATM    2  C2          0      45.396   4.870  -5.021  1.00  0.00     0.201 C 
HETATM    3  C3          0      45.623   4.392  -3.742  1.00  0.00     0.067 C 
HETATM    4  C4          0      44.798   3.433  -3.165  1.00  0.00     0.103 C 
HETATM    5  O13         0      43.762   2.989  -3.856  1.00  0.00    -0.307 OA
HETATM    6  C14         0      43.523   3.382  -5.087  1.00  0.00     0.107 C 
HETATM    7  C15         0      42.710   2.652  -5.943  1.00  0.00     0.049 C 
HETATM    8  C16         0      42.664   2.927  -7.304  1.00  0.00     0.093 C 
HETATM    9  C18         0      43.015   4.226  -7.653  1.00  0.00     0.048 C 
HETATM   10  C19         0      43.788   5.001  -6.799  1.00  0.00     0.096 C 
HETATM   11  C21         0      44.194   4.488  -5.597  1.00  0.00     0.084 C 
ENDROOT
BRANCH  10  12
HETATM   12  O20         0      44.486   6.089  -7.313  1.00  0.00    -0.359 OA
HETATM   13  H20         0      44.388   6.285  -8.237  1.00  0.00     0.218 HD
ENDBRANCH  10  12
BRANCH   4  14
HETATM   14  C5          0      45.390   2.564  -2.146  1.00  0.00     0.025 C 
HETATM   15  C6          0      44.961   1.264  -1.925  1.00  0.00     0.004 C 
HETATM   16  C7          0      45.928   0.308  -1.630  1.00  0.00     0.026 C 
HETATM   17  C8          0      47.259   0.655  -1.428  1.00  0.00     0.112 C 
HETATM   18  C10         0      47.463   1.974  -1.047  1.00  0.00     0.112 C 
HETATM   19  C12         0      46.523   2.925  -1.429  1.00  0.00     0.028 C 
BRANCH  17  20
HETATM   20  O9          0      48.279  -0.206  -1.793  1.00  0.00    -0.357 OA
HETATM   21  H9          0      48.752  -0.146  -2.616  1.00  0.00     0.218 HD
ENDBRANCH  17  20
BRANCH  18  22
HETATM   22  O11         0      48.746   2.323  -0.651  1.00  0.00    -0.357 OA
HETATM   23  H11         0      49.219   1.692  -0.120  1.00  0.00     0.218 HD
ENDBRANCH  18  22
ENDBRANCH   4  14
BRANCH   8  24
HETATM   24  O17         0      42.603   1.901  -8.254  1.00  0.00    -0.359 OA
HETATM   25  H17         0      41.790   1.669  -8.686  1.00  0.00     0.218 HD
ENDBRANCH   8  24
TORSDOF 5
ENDMDL
MODEL 4
REMARK VINA RESULT:      -4.5      3.227      6.155
REMARK  5 active torsions:
REMARK  status: ('A' for Active; 'I' for Inactive)
REMARK    1  A    between atoms: C4_4  and  C5_5 
REMARK    2  A    between atoms: C8_8  and  O9_9 
REMARK    3  A    between atoms: C10_11  and  O11_12 
REMARK    4  A    between atoms: C16_18  and  O17_19 
REMARK    5  A    between atoms: C19_22  and  O20_23 
ROOT
HETATM    1  O1          0      45.187   7.910  -2.236  1.00  0.00    -0.286 OA
HETATM    2  C2          0      45.312   6.883  -2.958  1.00  0.00     0.201 C 
HETATM    3  C3          0      44.875   6.832  -4.271  1.00  0.00     0.067 C 
HETATM    4  C4          0      44.931   5.657  -5.012  1.00  0.00     0.103 C 
HETATM    5  O13         0      45.434   4.574  -4.446  1.00  0.00    -0.307 OA
HETATM    6  C14         0      45.828   4.558  -3.192  1.00  0.00     0.107 C 
HETATM    7  C15         0      45.972   3.373  -2.486  1.00  0.00     0.049 C 
HETATM    8  C16         0      46.137   3.371  -1.106  1.00  0.00     0.093 C 
HETATM    9  C18         0      46.670   4.540  -0.577  1.00  0.00     0.048 C 
HETATM   10  C19         0      46.585   5.735  -1.278  1.00  0.00     0.096 C 
HETATM   11  C21         0      45.986   5.759  -2.508  1.00  0.00     0.084 C 
ENDROOT
BRANCH  10  12
HETATM   12  O20         0      46.711   6.938  -0.590  1.00  0.00    -0.359 OA
HETATM   13  H20         0      45.962   7.521  -0.572  1.00  0.00     0.218 HD
ENDBRANCH  10  12
BRANCH   4  14
HETATM   14  C5          0      43.957   5.500  -6.094  1.00  0.00     0.025 C 
HETATM   15  C6          0      43.257   6.568  -6.636  1.00  0.00     0.004 C 
HETATM   16  C7          0      43.034   6.563  -8.009  1.00  0.00     0.026 C 
HETATM   17  C8          0      43.376   5.470  -8.799  1.00  0.00     0.112 C 
HETATM   18  C10         0      43.464   4.265  -8.115  1.00  0.00     0.112 C 
HETATM   19  C12         0      43.772   4.296  -6.760  1.00  0.00     0.028 C 
BRANCH  17  20
HETATM   20  O9          0      43.795   5.644 -10.106  1.00  0.00    -0.357 OA
HETATM   21  H9          0      44.219   4.966 -10.619  1.00  0.00     0.218 HD
ENDBRANCH  17  20
BRANCH  18  22
HETATM   22  O11         0      43.615   3.118  -8.881  1.00  0.00    -0.357 OA
HETATM   23  H11         0      42.916   2.912  -9.490  1.00  0.00     0.218 HD
ENDBRANCH  18  22
ENDBRANCH   4  14
BRANCH   8  24
HETATM   24  O17         0      45.508   2.417  -0.298  1.00  0.00    -0.359 OA
HETATM   25  H17         0      45.837   2.201   0.567  1.00  0.00     0.218 HD
ENDBRANCH   8  24
TORSDOF 5
ENDMDL
MODEL 5
REMARK VINA RESULT:      -4.4      3.910      6.265
REMARK  5 active torsions:
REMARK  status: ('A' for Active; 'I' for Inactive)
REMARK    1  A    between atoms: C4_4  and  C5_5 
REMARK    2  A    between atoms: C8_8  and  O9_9 
REMARK    3  A    between atoms: C10_11  and  O11_12 
REMARK    4  A    between atoms: C16_18  and  O17_19 
REMARK    5  A    between atoms: C19_22  and  O20_23 
ROOT
HETATM    1  O1          0      44.684   3.875  -6.725  1.00  0.00    -0.286 OA
HETATM    2  C2          0      44.724   4.910  -6.006  1.00  0.00     0.201 C 
HETATM    3  C3          0      45.391   4.957  -4.794  1.00  0.00     0.067 C 
HETATM    4  C4          0      45.334   6.078  -3.973  1.00  0.00     0.103 C 
HETATM    5  O13         0      44.639   7.126  -4.378  1.00  0.00    -0.307 OA
HETATM    6  C14         0      43.956   7.120  -5.502  1.00  0.00     0.107 C 
HETATM    7  C15         0      42.931   8.024  -5.739  1.00  0.00     0.049 C 
HETATM    8  C16         0      42.053   7.857  -6.803  1.00  0.00     0.093 C 
HETATM    9  C18         0      42.552   7.110  -7.864  1.00  0.00     0.048 C 
HETATM   10  C19         0      43.608   6.231  -7.672  1.00  0.00     0.096 C 
HETATM   11  C21         0      44.175   6.110  -6.432  1.00  0.00     0.084 C 
ENDROOT
BRANCH  10  12
HETATM   12  O20         0      43.809   5.199  -8.585  1.00  0.00    -0.359 OA
HETATM   13  H20         0      43.196   5.116  -9.305  1.00  0.00     0.218 HD
ENDBRANCH  10  12
BRANCH   4  14
HETATM   14  C5          0      45.516   5.865  -2.536  1.00  0.00     0.025 C 
HETATM   15  C6          0      45.418   4.615  -1.942  1.00  0.00     0.004 C 
HETATM   16  C7          0      46.306   4.319  -0.913  1.00  0.00     0.026 C 
HETATM   17  C8          0      47.173   5.278  -0.399  1.00  0.00     0.112 C 
HETATM   18  C10         0      46.768   6.591  -0.597  1.00  0.00     0.112 C 
HETATM   19  C12         0      45.949   6.873  -1.684  1.00  0.00     0.028 C 
BRANCH  17  20
HETATM   20  O9          0      48.424   4.922   0.071  1.00  0.00    -0.357 OA
HETATM   21  H9          0      49.220   5.400  -0.132  1.00  0.00     0.218 HD
ENDBRANCH  17  20
BRANCH  18  22
HETATM   22  O11         0      47.493   7.577   0.056  1.00  0.00    -0.357 OA
HETATM   23  H11         0      48.205   7.980  -0.429  1.00  0.00     0.218 HD
ENDBRANCH  18  22
ENDBRANCH   4  14
BRANCH   8  24
HETATM   24  O17         0      40.685   8.122  -6.669  1.00  0.00    -0.359 OA
HETATM   25  H17         0      40.079   7.993  -7.389  1.00  0.00     0.218 HD
ENDBRANCH   8  24
TORSDOF 5
ENDMDL
MODEL 6
REMARK VINA RESULT:      -4.2      3.823      6.723
REMARK  5 active torsions:
REMARK  status: ('A' for Active; 'I' for Inactive)
REMARK    1  A    between atoms: C4_4  and  C5_5 
REMARK    2  A    between atoms: C8_8  and  O9_9 
REMARK    3  A    between atoms: C10_11  and  O11_12 
REMARK    4  A    between atoms: C16_18  and  O17_19 
REMARK    5  A    between atoms: C19_22  and  O20_23 
ROOT
HETATM    1  O1          0      41.875   2.181  -6.662  1.00  0.00    -0.286 OA
HETATM    2  C2          0      42.827   2.993  -6.502  1.00  0.00     0.201 C 
HETATM    3  C3          0      43.485   3.150  -5.294  1.00  0.00     0.067 C 
HETATM    4  C4          0      44.461   4.124  -5.118  1.00  0.00     0.103 C 
HETATM    5  O13         0      44.777   4.900  -6.140  1.00  0.00    -0.307 OA
HETATM    6  C14         0      44.157   4.817  -7.297  1.00  0.00     0.107 C 
HETATM    7  C15         0      44.189   5.854  -8.219  1.00  0.00     0.049 C 
HETATM    8  C16         0      43.336   5.871  -9.316  1.00  0.00     0.093 C 
HETATM    9  C18         0      42.874   4.624  -9.720  1.00  0.00     0.048 C 
HETATM   10  C19         0      42.872   3.552  -8.837  1.00  0.00     0.096 C 
HETATM   11  C21         0      43.344   3.721  -7.563  1.00  0.00     0.084 C 
ENDROOT
BRANCH  10  12
HETATM   12  O20         0      42.036   2.468  -9.084  1.00  0.00    -0.359 OA
HETATM   13  H20         0      42.426   1.603  -9.115  1.00  0.00     0.218 HD
ENDBRANCH  10  12
BRANCH   4  14
HETATM   14  C5          0      44.663   4.632  -3.760  1.00  0.00     0.025 C 
HETATM   15  C6          0      45.272   3.886  -2.761  1.00  0.00     0.004 C 
HETATM   16  C7          0      46.119   4.554  -1.882  1.00  0.00     0.026 C 
HETATM   17  C8          0      46.253   5.938  -1.909  1.00  0.00     0.112 C 
HETATM   18  C10         0      45.177   6.614  -2.471  1.00  0.00     0.112 C 
HETATM   19  C12         0      44.398   5.949  -3.410  1.00  0.00     0.028 C 
BRANCH  17  20
HETATM   20  O9          0      47.457   6.540  -1.592  1.00  0.00    -0.357 OA
HETATM   21  H9          0      47.583   7.105  -0.839  1.00  0.00     0.218 HD
ENDBRANCH  17  20
BRANCH  18  22
HETATM   22  O11         0      45.173   7.996  -2.353  1.00  0.00    -0.357 OA
HETATM   23  H11         0      45.876   8.467  -2.785  1.00  0.00     0.218 HD
ENDBRANCH  18  22
ENDBRANCH   4  14
BRANCH   8  24
HETATM   24  O17         0      42.732   7.055  -9.752  1.00  0.00    -0.359 OA
HETATM   25  H17         0      42.091   7.514  -9.220  1.00  0.00     0.218 HD
ENDBRANCH   8  24
TORSDOF 5
ENDMDL
MODEL 7
REMARK VINA RESULT:      -4.2      2.589      6.072
REMARK  5 active torsions:
REMARK  status: ('A' for Active; 'I' for Inactive)
REMARK    1  A    between atoms: C4_4  and  C5_5 
REMARK    2  A    between atoms: C8_8  and  O9_9 
REMARK    3  A    between atoms: C10_11  and  O11_12 
REMARK    4  A    between atoms: C16_18  and  O17_19 
REMARK    5  A    between atoms: C19_22  and  O20_23 
ROOT
HETATM    1  O1          0      48.381   1.096  -1.076  1.00  0.00    -0.286 OA
HETATM    2  C2          0      47.686   2.096  -0.747  1.00  0.00     0.201 C 
HETATM    3  C3          0      46.658   2.587  -1.533  1.00  0.00     0.067 C 
HETATM    4  C4          0      45.976   3.751  -1.197  1.00  0.00     0.103 C 
HETATM    5  O13         0      46.311   4.386  -0.088  1.00  0.00    -0.307 OA
HETATM    6  C14         0      47.305   3.984   0.674  1.00  0.00     0.107 C 
HETATM    7  C15         0      47.914   4.832   1.587  1.00  0.00     0.049 C 
HETATM    8  C16         0      49.114   4.490   2.201  1.00  0.00     0.093 C 
HETATM    9  C18         0      49.367   3.125   2.275  1.00  0.00     0.048 C 
HETATM   10  C19         0      48.738   2.243   1.407  1.00  0.00     0.096 C 
HETATM   11  C21         0      47.849   2.719   0.481  1.00  0.00     0.084 C 
ENDROOT
BRANCH  10  12
HETATM   12  O20         0      49.298   0.988   1.188  1.00  0.00    -0.359 OA
HETATM   13  H20         0      48.725   0.232   1.226  1.00  0.00     0.218 HD
ENDBRANCH  10  12
BRANCH   4  14
HETATM   14  C5          0      45.375   4.514  -2.292  1.00  0.00     0.025 C 
HETATM   15  C6          0      45.454   5.897  -2.377  1.00  0.00     0.004 C 
HETATM   16  C7          0      45.629   6.456  -3.639  1.00  0.00     0.026 C 
HETATM   17  C8          0      45.592   5.680  -4.793  1.00  0.00     0.112 C 
HETATM   18  C10         0      44.898   4.484  -4.664  1.00  0.00     0.112 C 
HETATM   19  C12         0      44.811   3.903  -3.405  1.00  0.00     0.028 C 
BRANCH  17  20
HETATM   20  O9          0      46.370   6.002  -5.890  1.00  0.00    -0.357 OA
HETATM   21  H9          0      47.014   6.701  -5.893  1.00  0.00     0.218 HD
ENDBRANCH  17  20
BRANCH  18  22
HETATM   22  O11         0      44.668   3.763  -5.827  1.00  0.00    -0.357 OA
HETATM   23  H11         0      45.214   2.999  -5.975  1.00  0.00     0.218 HD
ENDBRANCH  18  22
ENDBRANCH   4  14
BRANCH   8  24
HETATM   24  O17         0      50.121   5.438   2.411  1.00  0.00    -0.359 OA
HETATM   25  H17         0      49.937   6.284   2.800  1.00  0.00     0.218 HD
ENDBRANCH   8  24
TORSDOF 5
ENDMDL
MODEL 8
REMARK VINA RESULT:      -4.2      3.851      6.510
REMARK  5 active torsions:
REMARK  status: ('A' for Active; 'I' for Inactive)
REMARK    1  A    between atoms: C4_4  and  C5_5 
REMARK    2  A    between atoms: C8_8  and  O9_9 
REMARK    3  A    between atoms: C10_11  and  O11_12 
REMARK    4  A    between atoms: C16_18  and  O17_19 
REMARK    5  A    between atoms: C19_22  and  O20_23 
ROOT
HETATM    1  O1          0      43.687   3.144  -3.316  1.00  0.00    -0.286 OA
HETATM    2  C2          0      44.461   4.096  -3.609  1.00  0.00     0.201 C 
HETATM    3  C3          0      45.189   4.792  -2.658  1.00  0.00     0.067 C 
HETATM    4  C4          0      45.955   5.902  -2.996  1.00  0.00     0.103 C 
HETATM    5  O13         0      45.999   6.283  -4.260  1.00  0.00    -0.307 OA
HETATM    6  C14         0      45.298   5.681  -5.196  1.00  0.00     0.107 C 
HETATM    7  C15         0      45.022   6.293  -6.410  1.00  0.00     0.049 C 
HETATM    8  C16         0      44.079   5.767  -7.286  1.00  0.00     0.093 C 
HETATM    9  C18         0      43.849   4.403  -7.151  1.00  0.00     0.048 C 
HETATM   10  C19         0      44.157   3.750  -5.965  1.00  0.00     0.096 C 
HETATM   11  C21         0      44.708   4.451  -4.927  1.00  0.00     0.084 C 
ENDROOT
BRANCH  10  12
HETATM   12  O20         0      43.544   2.534  -5.679  1.00  0.00    -0.359 OA
HETATM   13  H20         0      44.022   1.737  -5.874  1.00  0.00     0.218 HD
ENDBRANCH  10  12
BRANCH   4  14
HETATM   14  C5          0      46.181   6.902  -1.950  1.00  0.00     0.025 C 
HETATM   15  C6          0      45.253   7.884  -1.636  1.00  0.00     0.004 C 
HETATM   16  C7          0      45.100   8.221  -0.295  1.00  0.00     0.026 C 
HETATM   17  C8          0      45.933   7.698   0.688  1.00  0.00     0.112 C 
HETATM   18  C10         0      47.169   7.262   0.228  1.00  0.00     0.112 C 
HETATM   19  C12         0      47.274   6.851  -1.095  1.00  0.00     0.028 C 
BRANCH  17  20
HETATM   20  O9          0      45.458   7.452   1.964  1.00  0.00    -0.357 OA
HETATM   21  H9          0      44.659   7.831   2.312  1.00  0.00     0.218 HD
ENDBRANCH  17  20
BRANCH  18  22
HETATM   22  O11         0      48.107   6.909   1.188  1.00  0.00    -0.357 OA
HETATM   23  H11         0      48.968   6.654   0.874  1.00  0.00     0.218 HD
ENDBRANCH  18  22
ENDBRANCH   4  14
BRANCH   8  24
HETATM   24  O17         0      43.202   6.595  -7.996  1.00  0.00    -0.359 OA
HETATM   25  H17         0      43.499   7.394  -8.415  1.00  0.00     0.218 HD
ENDBRANCH   8  24
TORSDOF 5
ENDMDL
MODEL 9
REMARK VINA RESULT:      -4.1      2.306      4.247
REMARK  5 active torsions:
REMARK  status: ('A' for Active; 'I' for Inactive)
REMARK    1  A    between atoms: C4_4  and  C5_5 
REMARK    2  A    between atoms: C8_8  and  O9_9 
REMARK    3  A    between atoms: C10_11  and  O11_12 
REMARK    4  A    between atoms: C16_18  and  O17_19 
REMARK    5  A    between atoms: C19_22  and  O20_23 
ROOT
HETATM    1  O1          0      44.040   4.760  -5.973  1.00  0.00    -0.286 OA
HETATM    2  C2          0      44.678   5.069  -4.929  1.00  0.00     0.201 C 
HETATM    3  C3          0      45.365   4.139  -4.167  1.00  0.00     0.067 C 
HETATM    4  C4          0      45.974   4.488  -2.967  1.00  0.00     0.103 C 
HETATM    5  O13         0      45.906   5.744  -2.563  1.00  0.00    -0.307 OA
HETATM    6  C14         0      45.235   6.658  -3.229  1.00  0.00     0.107 C 
HETATM    7  C15         0      44.825   7.843  -2.634  1.00  0.00     0.049 C 
HETATM    8  C16         0      43.908   8.682  -3.255  1.00  0.00     0.093 C 
HETATM    9  C18         0      43.851   8.568  -4.639  1.00  0.00     0.048 C 
HETATM   10  C19         0      44.296   7.414  -5.270  1.00  0.00     0.096 C 
HETATM   11  C21         0      44.812   6.389  -4.526  1.00  0.00     0.084 C 
ENDROOT
BRANCH  10  12
HETATM   12  O20         0      43.848   7.127  -6.556  1.00  0.00    -0.359 OA
HETATM   13  H20         0      44.475   7.177  -7.267  1.00  0.00     0.218 HD
ENDBRANCH  10  12
BRANCH   4  14
HETATM   14  C5          0      46.132   3.433  -1.965  1.00  0.00     0.025 C 
HETATM   15  C6          0      45.858   2.098  -2.228  1.00  0.00     0.004 C 
HETATM   16  C7          0      46.700   1.144  -1.666  1.00  0.00     0.026 C 
HETATM   17  C8          0      47.700   1.494  -0.764  1.00  0.00     0.112 C 
HETATM   18  C10         0      47.487   2.695  -0.101  1.00  0.00     0.112 C 
HETATM   19  C12         0      46.711   3.665  -0.724  1.00  0.00     0.028 C 
BRANCH  17  20
HETATM   20  O9          0      48.890   0.790  -0.716  1.00  0.00    -0.357 OA
HETATM   21  H9          0      49.306   0.405  -1.479  1.00  0.00     0.218 HD
ENDBRANCH  17  20
BRANCH  18  22
HETATM   22  O11         0      48.352   2.999   0.941  1.00  0.00    -0.357 OA
HETATM   23  H11         0      48.067   2.765   1.818  1.00  0.00     0.218 HD
ENDBRANCH  18  22
ENDBRANCH   4  14
BRANCH   8  24
HETATM   24  O17         0      42.903   9.329  -2.528  1.00  0.00    -0.359 OA
HETATM   25  H17         0      43.106   9.962  -1.850  1.00  0.00     0.218 HD
ENDBRANCH   8  24
TORSDOF 5
ENDMDL
