MODEL 1
REMARK VINA RESULT:      -4.8      0.000      0.000
REMARK  5 active torsions:
REMARK  status: ('A' for Active; 'I' for Inactive)
REMARK    1  A    between atoms: C4_4  and  C5_5 
REMARK    2  A    between atoms: C8_8  and  O9_9 
REMARK    3  A    between atoms: C10_11  and  O11_12 
REMARK    4  A    between atoms: C16_18  and  O17_19 
REMARK    5  A    between atoms: C19_22  and  O20_23 
ROOT
HETATM    1  O1          0      43.113   1.930  -8.889  1.00  0.00    -0.286 OA
HETATM    2  C2          0      43.082   3.161  -9.164  1.00  0.00     0.201 C 
HETATM    3  C3          0      42.803   3.639 -10.433  1.00  0.00     0.067 C 
HETATM    4  C4          0      42.877   4.995 -10.733  1.00  0.00     0.103 C 
HETATM    5  O13         0      43.202   5.841  -9.771  1.00  0.00    -0.307 OA
HETATM    6  C14         0      43.513   5.436  -8.559  1.00  0.00     0.107 C 
HETATM    7  C15         0      44.225   6.239  -7.681  1.00  0.00     0.049 C 
HETATM    8  C16         0      44.769   5.724  -6.510  1.00  0.00     0.093 C 
HETATM    9  C18         0      44.138   4.585  -6.023  1.00  0.00     0.048 C 
HETATM   10  C19         0      43.379   3.784  -6.864  1.00  0.00     0.096 C 
HETATM   11  C21         0      43.236   4.127  -8.181  1.00  0.00     0.084 C 
ENDROOT
BRANCH  10  12
HETATM   12  O20         0      43.127   2.464  -6.503  1.00  0.00    -0.359 OA
HETATM   13  H20         0      42.979   2.275  -5.584  1.00  0.00     0.218 HD
ENDBRANCH  10  12
BRANCH   4  14
HETATM   14  C5          0      43.169   5.359 -12.121  1.00  0.00     0.025 C 
HETATM   15  C6          0      42.341   6.180 -12.872  1.00  0.00     0.004 C 
HETATM   16  C7          0      42.946   7.089 -13.734  1.00  0.00     0.026 C 
HETATM   17  C8          0      44.321   7.092 -13.944  1.00  0.00     0.112 C 
HETATM   18  C10         0      44.952   5.886 -13.669  1.00  0.00     0.112 C 
HETATM   19  C12         0      44.369   5.033 -12.739  1.00  0.00     0.028 C 
BRANCH  17  20
HETATM   20  O9          0      44.997   8.272 -14.198  1.00  0.00    -0.357 OA
HETATM   21  H9          0      45.942   8.360 -14.151  1.00  0.00     0.218 HD
ENDBRANCH  17  20
BRANCH  18  22
HETATM   22  O11         0      46.285   5.775 -14.038  1.00  0.00    -0.357 OA
HETATM   23  H11         0      46.720   6.571 -14.323  1.00  0.00     0.218 HD
ENDBRANCH  18  22
ENDBRANCH   4  14
BRANCH   8  24
HETATM   24  O17         0      46.035   6.113  -6.060  1.00  0.00    -0.359 OA
HETATM   25  H17         0      46.603   5.515  -5.589  1.00  0.00     0.218 HD
ENDBRANCH   8  24
TORSDOF 5
ENDMDL
MODEL 2
REMARK VINA RESULT:      -4.5      2.958      5.677
REMARK  5 active torsions:
REMARK  status: ('A' for Active; 'I' for Inactive)
REMARK    1  A    between atoms: C4_4  and  C5_5 
REMARK    2  A    between atoms: C8_8  and  O9_9 
REMARK    3  A    between atoms: C10_11  and  O11_12 
REMARK    4  A    between atoms: C16_18  and  O17_19 
REMARK    5  A    between atoms: C19_22  and  O20_23 
ROOT
HETATM    1  O1          0      44.477   8.360  -3.523  1.00  0.00    -0.286 OA
HETATM    2  C2          0      44.750   7.298  -4.146  1.00  0.00     0.201 C 
HETATM    3  C3          0      44.373   7.081  -5.461  1.00  0.00     0.067 C 
HETATM    4  C4          0      44.597   5.862  -6.091  1.00  0.00     0.103 C 
HETATM    5  O13         0      45.203   4.900  -5.417  1.00  0.00    -0.307 OA
HETATM    6  C14         0      45.548   5.041  -4.155  1.00  0.00     0.107 C 
HETATM    7  C15         0      45.805   3.948  -3.341  1.00  0.00     0.049 C 
HETATM    8  C16         0      45.917   4.084  -1.963  1.00  0.00     0.093 C 
HETATM    9  C18         0      46.286   5.351  -1.527  1.00  0.00     0.048 C 
HETATM   10  C19         0      46.086   6.462  -2.335  1.00  0.00     0.096 C 
HETATM   11  C21         0      45.536   6.306  -3.578  1.00  0.00     0.084 C 
ENDROOT
BRANCH  10  12
HETATM   12  O20         0      46.042   7.726  -1.755  1.00  0.00    -0.359 OA
HETATM   13  H20         0      46.042   7.781  -0.807  1.00  0.00     0.218 HD
ENDBRANCH  10  12
BRANCH   4  14
HETATM   14  C5          0      43.691   5.495  -7.181  1.00  0.00     0.025 C 
HETATM   15  C6          0      43.065   6.435  -7.986  1.00  0.00     0.004 C 
HETATM   16  C7          0      42.931   6.138  -9.339  1.00  0.00     0.026 C 
HETATM   17  C8          0      43.286   4.894  -9.851  1.00  0.00     0.112 C 
HETATM   18  C10         0      43.287   3.863  -8.921  1.00  0.00     0.112 C 
HETATM   19  C12         0      43.508   4.179  -7.586  1.00  0.00     0.028 C 
BRANCH  17  20
HETATM   20  O9          0      43.794   4.774 -11.132  1.00  0.00    -0.357 OA
HETATM   21  H9          0      43.383   4.259 -11.817  1.00  0.00     0.218 HD
ENDBRANCH  17  20
BRANCH  18  22
HETATM   22  O11         0      43.448   2.575  -9.411  1.00  0.00    -0.357 OA
HETATM   23  H11         0      42.875   2.311 -10.122  1.00  0.00     0.218 HD
ENDBRANCH  18  22
ENDBRANCH   4  14
BRANCH   8  24
HETATM   24  O17         0      45.375   3.134  -1.090  1.00  0.00    -0.359 OA
HETATM   25  H17         0      45.268   2.226  -1.345  1.00  0.00     0.218 HD
ENDBRANCH   8  24
TORSDOF 5
ENDMDL
MODEL 3
REMARK VINA RESULT:      -4.5      3.013      5.467
REMARK  5 active torsions:
REMARK  status: ('A' for Active; 'I' for Inactive)
REMARK    1  A    between atoms: C4_4  and  C5_5 
REMARK    2  A    between atoms: C8_8  and  O9_9 
REMARK    3  A    between atoms: C10_11  and  O11_12 
REMARK    4  A    between atoms: C16_18  and  O17_19 
REMARK    5  A    between atoms: C19_22  and  O20_23 
ROOT
HETATM    1  O1          0      44.238   8.578  -3.268  1.00  0.00    -0.286 OA
HETATM    2  C2          0      44.509   7.632  -4.057  1.00  0.00     0.201 C 
HETATM    3  C3          0      44.082   7.606  -5.374  1.00  0.00     0.067 C 
HETATM    4  C4          0      44.306   6.505  -6.191  1.00  0.00     0.103 C 
HETATM    5  O13         0      44.961   5.469  -5.696  1.00  0.00    -0.307 OA
HETATM    6  C14         0      45.355   5.426  -4.442  1.00  0.00     0.107 C 
HETATM    7  C15         0      45.670   4.229  -3.816  1.00  0.00     0.049 C 
HETATM    8  C16         0      45.836   4.158  -2.438  1.00  0.00     0.093 C 
HETATM    9  C18         0      46.196   5.353  -1.827  1.00  0.00     0.048 C 
HETATM   10  C19         0      45.937   6.568  -2.447  1.00  0.00     0.096 C 
HETATM   11  C21         0      45.339   6.588  -3.678  1.00  0.00     0.084 C 
ENDROOT
BRANCH  10  12
HETATM   12  O20         0      45.889   7.727  -1.679  1.00  0.00    -0.359 OA
HETATM   13  H20         0      45.699   8.546  -2.121  1.00  0.00     0.218 HD
ENDBRANCH  10  12
BRANCH   4  14
HETATM   14  C5          0      43.364   6.283  -7.290  1.00  0.00     0.025 C 
HETATM   15  C6          0      42.111   6.877  -7.337  1.00  0.00     0.004 C 
HETATM   16  C7          0      41.648   7.305  -8.577  1.00  0.00     0.026 C 
HETATM   17  C8          0      42.343   7.031  -9.750  1.00  0.00     0.112 C 
HETATM   18  C10         0      43.193   5.936  -9.678  1.00  0.00     0.112 C 
HETATM   19  C12         0      43.710   5.582  -8.438  1.00  0.00     0.028 C 
BRANCH  17  20
HETATM   20  O9          0      42.327   7.923 -10.808  1.00  0.00    -0.357 OA
HETATM   21  H9          0      43.091   8.403 -11.106  1.00  0.00     0.218 HD
ENDBRANCH  17  20
BRANCH  18  22
HETATM   22  O11         0      43.766   5.505 -10.867  1.00  0.00    -0.357 OA
HETATM   23  H11         0      44.410   4.809 -10.806  1.00  0.00     0.218 HD
ENDBRANCH  18  22
ENDBRANCH   4  14
BRANCH   8  24
HETATM   24  O17         0      45.353   3.071  -1.700  1.00  0.00    -0.359 OA
HETATM   25  H17         0      45.856   2.271  -1.603  1.00  0.00     0.218 HD
ENDBRANCH   8  24
TORSDOF 5
ENDMDL
MODEL 4
REMARK VINA RESULT:      -4.4      3.102      5.781
REMARK  5 active torsions:
REMARK  status: ('A' for Active; 'I' for Inactive)
REMARK    1  A    between atoms: C4_4  and  C5_5 
REMARK    2  A    between atoms: C8_8  and  O9_9 
REMARK    3  A    between atoms: C10_11  and  O11_12 
REMARK    4  A    between atoms: C16_18  and  O17_19 
REMARK    5  A    between atoms: C19_22  and  O20_23 
ROOT
HETATM    1  O1          0      44.216   8.249  -3.856  1.00  0.00    -0.286 OA
HETATM    2  C2          0      44.639   7.184  -4.386  1.00  0.00     0.201 C 
HETATM    3  C3          0      44.438   6.879  -5.721  1.00  0.00     0.067 C 
HETATM    4  C4          0      44.825   5.655  -6.255  1.00  0.00     0.103 C 
HETATM    5  O13         0      45.414   4.776  -5.464  1.00  0.00    -0.307 OA
HETATM    6  C14         0      45.595   5.000  -4.181  1.00  0.00     0.107 C 
HETATM    7  C15         0      45.833   3.968  -3.285  1.00  0.00     0.049 C 
HETATM    8  C16         0      45.769   4.175  -1.912  1.00  0.00     0.093 C 
HETATM    9  C18         0      45.990   5.485  -1.505  1.00  0.00     0.048 C 
HETATM   10  C19         0      45.807   6.539  -2.390  1.00  0.00     0.096 C 
HETATM   11  C21         0      45.421   6.285  -3.678  1.00  0.00     0.084 C 
ENDROOT
BRANCH  10  12
HETATM   12  O20         0      45.601   7.821  -1.888  1.00  0.00    -0.359 OA
HETATM   13  H20         0      44.716   8.070  -1.654  1.00  0.00     0.218 HD
ENDBRANCH  10  12
BRANCH   4  14
HETATM   14  C5          0      44.084   5.169  -7.420  1.00  0.00     0.025 C 
HETATM   15  C6          0      43.263   4.051  -7.378  1.00  0.00     0.004 C 
HETATM   16  C7          0      42.077   4.094  -8.104  1.00  0.00     0.026 C 
HETATM   17  C8          0      41.779   5.156  -8.951  1.00  0.00     0.112 C 
HETATM   18  C10         0      42.884   5.865  -9.403  1.00  0.00     0.112 C 
HETATM   19  C12         0      44.029   5.875  -8.615  1.00  0.00     0.028 C 
BRANCH  17  20
HETATM   20  O9          0      40.473   5.571  -9.135  1.00  0.00    -0.357 OA
HETATM   21  H9          0      40.233   6.395  -9.544  1.00  0.00     0.218 HD
ENDBRANCH  17  20
BRANCH  18  22
HETATM   22  O11         0      42.663   6.810 -10.394  1.00  0.00    -0.357 OA
HETATM   23  H11         0      42.120   7.556 -10.164  1.00  0.00     0.218 HD
ENDBRANCH  18  22
ENDBRANCH   4  14
BRANCH   8  24
HETATM   24  O17         0      45.198   3.225  -1.057  1.00  0.00    -0.359 OA
HETATM   25  H17         0      45.732   2.646  -0.526  1.00  0.00     0.218 HD
ENDBRANCH   8  24
TORSDOF 5
ENDMDL
MODEL 5
REMARK VINA RESULT:      -4.3      1.674      6.464
REMARK  5 active torsions:
REMARK  status: ('A' for Active; 'I' for Inactive)
REMARK    1  A    between atoms: C4_4  and  C5_5 
REMARK    2  A    between atoms: C8_8  and  O9_9 
REMARK    3  A    between atoms: C10_11  and  O11_12 
REMARK    4  A    between atoms: C16_18  and  O17_19 
REMARK    5  A    between atoms: C19_22  and  O20_23 
ROOT
HETATM    1  O1          0      41.299   8.103 -11.740  1.00  0.00    -0.286 OA
HETATM    2  C2          0      41.914   7.077 -11.339  1.00  0.00     0.201 C 
HETATM    3  C3          0      41.856   6.631 -10.029  1.00  0.00     0.067 C 
HETATM    4  C4          0      42.624   5.559  -9.590  1.00  0.00     0.103 C 
HETATM    5  O13         0      43.409   4.943 -10.456  1.00  0.00    -0.307 OA
HETATM    6  C14         0      43.529   5.349 -11.701  1.00  0.00     0.107 C 
HETATM    7  C15         0      44.613   4.985 -12.487  1.00  0.00     0.049 C 
HETATM    8  C16         0      44.868   5.612 -13.701  1.00  0.00     0.093 C 
HETATM    9  C18         0      43.758   6.188 -14.308  1.00  0.00     0.048 C 
HETATM   10  C19         0      42.638   6.521 -13.559  1.00  0.00     0.096 C 
HETATM   11  C21         0      42.619   6.267 -12.215  1.00  0.00     0.084 C 
ENDROOT
BRANCH  10  12
HETATM   12  O20         0      41.743   7.463 -14.057  1.00  0.00    -0.359 OA
HETATM   13  H20         0      40.944   7.619 -13.569  1.00  0.00     0.218 HD
ENDBRANCH  10  12
BRANCH   4  14
HETATM   14  C5          0      42.978   5.526  -8.170  1.00  0.00     0.025 C 
HETATM   15  C6          0      43.450   4.384  -7.539  1.00  0.00     0.004 C 
HETATM   16  C7          0      44.451   4.542  -6.586  1.00  0.00     0.026 C 
HETATM   17  C8          0      44.876   5.801  -6.175  1.00  0.00     0.112 C 
HETATM   18  C10         0      43.950   6.817  -6.369  1.00  0.00     0.112 C 
HETATM   19  C12         0      43.013   6.671  -7.385  1.00  0.00     0.028 C 
BRANCH  17  20
HETATM   20  O9          0      46.192   6.020  -5.809  1.00  0.00    -0.357 OA
HETATM   21  H9          0      46.615   6.871  -5.843  1.00  0.00     0.218 HD
ENDBRANCH  17  20
BRANCH  18  22
HETATM   22  O11         0      44.245   8.051  -5.808  1.00  0.00    -0.357 OA
HETATM   23  H11         0      43.773   8.288  -5.017  1.00  0.00     0.218 HD
ENDBRANCH  18  22
ENDBRANCH   4  14
BRANCH   8  24
HETATM   24  O17         0      46.171   5.929 -14.099  1.00  0.00    -0.359 OA
HETATM   25  H17         0      46.806   6.289 -13.490  1.00  0.00     0.218 HD
ENDBRANCH   8  24
TORSDOF 5
ENDMDL
MODEL 6
REMARK VINA RESULT:      -4.3      3.418      8.199
REMARK  5 active torsions:
REMARK  status: ('A' for Active; 'I' for Inactive)
REMARK    1  A    between atoms: C4_4  and  C5_5 
REMARK    2  A    between atoms: C8_8  and  O9_9 
REMARK    3  A    between atoms: C10_11  and  O11_12 
REMARK    4  A    between atoms: C16_18  and  O17_19 
REMARK    5  A    between atoms: C19_22  and  O20_23 
ROOT
HETATM    1  O1          0      42.989   2.192  -5.763  1.00  0.00    -0.286 OA
HETATM    2  C2          0      43.714   3.215  -5.629  1.00  0.00     0.201 C 
HETATM    3  C3          0      44.405   3.498  -4.463  1.00  0.00     0.067 C 
HETATM    4  C4          0      45.115   4.683  -4.306  1.00  0.00     0.103 C 
HETATM    5  O13         0      45.140   5.545  -5.307  1.00  0.00    -0.307 OA
HETATM    6  C14         0      44.471   5.343  -6.421  1.00  0.00     0.107 C 
HETATM    7  C15         0      44.165   6.382  -7.288  1.00  0.00     0.049 C 
HETATM    8  C16         0      43.251   6.214  -8.321  1.00  0.00     0.093 C 
HETATM    9  C18         0      43.089   4.904  -8.755  1.00  0.00     0.048 C 
HETATM   10  C19         0      43.429   3.840  -7.930  1.00  0.00     0.096 C 
HETATM   11  C21         0      43.943   4.084  -6.685  1.00  0.00     0.084 C 
ENDROOT
BRANCH  10  12
HETATM   12  O20         0      42.877   2.587  -8.174  1.00  0.00    -0.359 OA
HETATM   13  H20         0      43.392   1.822  -7.947  1.00  0.00     0.218 HD
ENDBRANCH  10  12
BRANCH   4  14
HETATM   14  C5          0      45.290   5.182  -2.941  1.00  0.00     0.025 C 
HETATM   15  C6          0      44.983   4.427  -1.819  1.00  0.00     0.004 C 
HETATM   16  C7          0      45.827   4.534  -0.718  1.00  0.00     0.026 C 
HETATM   17  C8          0      46.864   5.461  -0.682  1.00  0.00     0.112 C 
HETATM   18  C10         0      46.697   6.551  -1.526  1.00  0.00     0.112 C 
HETATM   19  C12         0      45.916   6.391  -2.665  1.00  0.00     0.028 C 
BRANCH  17  20
HETATM   20  O9          0      48.042   5.180  -0.013  1.00  0.00    -0.357 OA
HETATM   21  H9          0      48.105   5.094   0.931  1.00  0.00     0.218 HD
ENDBRANCH  17  20
BRANCH  18  22
HETATM   22  O11         0      47.603   7.593  -1.393  1.00  0.00    -0.357 OA
HETATM   23  H11         0      47.831   7.854  -0.508  1.00  0.00     0.218 HD
ENDBRANCH  18  22
ENDBRANCH   4  14
BRANCH   8  24
HETATM   24  O17         0      42.333   7.217  -8.653  1.00  0.00    -0.359 OA
HETATM   25  H17         0      42.361   8.074  -8.243  1.00  0.00     0.218 HD
ENDBRANCH   8  24
TORSDOF 5
ENDMDL
MODEL 7
REMARK VINA RESULT:      -4.3      3.320      7.922
REMARK  5 active torsions:
REMARK  status: ('A' for Active; 'I' for Inactive)
REMARK    1  A    between atoms: C4_4  and  C5_5 
REMARK    2  A    between atoms: C8_8  and  O9_9 
REMARK    3  A    between atoms: C10_11  and  O11_12 
REMARK    4  A    between atoms: C16_18  and  O17_19 
REMARK    5  A    between atoms: C19_22  and  O20_23 
ROOT
HETATM    1  O1          0      43.769   3.483  -7.991  1.00  0.00    -0.286 OA
HETATM    2  C2          0      43.936   4.444  -7.190  1.00  0.00     0.201 C 
HETATM    3  C3          0      44.592   4.306  -5.979  1.00  0.00     0.067 C 
HETATM    4  C4          0      44.673   5.356  -5.071  1.00  0.00     0.103 C 
HETATM    5  O13         0      44.125   6.515  -5.390  1.00  0.00    -0.307 OA
HETATM    6  C14         0      43.458   6.688  -6.510  1.00  0.00     0.107 C 
HETATM    7  C15         0      42.562   7.734  -6.672  1.00  0.00     0.049 C 
HETATM    8  C16         0      41.680   7.769  -7.746  1.00  0.00     0.093 C 
HETATM    9  C18         0      42.087   7.050  -8.863  1.00  0.00     0.048 C 
HETATM   10  C19         0      43.018   6.028  -8.744  1.00  0.00     0.096 C 
HETATM   11  C21         0      43.552   5.735  -7.518  1.00  0.00     0.084 C 
ENDROOT
BRANCH  10  12
HETATM   12  O20         0      43.092   5.055  -9.736  1.00  0.00    -0.359 OA
HETATM   13  H20         0      43.700   5.195 -10.452  1.00  0.00     0.218 HD
ENDBRANCH  10  12
BRANCH   4  14
HETATM   14  C5          0      44.813   5.007  -3.655  1.00  0.00     0.025 C 
HETATM   15  C6          0      44.303   3.835  -3.116  1.00  0.00     0.004 C 
HETATM   16  C7          0      45.062   3.189  -2.146  1.00  0.00     0.026 C 
HETATM   17  C8          0      46.223   3.755  -1.631  1.00  0.00     0.112 C 
HETATM   18  C10         0      46.295   5.137  -1.748  1.00  0.00     0.112 C 
HETATM   19  C12         0      45.594   5.750  -2.780  1.00  0.00     0.028 C 
BRANCH  17  20
HETATM   20  O9          0      47.286   2.961  -1.239  1.00  0.00    -0.357 OA
HETATM   21  H9          0      47.560   2.853  -0.335  1.00  0.00     0.218 HD
ENDBRANCH  17  20
BRANCH  18  22
HETATM   22  O11         0      47.338   5.770  -1.086  1.00  0.00    -0.357 OA
HETATM   23  H11         0      47.376   6.718  -1.150  1.00  0.00     0.218 HD
ENDBRANCH  18  22
ENDBRANCH   4  14
BRANCH   8  24
HETATM   24  O17         0      40.357   8.199  -7.589  1.00  0.00    -0.359 OA
HETATM   25  H17         0      40.139   8.964  -7.070  1.00  0.00     0.218 HD
ENDBRANCH   8  24
TORSDOF 5
ENDMDL
MODEL 8
REMARK VINA RESULT:      -4.2      4.039      8.571
REMARK  5 active torsions:
REMARK  status: ('A' for Active; 'I' for Inactive)
REMARK    1  A    between atoms: C4_4  and  C5_5 
REMARK    2  A    between atoms: C8_8  and  O9_9 
REMARK    3  A    between atoms: C10_11  and  O11_12 
REMARK    4  A    between atoms: C16_18  and  O17_19 
REMARK    5  A    between atoms: C19_22  and  O20_23 
ROOT
HETATM    1  O1          0      47.675   3.875 -18.277  1.00  0.00    -0.286 OA
HETATM    2  C2          0      47.523   4.650 -17.294  1.00  0.00     0.201 C 
HETATM    3  C3          0      46.493   4.509 -16.379  1.00  0.00     0.067 C 
HETATM    4  C4          0      46.287   5.437 -15.365  1.00  0.00     0.103 C 
HETATM    5  O13         0      47.113   6.464 -15.267  1.00  0.00    -0.307 OA
HETATM    6  C14         0      48.084   6.665 -16.131  1.00  0.00     0.107 C 
HETATM    7  C15         0      48.683   7.908 -16.280  1.00  0.00     0.049 C 
HETATM    8  C16         0      49.520   8.180 -17.356  1.00  0.00     0.093 C 
HETATM    9  C18         0      50.125   7.067 -17.926  1.00  0.00     0.048 C 
HETATM   10  C19         0      49.578   5.802 -17.757  1.00  0.00     0.096 C 
HETATM   11  C21         0      48.442   5.649 -17.009  1.00  0.00     0.084 C 
ENDROOT
BRANCH  10  12
HETATM   12  O20         0      49.910   4.792 -18.654  1.00  0.00    -0.359 OA
HETATM   13  H20         0      50.085   3.926 -18.305  1.00  0.00     0.218 HD
ENDBRANCH  10  12
BRANCH   4  14
HETATM   14  C5          0      44.923   5.578 -14.852  1.00  0.00     0.025 C 
HETATM   15  C6          0      44.172   4.500 -14.408  1.00  0.00     0.004 C 
HETATM   16  C7          0      43.361   4.695 -13.294  1.00  0.00     0.026 C 
HETATM   17  C8          0      43.199   5.951 -12.721  1.00  0.00     0.112 C 
HETATM   18  C10         0      43.455   7.016 -13.575  1.00  0.00     0.112 C 
HETATM   19  C12         0      44.335   6.817 -14.632  1.00  0.00     0.028 C 
BRANCH  17  20
HETATM   20  O9          0      43.007   6.089 -11.358  1.00  0.00    -0.357 OA
HETATM   21  H9          0      42.435   6.741 -10.968  1.00  0.00     0.218 HD
ENDBRANCH  17  20
BRANCH  18  22
HETATM   22  O11         0      43.127   8.283 -13.116  1.00  0.00    -0.357 OA
HETATM   23  H11         0      42.412   8.729 -13.555  1.00  0.00     0.218 HD
ENDBRANCH  18  22
ENDBRANCH   4  14
BRANCH   8  24
HETATM   24  O17         0      49.483   9.415 -18.013  1.00  0.00    -0.359 OA
HETATM   25  H17         0      50.191   9.700 -18.579  1.00  0.00     0.218 HD
ENDBRANCH   8  24
TORSDOF 5
ENDMDL
MODEL 9
REMARK VINA RESULT:      -4.2      3.094      5.055
REMARK  5 active torsions:
REMARK  status: ('A' for Active; 'I' for Inactive)
REMARK    1  A    between atoms: C4_4  and  C5_5 
REMARK    2  A    between atoms: C8_8  and  O9_9 
REMARK    3  A    between atoms: C10_11  and  O11_12 
REMARK    4  A    between atoms: C16_18  and  O17_19 
REMARK    5  A    between atoms: C19_22  and  O20_23 
ROOT
HETATM    1  O1          0      42.553   8.129  -5.526  1.00  0.00    -0.286 OA
HETATM    2  C2          0      43.271   7.193  -5.974  1.00  0.00     0.201 C 
HETATM    3  C3          0      43.050   6.601  -7.206  1.00  0.00     0.067 C 
HETATM    4  C4          0      43.791   5.504  -7.630  1.00  0.00     0.103 C 
HETATM    5  O13         0      44.741   5.035  -6.840  1.00  0.00    -0.307 OA
HETATM    6  C14         0      44.966   5.536  -5.645  1.00  0.00     0.107 C 
HETATM    7  C15         0      45.656   4.825  -4.673  1.00  0.00     0.049 C 
HETATM    8  C16         0      45.671   5.244  -3.348  1.00  0.00     0.093 C 
HETATM    9  C18         0      45.448   6.602  -3.159  1.00  0.00     0.048 C 
HETATM   10  C19         0      44.803   7.353  -4.132  1.00  0.00     0.096 C 
HETATM   11  C21         0      44.397   6.755  -5.294  1.00  0.00     0.084 C 
ENDROOT
BRANCH  10  12
HETATM   12  O20         0      44.205   8.558  -3.776  1.00  0.00    -0.359 OA
HETATM   13  H20         0      43.266   8.564  -3.631  1.00  0.00     0.218 HD
ENDBRANCH  10  12
BRANCH   4  14
HETATM   14  C5          0      43.154   4.594  -8.583  1.00  0.00     0.025 C 
HETATM   15  C6          0      43.114   4.841  -9.948  1.00  0.00     0.004 C 
HETATM   16  C7          0      43.271   3.756 -10.804  1.00  0.00     0.026 C 
HETATM   17  C8          0      43.332   2.451 -10.326  1.00  0.00     0.112 C 
HETATM   18  C10         0      42.743   2.262  -9.083  1.00  0.00     0.112 C 
HETATM   19  C12         0      42.675   3.344  -8.213  1.00  0.00     0.028 C 
BRANCH  17  20
HETATM   20  O9          0      44.107   1.498 -10.962  1.00  0.00    -0.357 OA
HETATM   21  H9          0      44.660   1.683 -11.712  1.00  0.00     0.218 HD
ENDBRANCH  17  20
BRANCH  18  22
HETATM   22  O11         0      42.607   0.953  -8.645  1.00  0.00    -0.357 OA
HETATM   23  H11         0      43.403   0.500  -8.388  1.00  0.00     0.218 HD
ENDBRANCH  18  22
ENDBRANCH   4  14
BRANCH   8  24
HETATM   24  O17         0      45.578   4.329  -2.293  1.00  0.00    -0.359 OA
HETATM   25  H17         0      46.240   4.282  -1.614  1.00  0.00     0.218 HD
ENDBRANCH   8  24
TORSDOF 5
ENDMDL
