MODEL 1
REMARK VINA RESULT:      -4.8      0.000      0.000
REMARK  5 active torsions:
REMARK  status: ('A' for Active; 'I' for Inactive)
REMARK    1  A    between atoms: C4_4  and  C5_5 
REMARK    2  A    between atoms: C8_8  and  O9_9 
REMARK    3  A    between atoms: C10_11  and  O11_12 
REMARK    4  A    between atoms: C16_18  and  O17_19 
REMARK    5  A    between atoms: C19_22  and  O20_23 
ROOT
HETATM    1  O1          0      60.587  63.681   2.271  1.00  0.00    -0.286 OA
HETATM    2  C2          0      61.550  63.568   3.077  1.00  0.00     0.201 C 
HETATM    3  C3          0      61.377  63.496   4.448  1.00  0.00     0.067 C 
HETATM    4  C4          0      62.460  63.475   5.319  1.00  0.00     0.103 C 
HETATM    5  O13         0      63.681  63.506   4.815  1.00  0.00    -0.307 OA
HETATM    6  C14         0      63.901  63.612   3.523  1.00  0.00     0.107 C 
HETATM    7  C15         0      65.122  64.040   3.022  1.00  0.00     0.049 C 
HETATM    8  C16         0      65.270  64.394   1.686  1.00  0.00     0.093 C 
HETATM    9  C18         0      64.354  63.811   0.820  1.00  0.00     0.048 C 
HETATM   10  C19         0      63.142  63.329   1.295  1.00  0.00     0.096 C 
HETATM   11  C21         0      62.854  63.413   2.630  1.00  0.00     0.084 C 
ENDROOT
BRANCH  10  12
HETATM   12  O20         0      62.082  63.159   0.409  1.00  0.00    -0.359 OA
HETATM   13  H20         0      61.509  63.901   0.253  1.00  0.00     0.218 HD
ENDBRANCH  10  12
BRANCH   4  14
HETATM   14  C5          0      62.243  63.995   6.671  1.00  0.00     0.025 C 
HETATM   15  C6          0      61.106  64.704   7.030  1.00  0.00     0.004 C 
HETATM   16  C7          0      60.575  64.473   8.294  1.00  0.00     0.026 C 
HETATM   17  C8          0      61.224  63.665   9.222  1.00  0.00     0.112 C 
HETATM   18  C10         0      62.592  63.536   9.021  1.00  0.00     0.112 C 
HETATM   19  C12         0      63.087  63.689   7.731  1.00  0.00     0.028 C 
BRANCH  17  20
HETATM   20  O9          0      60.505  62.903  10.125  1.00  0.00    -0.357 OA
HETATM   21  H9          0      59.760  63.229  10.616  1.00  0.00     0.218 HD
ENDBRANCH  17  20
BRANCH  18  22
HETATM   22  O11         0      63.317  62.900  10.019  1.00  0.00    -0.357 OA
HETATM   23  H11         0      62.829  62.350  10.620  1.00  0.00     0.218 HD
ENDBRANCH  18  22
ENDBRANCH   4  14
BRANCH   8  24
HETATM   24  O17         0      66.047  65.493   1.305  1.00  0.00    -0.359 OA
HETATM   25  H17         0      66.077  65.795   0.405  1.00  0.00     0.218 HD
ENDBRANCH   8  24
TORSDOF 5
ENDMDL
MODEL 2
REMARK VINA RESULT:      -4.6      1.331      2.624
REMARK  5 active torsions:
REMARK  status: ('A' for Active; 'I' for Inactive)
REMARK    1  A    between atoms: C4_4  and  C5_5 
REMARK    2  A    between atoms: C8_8  and  O9_9 
REMARK    3  A    between atoms: C10_11  and  O11_12 
REMARK    4  A    between atoms: C16_18  and  O17_19 
REMARK    5  A    between atoms: C19_22  and  O20_23 
ROOT
HETATM    1  O1          0      65.178  62.771   4.176  1.00  0.00    -0.286 OA
HETATM    2  C2          0      64.230  63.577   4.383  1.00  0.00     0.201 C 
HETATM    3  C3          0      63.954  64.105   5.633  1.00  0.00     0.067 C 
HETATM    4  C4          0      62.842  64.910   5.854  1.00  0.00     0.103 C 
HETATM    5  O13         0      62.047  65.188   4.836  1.00  0.00    -0.307 OA
HETATM    6  C14         0      62.242  64.682   3.638  1.00  0.00     0.107 C 
HETATM    7  C15         0      61.230  64.634   2.691  1.00  0.00     0.049 C 
HETATM    8  C16         0      61.361  63.879   1.532  1.00  0.00     0.093 C 
HETATM    9  C18         0      62.671  63.641   1.131  1.00  0.00     0.048 C 
HETATM   10  C19         0      63.714  63.726   2.044  1.00  0.00     0.096 C 
HETATM   11  C21         0      63.453  64.064   3.344  1.00  0.00     0.084 C 
ENDROOT
BRANCH  10  12
HETATM   12  O20         0      64.915  63.082   1.766  1.00  0.00    -0.359 OA
HETATM   13  H20         0      64.881  62.171   1.500  1.00  0.00     0.218 HD
ENDBRANCH  10  12
BRANCH   4  14
HETATM   14  C5          0      62.285  64.925   7.208  1.00  0.00     0.025 C 
HETATM   15  C6          0      61.050  65.483   7.507  1.00  0.00     0.004 C 
HETATM   16  C7          0      60.258  64.831   8.447  1.00  0.00     0.026 C 
HETATM   17  C8          0      60.730  63.738   9.165  1.00  0.00     0.112 C 
HETATM   18  C10         0      62.113  63.662   9.265  1.00  0.00     0.112 C 
HETATM   19  C12         0      62.880  64.250   8.266  1.00  0.00     0.028 C 
BRANCH  17  20
HETATM   20  O9          0      59.876  62.719   9.548  1.00  0.00    -0.357 OA
HETATM   21  H9          0      60.157  61.826   9.708  1.00  0.00     0.218 HD
ENDBRANCH  17  20
BRANCH  18  22
HETATM   22  O11         0      62.630  62.703  10.124  1.00  0.00    -0.357 OA
HETATM   23  H11         0      63.200  62.046   9.742  1.00  0.00     0.218 HD
ENDBRANCH  18  22
ENDBRANCH   4  14
BRANCH   8  24
HETATM   24  O17         0      60.289  63.143   1.015  1.00  0.00    -0.359 OA
HETATM   25  H17         0      60.272  62.853   0.111  1.00  0.00     0.218 HD
ENDBRANCH   8  24
TORSDOF 5
ENDMDL
MODEL 3
REMARK VINA RESULT:      -4.1      2.821      4.579
REMARK  5 active torsions:
REMARK  status: ('A' for Active; 'I' for Inactive)
REMARK    1  A    between atoms: C4_4  and  C5_5 
REMARK    2  A    between atoms: C8_8  and  O9_9 
REMARK    3  A    between atoms: C10_11  and  O11_12 
REMARK    4  A    between atoms: C16_18  and  O17_19 
REMARK    5  A    between atoms: C19_22  and  O20_23 
ROOT
HETATM    1  O1          0      62.704  66.255  -0.299  1.00  0.00    -0.286 OA
HETATM    2  C2          0      62.018  65.415   0.346  1.00  0.00     0.201 C 
HETATM    3  C3          0      62.195  65.183   1.699  1.00  0.00     0.067 C 
HETATM    4  C4          0      61.497  64.180   2.363  1.00  0.00     0.103 C 
HETATM    5  O13         0      60.633  63.449   1.682  1.00  0.00    -0.307 OA
HETATM    6  C14         0      60.454  63.603   0.388  1.00  0.00     0.107 C 
HETATM    7  C15         0      59.875  62.614  -0.393  1.00  0.00     0.049 C 
HETATM    8  C16         0      59.920  62.671  -1.781  1.00  0.00     0.093 C 
HETATM    9  C18         0      60.070  63.946  -2.311  1.00  0.00     0.048 C 
HETATM   10  C19         0      60.603  64.972  -1.542  1.00  0.00     0.096 C 
HETATM   11  C21         0      60.968  64.730  -0.246  1.00  0.00     0.084 C 
ENDROOT
BRANCH  10  12
HETATM   12  O20         0      61.146  66.086  -2.176  1.00  0.00    -0.359 OA
HETATM   13  H20         0      61.732  65.939  -2.908  1.00  0.00     0.218 HD
ENDBRANCH  10  12
BRANCH   4  14
HETATM   14  C5          0      62.127  63.601   3.552  1.00  0.00     0.025 C 
HETATM   15  C6          0      63.502  63.485   3.693  1.00  0.00     0.004 C 
HETATM   16  C7          0      64.041  63.717   4.955  1.00  0.00     0.026 C 
HETATM   17  C8          0      63.233  63.924   6.067  1.00  0.00     0.112 C 
HETATM   18  C10         0      61.950  63.404   5.957  1.00  0.00     0.112 C 
HETATM   19  C12         0      61.403  63.262   4.687  1.00  0.00     0.028 C 
BRANCH  17  20
HETATM   20  O9          0      63.635  64.766   7.089  1.00  0.00    -0.357 OA
HETATM   21  H9          0      63.032  65.237   7.653  1.00  0.00     0.218 HD
ENDBRANCH  17  20
BRANCH  18  22
HETATM   22  O11         0      61.167  63.415   7.102  1.00  0.00    -0.357 OA
HETATM   23  H11         0      61.384  62.783   7.778  1.00  0.00     0.218 HD
ENDBRANCH  18  22
ENDBRANCH   4  14
BRANCH   8  24
HETATM   24  O17         0      60.139  61.523  -2.551  1.00  0.00    -0.359 OA
HETATM   25  H17         0      59.784  60.679  -2.301  1.00  0.00     0.218 HD
ENDBRANCH   8  24
TORSDOF 5
ENDMDL
MODEL 4
REMARK VINA RESULT:      -4.1      1.577      2.059
REMARK  5 active torsions:
REMARK  status: ('A' for Active; 'I' for Inactive)
REMARK    1  A    between atoms: C4_4  and  C5_5 
REMARK    2  A    between atoms: C8_8  and  O9_9 
REMARK    3  A    between atoms: C10_11  and  O11_12 
REMARK    4  A    between atoms: C16_18  and  O17_19 
REMARK    5  A    between atoms: C19_22  and  O20_23 
ROOT
HETATM    1  O1          0      60.695  63.667   2.898  1.00  0.00    -0.286 OA
HETATM    2  C2          0      61.626  63.520   3.736  1.00  0.00     0.201 C 
HETATM    3  C3          0      61.400  63.419   5.098  1.00  0.00     0.067 C 
HETATM    4  C4          0      62.450  63.361   6.008  1.00  0.00     0.103 C 
HETATM    5  O13         0      63.689  63.382   5.550  1.00  0.00    -0.307 OA
HETATM    6  C14         0      63.959  63.514   4.270  1.00  0.00     0.107 C 
HETATM    7  C15         0      65.205  63.933   3.825  1.00  0.00     0.049 C 
HETATM    8  C16         0      65.408  64.314   2.504  1.00  0.00     0.093 C 
HETATM    9  C18         0      64.516  63.766   1.591  1.00  0.00     0.048 C 
HETATM   10  C19         0      63.279  63.294   2.010  1.00  0.00     0.096 C 
HETATM   11  C21         0      62.943  63.353   3.335  1.00  0.00     0.084 C 
ENDROOT
BRANCH  10  12
HETATM   12  O20         0      62.251  63.163   1.081  1.00  0.00    -0.359 OA
HETATM   13  H20         0      62.108  63.877   0.472  1.00  0.00     0.218 HD
ENDBRANCH  10  12
BRANCH   4  14
HETATM   14  C5          0      62.191  63.853   7.363  1.00  0.00     0.025 C 
HETATM   15  C6          0      63.135  63.797   8.377  1.00  0.00     0.004 C 
HETATM   16  C7          0      63.202  64.872   9.257  1.00  0.00     0.026 C 
HETATM   17  C8          0      62.274  65.908   9.214  1.00  0.00     0.112 C 
HETATM   18  C10         0      61.059  65.574   8.633  1.00  0.00     0.112 C 
HETATM   19  C12         0      61.035  64.550   7.693  1.00  0.00     0.028 C 
BRANCH  17  20
HETATM   20  O9          0      62.642  67.202   9.537  1.00  0.00    -0.357 OA
HETATM   21  H9          0      62.380  67.641  10.338  1.00  0.00     0.218 HD
ENDBRANCH  17  20
BRANCH  18  22
HETATM   22  O11         0      60.036  66.507   8.733  1.00  0.00    -0.357 OA
HETATM   23  H11         0      59.869  67.046   7.969  1.00  0.00     0.218 HD
ENDBRANCH  18  22
ENDBRANCH   4  14
BRANCH   8  24
HETATM   24  O17         0      66.216  65.409   2.178  1.00  0.00    -0.359 OA
HETATM   25  H17         0      66.748  65.849   2.830  1.00  0.00     0.218 HD
ENDBRANCH   8  24
TORSDOF 5
ENDMDL
MODEL 5
REMARK VINA RESULT:      -4.0      2.767      7.303
REMARK  5 active torsions:
REMARK  status: ('A' for Active; 'I' for Inactive)
REMARK    1  A    between atoms: C4_4  and  C5_5 
REMARK    2  A    between atoms: C8_8  and  O9_9 
REMARK    3  A    between atoms: C10_11  and  O11_12 
REMARK    4  A    between atoms: C16_18  and  O17_19 
REMARK    5  A    between atoms: C19_22  and  O20_23 
ROOT
HETATM    1  O1          0      64.160  66.095   2.953  1.00  0.00    -0.286 OA
HETATM    2  C2          0      63.366  65.122   2.831  1.00  0.00     0.201 C 
HETATM    3  C3          0      62.730  64.818   1.639  1.00  0.00     0.067 C 
HETATM    4  C4          0      61.783  63.804   1.557  1.00  0.00     0.103 C 
HETATM    5  O13         0      61.504  63.106   2.644  1.00  0.00    -0.307 OA
HETATM    6  C14         0      62.051  63.378   3.809  1.00  0.00     0.107 C 
HETATM    7  C15         0      61.490  62.941   5.000  1.00  0.00     0.049 C 
HETATM    8  C16         0      61.919  63.438   6.225  1.00  0.00     0.093 C 
HETATM    9  C18         0      63.216  63.937   6.234  1.00  0.00     0.048 C 
HETATM   10  C19         0      63.825  64.340   5.054  1.00  0.00     0.096 C 
HETATM   11  C21         0      63.150  64.229   3.869  1.00  0.00     0.084 C 
ENDROOT
BRANCH  10  12
HETATM   12  O20         0      64.904  65.217   5.110  1.00  0.00    -0.359 OA
HETATM   13  H20         0      65.151  65.565   5.958  1.00  0.00     0.218 HD
ENDBRANCH  10  12
BRANCH   4  14
HETATM   14  C5          0      60.761  63.925   0.516  1.00  0.00     0.025 C 
HETATM   15  C6          0      60.257  65.147   0.095  1.00  0.00     0.004 C 
HETATM   16  C7          0      59.990  65.302  -1.262  1.00  0.00     0.026 C 
HETATM   17  C8          0      60.092  64.237  -2.151  1.00  0.00     0.112 C 
HETATM   18  C10         0      59.974  62.982  -1.569  1.00  0.00     0.112 C 
HETATM   19  C12         0      60.328  62.838  -0.232  1.00  0.00     0.028 C 
BRANCH  17  20
HETATM   20  O9          0      60.491  64.442  -3.459  1.00  0.00    -0.357 OA
HETATM   21  H9          0      61.282  64.072  -3.834  1.00  0.00     0.218 HD
ENDBRANCH  17  20
BRANCH  18  22
HETATM   22  O11         0      59.878  61.897  -2.428  1.00  0.00    -0.357 OA
HETATM   23  H11         0      59.003  61.602  -2.653  1.00  0.00     0.218 HD
ENDBRANCH  18  22
ENDBRANCH   4  14
BRANCH   8  24
HETATM   24  O17         0      61.014  63.721   7.254  1.00  0.00    -0.359 OA
HETATM   25  H17         0      61.161  63.421   8.144  1.00  0.00     0.218 HD
ENDBRANCH   8  24
TORSDOF 5
ENDMDL
MODEL 6
REMARK VINA RESULT:      -3.9      3.000      7.089
REMARK  5 active torsions:
REMARK  status: ('A' for Active; 'I' for Inactive)
REMARK    1  A    between atoms: C4_4  and  C5_5 
REMARK    2  A    between atoms: C8_8  and  O9_9 
REMARK    3  A    between atoms: C10_11  and  O11_12 
REMARK    4  A    between atoms: C16_18  and  O17_19 
REMARK    5  A    between atoms: C19_22  and  O20_23 
ROOT
HETATM    1  O1          0      61.265  62.904   4.371  1.00  0.00    -0.286 OA
HETATM    2  C2          0      61.836  63.424   3.373  1.00  0.00     0.201 C 
HETATM    3  C3          0      61.154  63.799   2.229  1.00  0.00     0.067 C 
HETATM    4  C4          0      61.821  64.273   1.105  1.00  0.00     0.103 C 
HETATM    5  O13         0      63.137  64.385   1.148  1.00  0.00    -0.307 OA
HETATM    6  C14         0      63.836  64.008   2.196  1.00  0.00     0.107 C 
HETATM    7  C15         0      65.196  63.745   2.111  1.00  0.00     0.049 C 
HETATM    8  C16         0      65.874  63.108   3.144  1.00  0.00     0.093 C 
HETATM    9  C18         0      65.290  63.240   4.398  1.00  0.00     0.048 C 
HETATM   10  C19         0      63.942  63.549   4.520  1.00  0.00     0.096 C 
HETATM   11  C21         0      63.185  63.742   3.396  1.00  0.00     0.084 C 
ENDROOT
BRANCH  10  12
HETATM   12  O20         0      63.281  63.255   5.708  1.00  0.00    -0.359 OA
HETATM   13  H20         0      62.340  63.381   5.737  1.00  0.00     0.218 HD
ENDBRANCH  10  12
BRANCH   4  14
HETATM   14  C5          0      61.173  64.075  -0.193  1.00  0.00     0.025 C 
HETATM   15  C6          0      61.283  64.984  -1.235  1.00  0.00     0.004 C 
HETATM   16  C7          0      61.393  64.475  -2.525  1.00  0.00     0.026 C 
HETATM   17  C8          0      61.263  63.116  -2.786  1.00  0.00     0.112 C 
HETATM   18  C10         0      60.547  62.407  -1.830  1.00  0.00     0.112 C 
HETATM   19  C12         0      60.524  62.894  -0.528  1.00  0.00     0.028 C 
BRANCH  17  20
HETATM   20  O9          0      61.979  62.518  -3.808  1.00  0.00    -0.357 OA
HETATM   21  H9          0      62.634  61.844  -3.669  1.00  0.00     0.218 HD
ENDBRANCH  17  20
BRANCH  18  22
HETATM   22  O11         0      60.226  61.092  -2.132  1.00  0.00    -0.357 OA
HETATM   23  H11         0      59.527  60.693  -1.627  1.00  0.00     0.218 HD
ENDBRANCH  18  22
ENDBRANCH   4  14
BRANCH   8  24
HETATM   24  O17         0      66.856  62.145   2.887  1.00  0.00    -0.359 OA
HETATM   25  H17         0      67.241  61.627   3.584  1.00  0.00     0.218 HD
ENDBRANCH   8  24
TORSDOF 5
ENDMDL
MODEL 7
REMARK VINA RESULT:      -3.8      3.494      8.232
REMARK  5 active torsions:
REMARK  status: ('A' for Active; 'I' for Inactive)
REMARK    1  A    between atoms: C4_4  and  C5_5 
REMARK    2  A    between atoms: C8_8  and  O9_9 
REMARK    3  A    between atoms: C10_11  and  O11_12 
REMARK    4  A    between atoms: C16_18  and  O17_19 
REMARK    5  A    between atoms: C19_22  and  O20_23 
ROOT
HETATM    1  O1          0      60.003  63.625   1.688  1.00  0.00    -0.286 OA
HETATM    2  C2          0      61.122  63.531   1.113  1.00  0.00     0.201 C 
HETATM    3  C3          0      61.270  63.010  -0.161  1.00  0.00     0.067 C 
HETATM    4  C4          0      62.525  62.822  -0.731  1.00  0.00     0.103 C 
HETATM    5  O13         0      63.595  63.172  -0.038  1.00  0.00    -0.307 OA
HETATM    6  C14         0      63.512  63.636   1.189  1.00  0.00     0.107 C 
HETATM    7  C15         0      64.601  63.625   2.049  1.00  0.00     0.049 C 
HETATM    8  C16         0      64.449  63.874   3.408  1.00  0.00     0.093 C 
HETATM    9  C18         0      63.331  64.628   3.745  1.00  0.00     0.048 C 
HETATM   10  C19         0      62.243  64.698   2.887  1.00  0.00     0.096 C 
HETATM   11  C21         0      62.278  64.035   1.690  1.00  0.00     0.084 C 
ENDROOT
BRANCH  10  12
HETATM   12  O20         0      61.000  65.067   3.392  1.00  0.00    -0.359 OA
HETATM   13  H20         0      60.912  65.160   4.333  1.00  0.00     0.218 HD
ENDBRANCH  10  12
BRANCH   4  14
HETATM   14  C5          0      62.651  61.770  -1.740  1.00  0.00     0.025 C 
HETATM   15  C6          0      61.750  60.721  -1.850  1.00  0.00     0.004 C 
HETATM   16  C7          0      61.416  60.289  -3.130  1.00  0.00     0.026 C 
HETATM   17  C8          0      62.055  60.791  -4.259  1.00  0.00     0.112 C 
HETATM   18  C10         0      63.316  61.322  -4.023  1.00  0.00     0.112 C 
HETATM   19  C12         0      63.595  61.824  -2.758  1.00  0.00     0.028 C 
BRANCH  17  20
HETATM   20  O9          0      61.375  60.927  -5.456  1.00  0.00    -0.357 OA
HETATM   21  H9          0      61.484  61.666  -6.044  1.00  0.00     0.218 HD
ENDBRANCH  17  20
BRANCH  18  22
HETATM   22  O11         0      64.072  61.662  -5.136  1.00  0.00    -0.357 OA
HETATM   23  H11         0      63.753  61.364  -5.980  1.00  0.00     0.218 HD
ENDBRANCH  18  22
ENDBRANCH   4  14
BRANCH   8  24
HETATM   24  O17         0      65.164  63.148   4.367  1.00  0.00    -0.359 OA
HETATM   25  H17         0      65.105  62.201   4.422  1.00  0.00     0.218 HD
ENDBRANCH   8  24
TORSDOF 5
ENDMDL
MODEL 8
REMARK VINA RESULT:      -3.8      2.772      7.433
REMARK  5 active torsions:
REMARK  status: ('A' for Active; 'I' for Inactive)
REMARK    1  A    between atoms: C4_4  and  C5_5 
REMARK    2  A    between atoms: C8_8  and  O9_9 
REMARK    3  A    between atoms: C10_11  and  O11_12 
REMARK    4  A    between atoms: C16_18  and  O17_19 
REMARK    5  A    between atoms: C19_22  and  O20_23 
ROOT
HETATM    1  O1          0      61.392  62.585   0.050  1.00  0.00    -0.286 OA
HETATM    2  C2          0      62.499  62.887   0.574  1.00  0.00     0.201 C 
HETATM    3  C3          0      63.710  62.699  -0.070  1.00  0.00     0.067 C 
HETATM    4  C4          0      64.921  62.944   0.568  1.00  0.00     0.103 C 
HETATM    5  O13         0      64.903  63.388   1.813  1.00  0.00    -0.307 OA
HETATM    6  C14         0      63.783  63.548   2.482  1.00  0.00     0.107 C 
HETATM    7  C15         0      63.763  63.619   3.868  1.00  0.00     0.049 C 
HETATM    8  C16         0      62.572  63.531   4.578  1.00  0.00     0.093 C 
HETATM    9  C18         0      61.437  63.903   3.868  1.00  0.00     0.048 C 
HETATM   10  C19         0      61.437  63.889   2.479  1.00  0.00     0.096 C 
HETATM   11  C21         0      62.569  63.522   1.804  1.00  0.00     0.084 C 
ENDROOT
BRANCH  10  12
HETATM   12  O20         0      60.224  63.831   1.799  1.00  0.00    -0.359 OA
HETATM   13  H20         0      59.445  63.616   2.297  1.00  0.00     0.218 HD
ENDBRANCH  10  12
BRANCH   4  14
HETATM   14  C5          0      66.087  62.191   0.104  1.00  0.00     0.025 C 
HETATM   15  C6          0      66.284  61.854  -1.227  1.00  0.00     0.004 C 
HETATM   16  C7          0      67.584  61.909  -1.721  1.00  0.00     0.026 C 
HETATM   17  C8          0      68.670  62.160  -0.889  1.00  0.00     0.112 C 
HETATM   18  C10         0      68.458  61.854   0.449  1.00  0.00     0.112 C 
HETATM   19  C12         0      67.157  61.889   0.937  1.00  0.00     0.028 C 
BRANCH  17  20
HETATM   20  O9          0      69.773  62.854  -1.353  1.00  0.00    -0.357 OA
HETATM   21  H9          0      70.097  62.795  -2.245  1.00  0.00     0.218 HD
ENDBRANCH  17  20
BRANCH  18  22
HETATM   22  O11         0      69.563  61.905   1.287  1.00  0.00    -0.357 OA
HETATM   23  H11         0      69.866  61.080   1.650  1.00  0.00     0.218 HD
ENDBRANCH  18  22
ENDBRANCH   4  14
BRANCH   8  24
HETATM   24  O17         0      62.488  62.813   5.776  1.00  0.00    -0.359 OA
HETATM   25  H17         0      63.195  62.814   6.409  1.00  0.00     0.218 HD
ENDBRANCH   8  24
TORSDOF 5
ENDMDL
MODEL 9
REMARK VINA RESULT:      -3.7      1.578      2.022
REMARK  5 active torsions:
REMARK  status: ('A' for Active; 'I' for Inactive)
REMARK    1  A    between atoms: C4_4  and  C5_5 
REMARK    2  A    between atoms: C8_8  and  O9_9 
REMARK    3  A    between atoms: C10_11  and  O11_12 
REMARK    4  A    between atoms: C16_18  and  O17_19 
REMARK    5  A    between atoms: C19_22  and  O20_23 
ROOT
HETATM    1  O1          0      63.261  64.683   1.984  1.00  0.00    -0.286 OA
HETATM    2  C2          0      63.710  64.188   3.054  1.00  0.00     0.201 C 
HETATM    3  C3          0      62.955  64.090   4.211  1.00  0.00     0.067 C 
HETATM    4  C4          0      63.505  63.636   5.404  1.00  0.00     0.103 C 
HETATM    5  O13         0      64.775  63.273   5.420  1.00  0.00    -0.307 OA
HETATM    6  C14         0      65.546  63.382   4.360  1.00  0.00     0.107 C 
HETATM    7  C15         0      66.930  63.391   4.461  1.00  0.00     0.049 C 
HETATM    8  C16         0      67.730  63.758   3.385  1.00  0.00     0.093 C 
HETATM    9  C18         0      67.146  63.589   2.135  1.00  0.00     0.048 C 
HETATM   10  C19         0      65.765  63.529   2.004  1.00  0.00     0.096 C 
HETATM   11  C21         0      64.973  63.620   3.116  1.00  0.00     0.084 C 
ENDROOT
BRANCH  10  12
HETATM   12  O20         0      65.188  63.798   0.767  1.00  0.00    -0.359 OA
HETATM   13  H20         0      65.688  63.589  -0.013  1.00  0.00     0.218 HD
ENDBRANCH  10  12
BRANCH   4  14
HETATM   14  C5          0      62.891  64.109   6.647  1.00  0.00     0.025 C 
HETATM   15  C6          0      61.693  64.807   6.676  1.00  0.00     0.004 C 
HETATM   16  C7          0      60.812  64.532   7.716  1.00  0.00     0.026 C 
HETATM   17  C8          0      61.163  63.691   8.767  1.00  0.00     0.112 C 
HETATM   18  C10         0      62.530  63.566   8.977  1.00  0.00     0.112 C 
HETATM   19  C12         0      63.384  63.763   7.898  1.00  0.00     0.028 C 
BRANCH  17  20
HETATM   20  O9          0      60.214  62.898   9.388  1.00  0.00    -0.357 OA
HETATM   21  H9          0      59.414  62.606   8.968  1.00  0.00     0.218 HD
ENDBRANCH  17  20
BRANCH  18  22
HETATM   22  O11         0      62.931  62.894  10.123  1.00  0.00    -0.357 OA
HETATM   23  H11         0      62.359  62.204  10.438  1.00  0.00     0.218 HD
ENDBRANCH  18  22
ENDBRANCH   4  14
BRANCH   8  24
HETATM   24  O17         0      68.876  64.541   3.562  1.00  0.00    -0.359 OA
HETATM   25  H17         0      69.645  64.430   3.017  1.00  0.00     0.218 HD
ENDBRANCH   8  24
TORSDOF 5
ENDMDL
