MODEL 1
REMARK VINA RESULT:      -4.9      0.000      0.000
REMARK  5 active torsions:
REMARK  status: ('A' for Active; 'I' for Inactive)
REMARK    1  A    between atoms: C4_4  and  C5_5 
REMARK    2  A    between atoms: C8_8  and  O9_9 
REMARK    3  A    between atoms: C10_11  and  O11_12 
REMARK    4  A    between atoms: C16_18  and  O17_19 
REMARK    5  A    between atoms: C19_22  and  O20_23 
ROOT
HETATM    1  O1          0      52.832  15.476 -13.363  1.00  0.00    -0.286 OA
HETATM    2  C2          0      53.367  15.144 -14.456  1.00  0.00     0.201 C 
HETATM    3  C3          0      52.809  14.209 -15.311  1.00  0.00     0.067 C 
HETATM    4  C4          0      53.469  13.785 -16.459  1.00  0.00     0.103 C 
HETATM    5  O13         0      54.649  14.309 -16.743  1.00  0.00    -0.307 OA
HETATM    6  C14         0      55.240  15.172 -15.946  1.00  0.00     0.107 C 
HETATM    7  C15         0      56.604  15.415 -16.015  1.00  0.00     0.049 C 
HETATM    8  C16         0      57.263  16.125 -15.018  1.00  0.00     0.093 C 
HETATM    9  C18         0      56.460  16.992 -14.288  1.00  0.00     0.048 C 
HETATM   10  C19         0      55.085  16.806 -14.235  1.00  0.00     0.096 C 
HETATM   11  C21         0      54.514  15.769 -14.921  1.00  0.00     0.084 C 
ENDROOT
BRANCH  10  12
HETATM   12  O20         0      54.361  17.376 -13.193  1.00  0.00    -0.359 OA
HETATM   13  H20         0      53.908  18.194 -13.361  1.00  0.00     0.218 HD
ENDBRANCH  10  12
BRANCH   4  14
HETATM   14  C5          0      53.156  12.444 -16.956  1.00  0.00     0.025 C 
HETATM   15  C6          0      52.159  11.652 -16.405  1.00  0.00     0.004 C 
HETATM   16  C7          0      51.392  10.883 -17.274  1.00  0.00     0.026 C 
HETATM   17  C8          0      51.690  10.799 -18.630  1.00  0.00     0.112 C 
HETATM   18  C10         0      53.010  11.084 -18.952  1.00  0.00     0.112 C 
HETATM   19  C12         0      53.728  11.925 -18.110  1.00  0.00     0.028 C 
BRANCH  17  20
HETATM   20  O9          0      50.685  10.651 -19.569  1.00  0.00    -0.357 OA
HETATM   21  H9          0      50.508  11.283 -20.256  1.00  0.00     0.218 HD
ENDBRANCH  17  20
BRANCH  18  22
HETATM   22  O11         0      53.407  10.833 -20.258  1.00  0.00    -0.357 OA
HETATM   23  H11         0      52.764  10.988 -20.940  1.00  0.00     0.218 HD
ENDBRANCH  18  22
ENDBRANCH   4  14
BRANCH   8  24
HETATM   24  O17         0      58.533  15.746 -14.571  1.00  0.00    -0.359 OA
HETATM   25  H17         0      58.729  14.850 -14.325  1.00  0.00     0.218 HD
ENDBRANCH   8  24
TORSDOF 5
ENDMDL
MODEL 2
REMARK VINA RESULT:      -4.6      1.423      6.670
REMARK  5 active torsions:
REMARK  status: ('A' for Active; 'I' for Inactive)
REMARK    1  A    between atoms: C4_4  and  C5_5 
REMARK    2  A    between atoms: C8_8  and  O9_9 
REMARK    3  A    between atoms: C10_11  and  O11_12 
REMARK    4  A    between atoms: C16_18  and  O17_19 
REMARK    5  A    between atoms: C19_22  and  O20_23 
ROOT
HETATM    1  O1          0      50.648  12.716 -15.867  1.00  0.00    -0.286 OA
HETATM    2  C2          0      51.846  12.689 -16.260  1.00  0.00     0.201 C 
HETATM    3  C3          0      52.814  13.554 -15.777  1.00  0.00     0.067 C 
HETATM    4  C4          0      54.101  13.573 -16.301  1.00  0.00     0.103 C 
HETATM    5  O13         0      54.405  12.727 -17.269  1.00  0.00    -0.307 OA
HETATM    6  C14         0      53.514  11.911 -17.790  1.00  0.00     0.107 C 
HETATM    7  C15         0      53.698  11.327 -19.035  1.00  0.00     0.049 C 
HETATM    8  C16         0      52.657  10.678 -19.688  1.00  0.00     0.093 C 
HETATM    9  C18         0      51.654  10.193 -18.857  1.00  0.00     0.048 C 
HETATM   10  C19         0      51.472  10.724 -17.588  1.00  0.00     0.096 C 
HETATM   11  C21         0      52.298  11.721 -17.143  1.00  0.00     0.084 C 
ENDROOT
BRANCH  10  12
HETATM   12  O20         0      50.245  10.562 -16.952  1.00  0.00    -0.359 OA
HETATM   13  H20         0      49.633  11.287 -16.975  1.00  0.00     0.218 HD
ENDBRANCH  10  12
BRANCH   4  14
HETATM   14  C5          0      54.846  14.830 -16.204  1.00  0.00     0.025 C 
HETATM   15  C6          0      54.225  16.070 -16.157  1.00  0.00     0.004 C 
HETATM   16  C7          0      54.774  17.035 -15.320  1.00  0.00     0.026 C 
HETATM   17  C8          0      55.976  16.823 -14.653  1.00  0.00     0.112 C 
HETATM   18  C10         0      56.803  15.872 -15.235  1.00  0.00     0.112 C 
HETATM   19  C12         0      56.219  14.868 -15.999  1.00  0.00     0.028 C 
BRANCH  17  20
HETATM   20  O9          0      56.200  17.373 -13.403  1.00  0.00    -0.357 OA
HETATM   21  H9          0      57.064  17.563 -13.057  1.00  0.00     0.218 HD
ENDBRANCH  17  20
BRANCH  18  22
HETATM   22  O11         0      58.087  15.757 -14.723  1.00  0.00    -0.357 OA
HETATM   23  H11         0      58.383  16.450 -14.145  1.00  0.00     0.218 HD
ENDBRANCH  18  22
ENDBRANCH   4  14
BRANCH   8  24
HETATM   24  O17         0      52.472  10.805 -21.069  1.00  0.00    -0.359 OA
HETATM   25  H17         0      52.755  11.578 -21.542  1.00  0.00     0.218 HD
ENDBRANCH   8  24
TORSDOF 5
ENDMDL
MODEL 3
REMARK VINA RESULT:      -4.2      2.510      4.332
REMARK  5 active torsions:
REMARK  status: ('A' for Active; 'I' for Inactive)
REMARK    1  A    between atoms: C4_4  and  C5_5 
REMARK    2  A    between atoms: C8_8  and  O9_9 
REMARK    3  A    between atoms: C10_11  and  O11_12 
REMARK    4  A    between atoms: C16_18  and  O17_19 
REMARK    5  A    between atoms: C19_22  and  O20_23 
ROOT
HETATM    1  O1          0      57.078  16.763 -15.791  1.00  0.00    -0.286 OA
HETATM    2  C2          0      56.086  16.890 -15.023  1.00  0.00     0.201 C 
HETATM    3  C3          0      55.279  15.826 -14.657  1.00  0.00     0.067 C 
HETATM    4  C4          0      54.132  16.010 -13.893  1.00  0.00     0.103 C 
HETATM    5  O13         0      53.824  17.232 -13.494  1.00  0.00    -0.307 OA
HETATM    6  C14         0      54.535  18.281 -13.845  1.00  0.00     0.107 C 
HETATM    7  C15         0      54.020  19.568 -13.780  1.00  0.00     0.049 C 
HETATM    8  C16         0      54.670  20.637 -14.383  1.00  0.00     0.093 C 
HETATM    9  C18         0      56.038  20.467 -14.562  1.00  0.00     0.048 C 
HETATM   10  C19         0      56.594  19.195 -14.585  1.00  0.00     0.096 C 
HETATM   11  C21         0      55.791  18.100 -14.414  1.00  0.00     0.084 C 
ENDROOT
BRANCH  10  12
HETATM   12  O20         0      57.836  19.007 -15.182  1.00  0.00    -0.359 OA
HETATM   13  H20         0      58.216  19.735 -15.658  1.00  0.00     0.218 HD
ENDBRANCH  10  12
BRANCH   4  14
HETATM   14  C5          0      53.058  15.028 -14.051  1.00  0.00     0.025 C 
HETATM   15  C6          0      51.714  15.364 -13.967  1.00  0.00     0.004 C 
HETATM   16  C7          0      50.836  14.731 -14.840  1.00  0.00     0.026 C 
HETATM   17  C8          0      51.254  13.701 -15.676  1.00  0.00     0.112 C 
HETATM   18  C10         0      52.394  13.033 -15.248  1.00  0.00     0.112 C 
HETATM   19  C12         0      53.298  13.719 -14.445  1.00  0.00     0.028 C 
BRANCH  17  20
HETATM   20  O9          0      50.686  13.527 -16.926  1.00  0.00    -0.357 OA
HETATM   21  H9          0      50.076  14.141 -17.318  1.00  0.00     0.218 HD
ENDBRANCH  17  20
BRANCH  18  22
HETATM   22  O11         0      52.745  11.883 -15.939  1.00  0.00    -0.357 OA
HETATM   23  H11         0      52.134  11.573 -16.598  1.00  0.00     0.218 HD
ENDBRANCH  18  22
ENDBRANCH   4  14
BRANCH   8  24
HETATM   24  O17         0      53.959  21.638 -15.055  1.00  0.00    -0.359 OA
HETATM   25  H17         0      54.228  22.549 -15.022  1.00  0.00     0.218 HD
ENDBRANCH   8  24
TORSDOF 5
ENDMDL
MODEL 4
REMARK VINA RESULT:      -4.2      2.070      7.010
REMARK  5 active torsions:
REMARK  status: ('A' for Active; 'I' for Inactive)
REMARK    1  A    between atoms: C4_4  and  C5_5 
REMARK    2  A    between atoms: C8_8  and  O9_9 
REMARK    3  A    between atoms: C10_11  and  O11_12 
REMARK    4  A    between atoms: C16_18  and  O17_19 
REMARK    5  A    between atoms: C19_22  and  O20_23 
ROOT
HETATM    1  O1          0      55.628  12.556 -17.738  1.00  0.00    -0.286 OA
HETATM    2  C2          0      54.552  13.126 -17.409  1.00  0.00     0.201 C 
HETATM    3  C3          0      54.519  14.346 -16.756  1.00  0.00     0.067 C 
HETATM    4  C4          0      53.324  14.903 -16.313  1.00  0.00     0.103 C 
HETATM    5  O13         0      52.197  14.254 -16.543  1.00  0.00    -0.307 OA
HETATM    6  C14         0      52.176  13.074 -17.125  1.00  0.00     0.107 C 
HETATM    7  C15         0      51.086  12.224 -17.014  1.00  0.00     0.049 C 
HETATM    8  C16         0      51.165  10.893 -17.408  1.00  0.00     0.093 C 
HETATM    9  C18         0      52.138  10.621 -18.363  1.00  0.00     0.048 C 
HETATM   10  C19         0      53.218  11.476 -18.533  1.00  0.00     0.096 C 
HETATM   11  C21         0      53.318  12.605 -17.766  1.00  0.00     0.084 C 
ENDROOT
BRANCH  10  12
HETATM   12  O20         0      54.373  11.000 -19.146  1.00  0.00    -0.359 OA
HETATM   13  H20         0      54.675  11.441 -19.931  1.00  0.00     0.218 HD
ENDBRANCH  10  12
BRANCH   4  14
HETATM   14  C5          0      53.393  15.811 -15.166  1.00  0.00     0.025 C 
HETATM   15  C6          0      54.492  15.873 -14.322  1.00  0.00     0.004 C 
HETATM   16  C7          0      54.872  17.126 -13.850  1.00  0.00     0.026 C 
HETATM   17  C8          0      54.108  18.261 -14.098  1.00  0.00     0.112 C 
HETATM   18  C10         0      52.771  18.011 -14.375  1.00  0.00     0.112 C 
HETATM   19  C12         0      52.430  16.781 -14.926  1.00  0.00     0.028 C 
BRANCH  17  20
HETATM   20  O9          0      54.708  19.498 -14.258  1.00  0.00    -0.357 OA
HETATM   21  H9          0      54.428  20.283 -13.802  1.00  0.00     0.218 HD
ENDBRANCH  17  20
BRANCH  18  22
HETATM   22  O11         0      51.927  19.110 -14.443  1.00  0.00    -0.357 OA
HETATM   23  H11         0      51.037  18.989 -14.132  1.00  0.00     0.218 HD
ENDBRANCH  18  22
ENDBRANCH   4  14
BRANCH   8  24
HETATM   24  O17         0      50.559   9.875 -16.664  1.00  0.00    -0.359 OA
HETATM   25  H17         0      51.069   9.262 -16.149  1.00  0.00     0.218 HD
ENDBRANCH   8  24
TORSDOF 5
ENDMDL
MODEL 5
REMARK VINA RESULT:      -4.2      2.343      6.378
REMARK  5 active torsions:
REMARK  status: ('A' for Active; 'I' for Inactive)
REMARK    1  A    between atoms: C4_4  and  C5_5 
REMARK    2  A    between atoms: C8_8  and  O9_9 
REMARK    3  A    between atoms: C10_11  and  O11_12 
REMARK    4  A    between atoms: C16_18  and  O17_19 
REMARK    5  A    between atoms: C19_22  and  O20_23 
ROOT
HETATM    1  O1          0      50.473  10.990 -17.821  1.00  0.00    -0.286 OA
HETATM    2  C2          0      51.523  11.538 -17.387  1.00  0.00     0.201 C 
HETATM    3  C3          0      51.609  12.099 -16.124  1.00  0.00     0.067 C 
HETATM    4  C4          0      52.743  12.788 -15.709  1.00  0.00     0.103 C 
HETATM    5  O13         0      53.766  12.887 -16.540  1.00  0.00    -0.307 OA
HETATM    6  C14         0      53.722  12.405 -17.763  1.00  0.00     0.107 C 
HETATM    7  C15         0      54.595  12.837 -18.751  1.00  0.00     0.049 C 
HETATM    8  C16         0      54.385  12.522 -20.088  1.00  0.00     0.093 C 
HETATM    9  C18         0      53.631  11.375 -20.309  1.00  0.00     0.048 C 
HETATM   10  C19         0      52.783  10.888 -19.324  1.00  0.00     0.096 C 
HETATM   11  C21         0      52.700  11.532 -18.120  1.00  0.00     0.084 C 
ENDROOT
BRANCH  10  12
HETATM   12  O20         0      51.740  10.040 -19.683  1.00  0.00    -0.359 OA
HETATM   13  H20         0      51.889   9.103 -19.629  1.00  0.00     0.218 HD
ENDBRANCH  10  12
BRANCH   4  14
HETATM   14  C5          0      52.563  13.822 -14.688  1.00  0.00     0.025 C 
HETATM   15  C6          0      53.625  14.405 -14.012  1.00  0.00     0.004 C 
HETATM   16  C7          0      53.544  15.766 -13.736  1.00  0.00     0.026 C 
HETATM   17  C8          0      52.391  16.496 -14.000  1.00  0.00     0.112 C 
HETATM   18  C10         0      51.228  15.741 -14.064  1.00  0.00     0.112 C 
HETATM   19  C12         0      51.329  14.403 -14.426  1.00  0.00     0.028 C 
BRANCH  17  20
HETATM   20  O9          0      52.464  17.827 -14.374  1.00  0.00    -0.357 OA
HETATM   21  H9          0      52.028  18.531 -13.909  1.00  0.00     0.218 HD
ENDBRANCH  17  20
BRANCH  18  22
HETATM   22  O11         0      50.029  16.437 -14.137  1.00  0.00    -0.357 OA
HETATM   23  H11         0      49.255  15.937 -14.370  1.00  0.00     0.218 HD
ENDBRANCH  18  22
ENDBRANCH   4  14
BRANCH   8  24
HETATM   24  O17         0      54.618  13.456 -21.103  1.00  0.00    -0.359 OA
HETATM   25  H17         0      55.438  13.931 -21.166  1.00  0.00     0.218 HD
ENDBRANCH   8  24
TORSDOF 5
ENDMDL
MODEL 6
REMARK VINA RESULT:      -4.1      1.674      6.579
REMARK  5 active torsions:
REMARK  status: ('A' for Active; 'I' for Inactive)
REMARK    1  A    between atoms: C4_4  and  C5_5 
REMARK    2  A    between atoms: C8_8  and  O9_9 
REMARK    3  A    between atoms: C10_11  and  O11_12 
REMARK    4  A    between atoms: C16_18  and  O17_19 
REMARK    5  A    between atoms: C19_22  and  O20_23 
ROOT
HETATM    1  O1          0      50.230  13.252 -15.742  1.00  0.00    -0.286 OA
HETATM    2  C2          0      51.477  13.110 -15.863  1.00  0.00     0.201 C 
HETATM    3  C3          0      52.392  13.884 -15.170  1.00  0.00     0.067 C 
HETATM    4  C4          0      53.759  13.777 -15.398  1.00  0.00     0.103 C 
HETATM    5  O13         0      54.187  12.897 -16.286  1.00  0.00    -0.307 OA
HETATM    6  C14         0      53.360  12.165 -16.999  1.00  0.00     0.107 C 
HETATM    7  C15         0      53.757  11.554 -18.180  1.00  0.00     0.049 C 
HETATM    8  C16         0      52.829  11.000 -19.054  1.00  0.00     0.093 C 
HETATM    9  C18         0      51.627  10.620 -18.469  1.00  0.00     0.048 C 
HETATM   10  C19         0      51.221  11.176 -17.263  1.00  0.00     0.096 C 
HETATM   11  C21         0      52.019  12.095 -16.637  1.00  0.00     0.084 C 
ENDROOT
BRANCH  10  12
HETATM   12  O20         0      49.875  11.136 -16.914  1.00  0.00    -0.359 OA
HETATM   13  H20         0      49.622  11.501 -16.075  1.00  0.00     0.218 HD
ENDBRANCH  10  12
BRANCH   4  14
HETATM   14  C5          0      54.578  14.959 -15.125  1.00  0.00     0.025 C 
HETATM   15  C6          0      55.561  15.410 -15.994  1.00  0.00     0.004 C 
HETATM   16  C7          0      55.707  16.785 -16.146  1.00  0.00     0.026 C 
HETATM   17  C8          0      54.993  17.685 -15.362  1.00  0.00     0.112 C 
HETATM   18  C10         0      54.550  17.173 -14.149  1.00  0.00     0.112 C 
HETATM   19  C12         0      54.331  15.804 -14.051  1.00  0.00     0.028 C 
BRANCH  17  20
HETATM   20  O9          0      54.593  18.907 -15.871  1.00  0.00    -0.357 OA
HETATM   21  H9          0      54.032  19.004 -16.632  1.00  0.00     0.218 HD
ENDBRANCH  17  20
BRANCH  18  22
HETATM   22  O11         0      54.000  18.075 -13.250  1.00  0.00    -0.357 OA
HETATM   23  H11         0      54.396  18.118 -12.387  1.00  0.00     0.218 HD
ENDBRANCH  18  22
ENDBRANCH   4  14
BRANCH   8  24
HETATM   24  O17         0      52.963  11.132 -20.440  1.00  0.00    -0.359 OA
HETATM   25  H17         0      52.305  11.570 -20.966  1.00  0.00     0.218 HD
ENDBRANCH   8  24
TORSDOF 5
ENDMDL
MODEL 7
REMARK VINA RESULT:      -4.1      1.651      2.866
REMARK  5 active torsions:
REMARK  status: ('A' for Active; 'I' for Inactive)
REMARK    1  A    between atoms: C4_4  and  C5_5 
REMARK    2  A    between atoms: C8_8  and  O9_9 
REMARK    3  A    between atoms: C10_11  and  O11_12 
REMARK    4  A    between atoms: C16_18  and  O17_19 
REMARK    5  A    between atoms: C19_22  and  O20_23 
ROOT
HETATM    1  O1          0      57.070  15.526 -16.122  1.00  0.00    -0.286 OA
HETATM    2  C2          0      55.895  15.137 -15.877  1.00  0.00     0.201 C 
HETATM    3  C3          0      55.355  13.988 -16.429  1.00  0.00     0.067 C 
HETATM    4  C4          0      54.025  13.637 -16.224  1.00  0.00     0.103 C 
HETATM    5  O13         0      53.273  14.415 -15.467  1.00  0.00    -0.307 OA
HETATM    6  C14         0      53.725  15.537 -14.950  1.00  0.00     0.107 C 
HETATM    7  C15         0      52.870  16.536 -14.508  1.00  0.00     0.049 C 
HETATM    8  C16         0      53.341  17.807 -14.203  1.00  0.00     0.093 C 
HETATM    9  C18         0      54.685  17.867 -13.854  1.00  0.00     0.048 C 
HETATM   10  C19         0      55.560  16.860 -14.240  1.00  0.00     0.096 C 
HETATM   11  C21         0      55.092  15.792 -14.956  1.00  0.00     0.084 C 
ENDROOT
BRANCH  10  12
HETATM   12  O20         0      56.925  17.124 -14.277  1.00  0.00    -0.359 OA
HETATM   13  H20         0      57.202  18.025 -14.390  1.00  0.00     0.218 HD
ENDBRANCH  10  12
BRANCH   4  14
HETATM   14  C5          0      53.381  12.822 -17.256  1.00  0.00     0.025 C 
HETATM   15  C6          0      52.036  12.938 -17.575  1.00  0.00     0.004 C 
HETATM   16  C7          0      51.680  12.826 -18.915  1.00  0.00     0.026 C 
HETATM   17  C8          0      52.608  12.476 -19.890  1.00  0.00     0.112 C 
HETATM   18  C10         0      53.713  11.783 -19.415  1.00  0.00     0.112 C 
HETATM   19  C12         0      54.099  11.979 -18.095  1.00  0.00     0.028 C 
BRANCH  17  20
HETATM   20  O9          0      52.510  12.979 -21.175  1.00  0.00    -0.357 OA
HETATM   21  H9          0      53.129  12.781 -21.868  1.00  0.00     0.218 HD
ENDBRANCH  17  20
BRANCH  18  22
HETATM   22  O11         0      54.573  11.247 -20.363  1.00  0.00    -0.357 OA
HETATM   23  H11         0      54.394  10.360 -20.654  1.00  0.00     0.218 HD
ENDBRANCH  18  22
ENDBRANCH   4  14
BRANCH   8  24
HETATM   24  O17         0      52.619  18.955 -14.550  1.00  0.00    -0.359 OA
HETATM   25  H17         0      52.945  19.574 -15.192  1.00  0.00     0.218 HD
ENDBRANCH   8  24
TORSDOF 5
ENDMDL
MODEL 8
REMARK VINA RESULT:      -4.0      9.961     13.639
REMARK  5 active torsions:
REMARK  status: ('A' for Active; 'I' for Inactive)
REMARK    1  A    between atoms: C4_4  and  C5_5 
REMARK    2  A    between atoms: C8_8  and  O9_9 
REMARK    3  A    between atoms: C10_11  and  O11_12 
REMARK    4  A    between atoms: C16_18  and  O17_19 
REMARK    5  A    between atoms: C19_22  and  O20_23 
ROOT
HETATM    1  O1          0      66.067  17.906 -10.218  1.00  0.00    -0.286 OA
HETATM    2  C2          0      65.852  16.703 -10.533  1.00  0.00     0.201 C 
HETATM    3  C3          0      66.793  15.702 -10.356  1.00  0.00     0.067 C 
HETATM    4  C4          0      66.570  14.406 -10.805  1.00  0.00     0.103 C 
HETATM    5  O13         0      65.421  14.127 -11.395  1.00  0.00    -0.307 OA
HETATM    6  C14         0      64.510  15.048 -11.621  1.00  0.00     0.107 C 
HETATM    7  C15         0      63.510  14.870 -12.567  1.00  0.00     0.049 C 
HETATM    8  C16         0      62.713  15.930 -12.982  1.00  0.00     0.093 C 
HETATM    9  C18         0      62.600  16.972 -12.069  1.00  0.00     0.048 C 
HETATM   10  C19         0      63.558  17.151 -11.081  1.00  0.00     0.096 C 
HETATM   11  C21         0      64.614  16.284 -10.993  1.00  0.00     0.084 C 
ENDROOT
BRANCH  10  12
HETATM   12  O20         0      63.685  18.397 -10.474  1.00  0.00    -0.359 OA
HETATM   13  H20         0      64.149  18.443  -9.646  1.00  0.00     0.218 HD
ENDBRANCH  10  12
BRANCH   4  14
HETATM   14  C5          0      67.747  13.601 -11.138  1.00  0.00     0.025 C 
HETATM   15  C6          0      68.290  12.667 -10.267  1.00  0.00     0.004 C 
HETATM   16  C7          0      68.773  11.482 -10.811  1.00  0.00     0.026 C 
HETATM   17  C8          0      68.837  11.284 -12.186  1.00  0.00     0.112 C 
HETATM   18  C10         0      68.882  12.450 -12.938  1.00  0.00     0.112 C 
HETATM   19  C12         0      68.316  13.602 -12.405  1.00  0.00     0.028 C 
BRANCH  17  20
HETATM   20  O9          0      68.655  10.025 -12.730  1.00  0.00    -0.357 OA
HETATM   21  H9          0      67.842   9.536 -12.670  1.00  0.00     0.218 HD
ENDBRANCH  17  20
BRANCH  18  22
HETATM   22  O11         0      69.136  12.313 -14.295  1.00  0.00    -0.357 OA
HETATM   23  H11         0      68.676  11.618 -14.752  1.00  0.00     0.218 HD
ENDBRANCH  18  22
ENDBRANCH   4  14
BRANCH   8  24
HETATM   24  O17         0      62.342  16.083 -14.322  1.00  0.00    -0.359 OA
HETATM   25  H17         0      61.498  15.789 -14.644  1.00  0.00     0.218 HD
ENDBRANCH   8  24
TORSDOF 5
ENDMDL
MODEL 9
REMARK VINA RESULT:      -4.0      3.346      5.091
REMARK  5 active torsions:
REMARK  status: ('A' for Active; 'I' for Inactive)
REMARK    1  A    between atoms: C4_4  and  C5_5 
REMARK    2  A    between atoms: C8_8  and  O9_9 
REMARK    3  A    between atoms: C10_11  and  O11_12 
REMARK    4  A    between atoms: C16_18  and  O17_19 
REMARK    5  A    between atoms: C19_22  and  O20_23 
ROOT
HETATM    1  O1          0      51.049  19.109 -16.204  1.00  0.00    -0.286 OA
HETATM    2  C2          0      52.119  18.818 -15.602  1.00  0.00     0.201 C 
HETATM    3  C3          0      52.777  17.613 -15.780  1.00  0.00     0.067 C 
HETATM    4  C4          0      53.897  17.276 -15.029  1.00  0.00     0.103 C 
HETATM    5  O13         0      54.348  18.142 -14.139  1.00  0.00    -0.307 OA
HETATM    6  C14         0      53.740  19.284 -13.903  1.00  0.00     0.107 C 
HETATM    7  C15         0      53.953  19.998 -12.733  1.00  0.00     0.049 C 
HETATM    8  C16         0      53.129  21.058 -12.375  1.00  0.00     0.093 C 
HETATM    9  C18         0      52.476  21.678 -13.433  1.00  0.00     0.048 C 
HETATM   10  C19         0      52.287  21.009 -14.635  1.00  0.00     0.096 C 
HETATM   11  C21         0      52.762  19.735 -14.784  1.00  0.00     0.084 C 
ENDROOT
BRANCH  10  12
HETATM   12  O20         0      51.288  21.439 -15.503  1.00  0.00    -0.359 OA
HETATM   13  H20         0      51.237  21.032 -16.359  1.00  0.00     0.218 HD
ENDBRANCH  10  12
BRANCH   4  14
HETATM   14  C5          0      54.161  15.851 -14.821  1.00  0.00     0.025 C 
HETATM   15  C6          0      53.431  15.072 -13.934  1.00  0.00     0.004 C 
HETATM   16  C7          0      53.136  13.767 -14.315  1.00  0.00     0.026 C 
HETATM   17  C8          0      53.660  13.209 -15.475  1.00  0.00     0.112 C 
HETATM   18  C10         0      54.829  13.806 -15.929  1.00  0.00     0.112 C 
HETATM   19  C12         0      55.059  15.138 -15.605  1.00  0.00     0.028 C 
BRANCH  17  20
HETATM   20  O9          0      52.938  12.282 -16.205  1.00  0.00    -0.357 OA
HETATM   21  H9          0      52.513  11.523 -15.822  1.00  0.00     0.218 HD
ENDBRANCH  17  20
BRANCH  18  22
HETATM   22  O11         0      55.495  13.174 -16.969  1.00  0.00    -0.357 OA
HETATM   23  H11         0      55.895  13.732 -17.626  1.00  0.00     0.218 HD
ENDBRANCH  18  22
ENDBRANCH   4  14
BRANCH   8  24
HETATM   24  O17         0      52.732  21.257 -11.047  1.00  0.00    -0.359 OA
HETATM   25  H17         0      53.182  20.838 -10.324  1.00  0.00     0.218 HD
ENDBRANCH   8  24
TORSDOF 5
ENDMDL
