MODEL 1
REMARK VINA RESULT:      -8.6      0.000      0.000
REMARK  5 active torsions:
REMARK  status: ('A' for Active; 'I' for Inactive)
REMARK    1  A    between atoms: C4_4  and  C5_5 
REMARK    2  A    between atoms: C8_8  and  O9_9 
REMARK    3  A    between atoms: C10_11  and  O11_12 
REMARK    4  A    between atoms: C16_18  and  O17_19 
REMARK    5  A    between atoms: C19_22  and  O20_23 
ROOT
HETATM    1  O1          0      32.774  86.026  -5.357  1.00  0.00    -0.286 OA
HETATM    2  C2          0      32.623  85.553  -6.517  1.00  0.00     0.201 C 
HETATM    3  C3          0      33.685  85.127  -7.297  1.00  0.00     0.067 C 
HETATM    4  C4          0      33.501  84.706  -8.610  1.00  0.00     0.103 C 
HETATM    5  O13         0      32.278  84.698  -9.108  1.00  0.00    -0.307 OA
HETATM    6  C14         0      31.241  85.128  -8.423  1.00  0.00     0.107 C 
HETATM    7  C15         0      30.056  85.497  -9.045  1.00  0.00     0.049 C 
HETATM    8  C16         0      29.064  86.185  -8.356  1.00  0.00     0.093 C 
HETATM    9  C18         0      29.075  86.006  -6.978  1.00  0.00     0.048 C 
HETATM   10  C19         0      30.230  85.593  -6.330  1.00  0.00     0.096 C 
HETATM   11  C21         0      31.363  85.342  -7.055  1.00  0.00     0.084 C 
ENDROOT
BRANCH  10  12
HETATM   12  O20         0      30.369  85.833  -4.966  1.00  0.00    -0.359 OA
HETATM   13  H20         0      31.210  85.653  -4.565  1.00  0.00     0.218 HD
ENDBRANCH  10  12
BRANCH   4  14
HETATM   14  C5          0      34.634  84.854  -9.525  1.00  0.00     0.025 C 
HETATM   15  C6          0      35.079  86.087  -9.979  1.00  0.00     0.004 C 
HETATM   16  C7          0      36.452  86.269 -10.111  1.00  0.00     0.026 C 
HETATM   17  C8          0      37.347  85.221  -9.928  1.00  0.00     0.112 C 
HETATM   18  C10         0      36.804  83.956 -10.109  1.00  0.00     0.112 C 
HETATM   19  C12         0      35.443  83.784  -9.887  1.00  0.00     0.028 C 
BRANCH  17  20
HETATM   20  O9          0      38.607  85.448  -9.402  1.00  0.00    -0.357 OA
HETATM   21  H9          0      38.779  86.049  -8.687  1.00  0.00     0.218 HD
ENDBRANCH  17  20
BRANCH  18  22
HETATM   22  O11         0      37.690  82.888 -10.125  1.00  0.00    -0.357 OA
HETATM   23  H11         0      37.406  82.100 -10.575  1.00  0.00     0.218 HD
ENDBRANCH  18  22
ENDBRANCH   4  14
BRANCH   8  24
HETATM   24  O17         0      28.343  87.222  -8.958  1.00  0.00    -0.359 OA
HETATM   25  H17         0      28.736  88.070  -9.127  1.00  0.00     0.218 HD
ENDBRANCH   8  24
TORSDOF 5
ENDMDL
MODEL 2
REMARK VINA RESULT:      -8.0      1.550      6.773
REMARK  5 active torsions:
REMARK  status: ('A' for Active; 'I' for Inactive)
REMARK    1  A    between atoms: C4_4  and  C5_5 
REMARK    2  A    between atoms: C8_8  and  O9_9 
REMARK    3  A    between atoms: C10_11  and  O11_12 
REMARK    4  A    between atoms: C16_18  and  O17_19 
REMARK    5  A    between atoms: C19_22  and  O20_23 
ROOT
HETATM    1  O1          0      35.745  86.800  -9.047  1.00  0.00    -0.286 OA
HETATM    2  C2          0      34.936  85.877  -9.337  1.00  0.00     0.201 C 
HETATM    3  C3          0      33.563  86.029  -9.252  1.00  0.00     0.067 C 
HETATM    4  C4          0      32.697  84.965  -9.479  1.00  0.00     0.103 C 
HETATM    5  O13         0      33.206  83.790  -9.803  1.00  0.00    -0.307 OA
HETATM    6  C14         0      34.503  83.583  -9.862  1.00  0.00     0.107 C 
HETATM    7  C15         0      35.043  82.306  -9.803  1.00  0.00     0.049 C 
HETATM    8  C16         0      36.404  82.106  -9.608  1.00  0.00     0.093 C 
HETATM    9  C18         0      37.215  83.162 -10.005  1.00  0.00     0.048 C 
HETATM   10  C19         0      36.697  84.445 -10.120  1.00  0.00     0.096 C 
HETATM   11  C21         0      35.373  84.668  -9.857  1.00  0.00     0.084 C 
ENDROOT
BRANCH  10  12
HETATM   12  O20         0      37.562  85.534 -10.083  1.00  0.00    -0.359 OA
HETATM   13  H20         0      38.465  85.394 -10.342  1.00  0.00     0.218 HD
ENDBRANCH  10  12
BRANCH   4  14
HETATM   14  C5          0      31.393  85.009  -8.813  1.00  0.00     0.025 C 
HETATM   15  C6          0      30.805  83.892  -8.237  1.00  0.00     0.004 C 
HETATM   16  C7          0      30.114  84.071  -7.043  1.00  0.00     0.026 C 
HETATM   17  C8          0      29.898  85.336  -6.508  1.00  0.00     0.112 C 
HETATM   18  C10         0      29.950  86.372  -7.431  1.00  0.00     0.112 C 
HETATM   19  C12         0      30.718  86.199  -8.576  1.00  0.00     0.028 C 
BRANCH  17  20
HETATM   20  O9          0      29.852  85.528  -5.139  1.00  0.00    -0.357 OA
HETATM   21  H9          0      30.419  85.077  -4.523  1.00  0.00     0.218 HD
ENDBRANCH  17  20
BRANCH  18  22
HETATM   22  O11         0      29.557  87.628  -6.988  1.00  0.00    -0.357 OA
HETATM   23  H11         0      28.625  87.771  -6.874  1.00  0.00     0.218 HD
ENDBRANCH  18  22
ENDBRANCH   4  14
BRANCH   8  24
HETATM   24  O17         0      36.880  81.084  -8.779  1.00  0.00    -0.359 OA
HETATM   25  H17         0      36.304  80.413  -8.432  1.00  0.00     0.218 HD
ENDBRANCH   8  24
TORSDOF 5
ENDMDL
MODEL 3
REMARK VINA RESULT:      -7.1      1.792      6.823
REMARK  5 active torsions:
REMARK  status: ('A' for Active; 'I' for Inactive)
REMARK    1  A    between atoms: C4_4  and  C5_5 
REMARK    2  A    between atoms: C8_8  and  O9_9 
REMARK    3  A    between atoms: C10_11  and  O11_12 
REMARK    4  A    between atoms: C16_18  and  O17_19 
REMARK    5  A    between atoms: C19_22  and  O20_23 
ROOT
HETATM    1  O1          0      34.257  86.877  -6.042  1.00  0.00    -0.286 OA
HETATM    2  C2          0      33.648  86.665  -7.127  1.00  0.00     0.201 C 
HETATM    3  C3          0      32.307  86.957  -7.304  1.00  0.00     0.067 C 
HETATM    4  C4          0      31.636  86.619  -8.474  1.00  0.00     0.103 C 
HETATM    5  O13         0      32.309  86.023  -9.442  1.00  0.00    -0.307 OA
HETATM    6  C14         0      33.574  85.689  -9.311  1.00  0.00     0.107 C 
HETATM    7  C15         0      34.167  84.734 -10.125  1.00  0.00     0.049 C 
HETATM    8  C16         0      35.415  84.203  -9.823  1.00  0.00     0.093 C 
HETATM    9  C18         0      36.224  85.015  -9.038  1.00  0.00     0.048 C 
HETATM   10  C19         0      35.669  86.011  -8.247  1.00  0.00     0.096 C 
HETATM   11  C21         0      34.314  86.207  -8.253  1.00  0.00     0.084 C 
ENDROOT
BRANCH  10  12
HETATM   12  O20         0      36.395  86.509  -7.170  1.00  0.00    -0.359 OA
HETATM   13  H20         0      36.558  85.927  -6.437  1.00  0.00     0.218 HD
ENDBRANCH  10  12
BRANCH   4  14
HETATM   14  C5          0      30.193  86.395  -8.378  1.00  0.00     0.025 C 
HETATM   15  C6          0      29.620  85.592  -7.402  1.00  0.00     0.004 C 
HETATM   16  C7          0      28.412  86.008  -6.852  1.00  0.00     0.026 C 
HETATM   17  C8          0      27.727  87.112  -7.346  1.00  0.00     0.112 C 
HETATM   18  C10         0      28.029  87.440  -8.661  1.00  0.00     0.112 C 
HETATM   19  C12         0      29.277  87.087  -9.160  1.00  0.00     0.028 C 
BRANCH  17  20
HETATM   20  O9          0      26.980  87.918  -6.506  1.00  0.00    -0.357 OA
HETATM   21  H9          0      26.472  88.664  -6.803  1.00  0.00     0.218 HD
ENDBRANCH  17  20
BRANCH  18  22
HETATM   22  O11         0      27.241  88.411  -9.264  1.00  0.00    -0.357 OA
HETATM   23  H11         0      27.679  89.206  -9.546  1.00  0.00     0.218 HD
ENDBRANCH  18  22
ENDBRANCH   4  14
BRANCH   8  24
HETATM   24  O17         0      35.692  82.843 -10.005  1.00  0.00    -0.359 OA
HETATM   25  H17         0      36.419  82.419  -9.564  1.00  0.00     0.218 HD
ENDBRANCH   8  24
TORSDOF 5
ENDMDL
MODEL 4
REMARK VINA RESULT:      -6.9     12.733     15.457
REMARK  5 active torsions:
REMARK  status: ('A' for Active; 'I' for Inactive)
REMARK    1  A    between atoms: C4_4  and  C5_5 
REMARK    2  A    between atoms: C8_8  and  O9_9 
REMARK    3  A    between atoms: C10_11  and  O11_12 
REMARK    4  A    between atoms: C16_18  and  O17_19 
REMARK    5  A    between atoms: C19_22  and  O20_23 
ROOT
HETATM    1  O1          0      19.875  76.967  -0.739  1.00  0.00    -0.286 OA
HETATM    2  C2          0      20.908  76.649  -1.391  1.00  0.00     0.201 C 
HETATM    3  C3          0      21.637  77.562  -2.132  1.00  0.00     0.067 C 
HETATM    4  C4          0      22.710  77.167  -2.923  1.00  0.00     0.103 C 
HETATM    5  O13         0      23.046  75.890  -2.945  1.00  0.00    -0.307 OA
HETATM    6  C14         0      22.364  74.976  -2.290  1.00  0.00     0.107 C 
HETATM    7  C15         0      22.448  73.629  -2.612  1.00  0.00     0.049 C 
HETATM    8  C16         0      21.546  72.706  -2.097  1.00  0.00     0.093 C 
HETATM    9  C18         0      20.948  73.076  -0.899  1.00  0.00     0.048 C 
HETATM   10  C19         0      20.888  74.411  -0.522  1.00  0.00     0.096 C 
HETATM   11  C21         0      21.437  75.369  -1.330  1.00  0.00     0.084 C 
ENDROOT
BRANCH  10  12
HETATM   12  O20         0      19.940  74.812   0.414  1.00  0.00    -0.359 OA
HETATM   13  H20         0      19.799  75.743   0.534  1.00  0.00     0.218 HD
ENDBRANCH  10  12
BRANCH   4  14
HETATM   14  C5          0      23.028  78.000  -4.085  1.00  0.00     0.025 C 
HETATM   15  C6          0      22.060  78.473  -4.958  1.00  0.00     0.004 C 
HETATM   16  C7          0      22.218  79.761  -5.459  1.00  0.00     0.026 C 
HETATM   17  C8          0      23.365  80.506  -5.208  1.00  0.00     0.112 C 
HETATM   18  C10         0      24.488  79.752  -4.892  1.00  0.00     0.112 C 
HETATM   19  C12         0      24.303  78.502  -4.314  1.00  0.00     0.028 C 
BRANCH  17  20
HETATM   20  O9          0      23.304  81.883  -5.082  1.00  0.00    -0.357 OA
HETATM   21  H9          0      23.973  82.404  -4.654  1.00  0.00     0.218 HD
ENDBRANCH  17  20
BRANCH  18  22
HETATM   22  O11         0      25.698  80.428  -4.818  1.00  0.00    -0.357 OA
HETATM   23  H11         0      26.122  80.641  -5.642  1.00  0.00     0.218 HD
ENDBRANCH  18  22
ENDBRANCH   4  14
BRANCH   8  24
HETATM   24  O17         0      21.037  71.667  -2.884  1.00  0.00    -0.359 OA
HETATM   25  H17         0      20.650  70.891  -2.496  1.00  0.00     0.218 HD
ENDBRANCH   8  24
TORSDOF 5
ENDMDL
MODEL 5
REMARK VINA RESULT:      -6.8      1.890      6.610
REMARK  5 active torsions:
REMARK  status: ('A' for Active; 'I' for Inactive)
REMARK    1  A    between atoms: C4_4  and  C5_5 
REMARK    2  A    between atoms: C8_8  and  O9_9 
REMARK    3  A    between atoms: C10_11  and  O11_12 
REMARK    4  A    between atoms: C16_18  and  O17_19 
REMARK    5  A    between atoms: C19_22  and  O20_23 
ROOT
HETATM    1  O1          0      35.624  86.886  -8.772  1.00  0.00    -0.286 OA
HETATM    2  C2          0      34.546  86.311  -9.087  1.00  0.00     0.201 C 
HETATM    3  C3          0      33.338  86.980  -9.181  1.00  0.00     0.067 C 
HETATM    4  C4          0      32.148  86.305  -9.428  1.00  0.00     0.103 C 
HETATM    5  O13         0      32.184  84.994  -9.595  1.00  0.00    -0.307 OA
HETATM    6  C14         0      33.299  84.306  -9.479  1.00  0.00     0.107 C 
HETATM    7  C15         0      33.292  82.937  -9.254  1.00  0.00     0.049 C 
HETATM    8  C16         0      34.447  82.261  -8.880  1.00  0.00     0.093 C 
HETATM    9  C18         0      35.635  82.876  -9.256  1.00  0.00     0.048 C 
HETATM   10  C19         0      35.668  84.236  -9.534  1.00  0.00     0.096 C 
HETATM   11  C21         0      34.518  84.974  -9.453  1.00  0.00     0.084 C 
ENDROOT
BRANCH  10  12
HETATM   12  O20         0      36.882  84.912  -9.477  1.00  0.00    -0.359 OA
HETATM   13  H20         0      36.904  85.814  -9.773  1.00  0.00     0.218 HD
ENDBRANCH  10  12
BRANCH   4  14
HETATM   14  C5          0      30.914  86.918  -8.932  1.00  0.00     0.025 C 
HETATM   15  C6          0      30.007  87.560  -9.762  1.00  0.00     0.004 C 
HETATM   16  C7          0      28.653  87.393  -9.489  1.00  0.00     0.026 C 
HETATM   17  C8          0      28.216  86.723  -8.351  1.00  0.00     0.112 C 
HETATM   18  C10         0      29.134  86.688  -7.310  1.00  0.00     0.112 C 
HETATM   19  C12         0      30.486  86.771  -7.619  1.00  0.00     0.028 C 
BRANCH  17  20
HETATM   20  O9          0      27.047  85.983  -8.370  1.00  0.00    -0.357 OA
HETATM   21  H9          0      26.584  85.708  -7.587  1.00  0.00     0.218 HD
ENDBRANCH  17  20
BRANCH  18  22
HETATM   22  O11         0      28.683  86.201  -6.092  1.00  0.00    -0.357 OA
HETATM   23  H11         0      27.765  86.336  -5.887  1.00  0.00     0.218 HD
ENDBRANCH  18  22
ENDBRANCH   4  14
BRANCH   8  24
HETATM   24  O17         0      34.417  81.242  -7.922  1.00  0.00    -0.359 OA
HETATM   25  H17         0      34.639  80.344  -8.140  1.00  0.00     0.218 HD
ENDBRANCH   8  24
TORSDOF 5
ENDMDL
MODEL 6
REMARK VINA RESULT:      -6.8     15.314     17.915
REMARK  5 active torsions:
REMARK  status: ('A' for Active; 'I' for Inactive)
REMARK    1  A    between atoms: C4_4  and  C5_5 
REMARK    2  A    between atoms: C8_8  and  O9_9 
REMARK    3  A    between atoms: C10_11  and  O11_12 
REMARK    4  A    between atoms: C16_18  and  O17_19 
REMARK    5  A    between atoms: C19_22  and  O20_23 
ROOT
HETATM    1  O1          0      21.979  71.268  -3.046  1.00  0.00    -0.286 OA
HETATM    2  C2          0      21.348  72.267  -2.604  1.00  0.00     0.201 C 
HETATM    3  C3          0      21.229  73.452  -3.310  1.00  0.00     0.067 C 
HETATM    4  C4          0      20.617  74.571  -2.757  1.00  0.00     0.103 C 
HETATM    5  O13         0      20.122  74.485  -1.534  1.00  0.00    -0.307 OA
HETATM    6  C14         0      20.241  73.396  -0.807  1.00  0.00     0.107 C 
HETATM    7  C15         0      20.095  73.419   0.572  1.00  0.00     0.049 C 
HETATM    8  C16         0      20.469  72.334   1.356  1.00  0.00     0.093 C 
HETATM    9  C18         0      20.473  71.109   0.699  1.00  0.00     0.048 C 
HETATM   10  C19         0      20.570  71.052  -0.685  1.00  0.00     0.096 C 
HETATM   11  C21         0      20.646  72.210  -1.409  1.00  0.00     0.084 C 
ENDROOT
BRANCH  10  12
HETATM   12  O20         0      21.006  69.876  -1.288  1.00  0.00    -0.359 OA
HETATM   13  H20         0      21.901  69.600  -1.131  1.00  0.00     0.218 HD
ENDBRANCH  10  12
BRANCH   4  14
HETATM   14  C5          0      21.041  75.881  -3.255  1.00  0.00     0.025 C 
HETATM   15  C6          0      21.174  76.991  -2.433  1.00  0.00     0.004 C 
HETATM   16  C7          0      22.237  77.853  -2.682  1.00  0.00     0.026 C 
HETATM   17  C8          0      23.061  77.694  -3.791  1.00  0.00     0.112 C 
HETATM   18  C10         0      22.488  76.993  -4.844  1.00  0.00     0.112 C 
HETATM   19  C12         0      21.485  76.074  -4.557  1.00  0.00     0.028 C 
BRANCH  17  20
HETATM   20  O9          0      24.402  78.031  -3.732  1.00  0.00    -0.357 OA
HETATM   21  H9          0      25.108  77.396  -3.776  1.00  0.00     0.218 HD
ENDBRANCH  17  20
BRANCH  18  22
HETATM   22  O11         0      23.191  76.968  -6.039  1.00  0.00    -0.357 OA
HETATM   23  H11         0      24.017  77.438  -6.062  1.00  0.00     0.218 HD
ENDBRANCH  18  22
ENDBRANCH   4  14
BRANCH   8  24
HETATM   24  O17         0      21.109  72.510   2.588  1.00  0.00    -0.359 OA
HETATM   25  H17         0      21.391  71.771   3.114  1.00  0.00     0.218 HD
ENDBRANCH   8  24
TORSDOF 5
ENDMDL
MODEL 7
REMARK VINA RESULT:      -6.8     14.929     17.860
REMARK  5 active torsions:
REMARK  status: ('A' for Active; 'I' for Inactive)
REMARK    1  A    between atoms: C4_4  and  C5_5 
REMARK    2  A    between atoms: C8_8  and  O9_9 
REMARK    3  A    between atoms: C10_11  and  O11_12 
REMARK    4  A    between atoms: C16_18  and  O17_19 
REMARK    5  A    between atoms: C19_22  and  O20_23 
ROOT
HETATM    1  O1          0      20.080  77.385  -0.060  1.00  0.00    -0.286 OA
HETATM    2  C2          0      20.348  76.586  -0.999  1.00  0.00     0.201 C 
HETATM    3  C3          0      20.004  75.245  -0.965  1.00  0.00     0.067 C 
HETATM    4  C4          0      20.401  74.366  -1.966  1.00  0.00     0.103 C 
HETATM    5  O13         0      21.106  74.835  -2.980  1.00  0.00    -0.307 OA
HETATM    6  C14         0      21.491  76.091  -3.042  1.00  0.00     0.107 C 
HETATM    7  C15         0      22.536  76.496  -3.860  1.00  0.00     0.049 C 
HETATM    8  C16         0      23.102  77.759  -3.736  1.00  0.00     0.093 C 
HETATM    9  C18         0      22.271  78.723  -3.178  1.00  0.00     0.048 C 
HETATM   10  C19         0      21.188  78.351  -2.392  1.00  0.00     0.096 C 
HETATM   11  C21         0      20.927  77.025  -2.180  1.00  0.00     0.084 C 
ENDROOT
BRANCH  10  12
HETATM   12  O20         0      20.642  79.274  -1.505  1.00  0.00    -0.359 OA
HETATM   13  H20         0      21.157  80.043  -1.290  1.00  0.00     0.218 HD
ENDBRANCH  10  12
BRANCH   4  14
HETATM   14  C5          0      20.545  72.956  -1.600  1.00  0.00     0.025 C 
HETATM   15  C6          0      21.383  72.084  -2.281  1.00  0.00     0.004 C 
HETATM   16  C7          0      22.080  71.142  -1.530  1.00  0.00     0.026 C 
HETATM   17  C8          0      21.851  70.981  -0.168  1.00  0.00     0.112 C 
HETATM   18  C10         0      20.607  71.418   0.267  1.00  0.00     0.112 C 
HETATM   19  C12         0      19.971  72.421  -0.454  1.00  0.00     0.028 C 
BRANCH  17  20
HETATM   20  O9          0      22.877  70.612   0.684  1.00  0.00    -0.357 OA
HETATM   21  H9          0      23.791  70.575   0.425  1.00  0.00     0.218 HD
ENDBRANCH  17  20
BRANCH  18  22
HETATM   22  O11         0      20.254  71.110   1.573  1.00  0.00    -0.357 OA
HETATM   23  H11         0      20.839  71.412   2.259  1.00  0.00     0.218 HD
ENDBRANCH  18  22
ENDBRANCH   4  14
BRANCH   8  24
HETATM   24  O17         0      24.484  77.952  -3.843  1.00  0.00    -0.359 OA
HETATM   25  H17         0      24.850  78.762  -4.180  1.00  0.00     0.218 HD
ENDBRANCH   8  24
TORSDOF 5
ENDMDL
MODEL 8
REMARK VINA RESULT:      -6.7      2.772      7.019
REMARK  5 active torsions:
REMARK  status: ('A' for Active; 'I' for Inactive)
REMARK    1  A    between atoms: C4_4  and  C5_5 
REMARK    2  A    between atoms: C8_8  and  O9_9 
REMARK    3  A    between atoms: C10_11  and  O11_12 
REMARK    4  A    between atoms: C16_18  and  O17_19 
REMARK    5  A    between atoms: C19_22  and  O20_23 
ROOT
HETATM    1  O1          0      32.446  86.124  -5.687  1.00  0.00    -0.286 OA
HETATM    2  C2          0      31.871  85.956  -6.798  1.00  0.00     0.201 C 
HETATM    3  C3          0      30.775  86.703  -7.195  1.00  0.00     0.067 C 
HETATM    4  C4          0      30.097  86.429  -8.378  1.00  0.00     0.103 C 
HETATM    5  O13         0      30.530  85.443  -9.143  1.00  0.00    -0.307 OA
HETATM    6  C14         0      31.542  84.679  -8.795  1.00  0.00     0.107 C 
HETATM    7  C15         0      31.747  83.431  -9.365  1.00  0.00     0.049 C 
HETATM    8  C16         0      32.654  82.529  -8.821  1.00  0.00     0.093 C 
HETATM    9  C18         0      33.673  83.103  -8.070  1.00  0.00     0.048 C 
HETATM   10  C19         0      33.520  84.370  -7.524  1.00  0.00     0.096 C 
HETATM   11  C21         0      32.363  85.067  -7.741  1.00  0.00     0.084 C 
ENDROOT
BRANCH  10  12
HETATM   12  O20         0      34.318  84.748  -6.449  1.00  0.00    -0.359 OA
HETATM   13  H20         0      34.347  85.669  -6.219  1.00  0.00     0.218 HD
ENDBRANCH  10  12
BRANCH   4  14
HETATM   14  C5          0      28.683  86.802  -8.441  1.00  0.00     0.025 C 
HETATM   15  C6          0      27.790  86.540  -7.412  1.00  0.00     0.004 C 
HETATM   16  C7          0      26.827  87.505  -7.134  1.00  0.00     0.026 C 
HETATM   17  C8          0      26.670  88.632  -7.934  1.00  0.00     0.112 C 
HETATM   18  C10         0      27.141  88.490  -9.233  1.00  0.00     0.112 C 
HETATM   19  C12         0      28.163  87.578  -9.469  1.00  0.00     0.028 C 
BRANCH  17  20
HETATM   20  O9          0      26.272  89.839  -7.389  1.00  0.00    -0.357 OA
HETATM   21  H9          0      25.612  90.402  -7.777  1.00  0.00     0.218 HD
ENDBRANCH  17  20
BRANCH  18  22
HETATM   22  O11         0      26.841  89.510 -10.125  1.00  0.00    -0.357 OA
HETATM   23  H11         0      26.651  89.256 -11.020  1.00  0.00     0.218 HD
ENDBRANCH  18  22
ENDBRANCH   4  14
BRANCH   8  24
HETATM   24  O17         0      32.370  81.161  -8.752  1.00  0.00    -0.359 OA
HETATM   25  H17         0      32.827  80.586  -8.150  1.00  0.00     0.218 HD
ENDBRANCH   8  24
TORSDOF 5
ENDMDL
MODEL 9
REMARK VINA RESULT:      -6.3      1.963      2.764
REMARK  5 active torsions:
REMARK  status: ('A' for Active; 'I' for Inactive)
REMARK    1  A    between atoms: C4_4  and  C5_5 
REMARK    2  A    between atoms: C8_8  and  O9_9 
REMARK    3  A    between atoms: C10_11  and  O11_12 
REMARK    4  A    between atoms: C16_18  and  O17_19 
REMARK    5  A    between atoms: C19_22  and  O20_23 
ROOT
HETATM    1  O1          0      29.767  86.272  -6.013  1.00  0.00    -0.286 OA
HETATM    2  C2          0      29.920  86.268  -7.265  1.00  0.00     0.201 C 
HETATM    3  C3          0      31.063  85.787  -7.881  1.00  0.00     0.067 C 
HETATM    4  C4          0      31.249  85.890  -9.255  1.00  0.00     0.103 C 
HETATM    5  O13         0      30.297  86.443  -9.985  1.00  0.00    -0.307 OA
HETATM    6  C14         0      29.209  86.949  -9.447  1.00  0.00     0.107 C 
HETATM    7  C15         0      28.416  87.864 -10.125  1.00  0.00     0.049 C 
HETATM    8  C16         0      27.423  88.583  -9.470  1.00  0.00     0.093 C 
HETATM    9  C18         0      26.927  87.984  -8.319  1.00  0.00     0.048 C 
HETATM   10  C19         0      27.675  87.031  -7.641  1.00  0.00     0.096 C 
HETATM   11  C21         0      28.903  86.665  -8.120  1.00  0.00     0.084 C 
ENDROOT
BRANCH  10  12
HETATM   12  O20         0      27.391  86.767  -6.305  1.00  0.00    -0.359 OA
HETATM   13  H20         0      27.586  85.900  -5.971  1.00  0.00     0.218 HD
ENDBRANCH  10  12
BRANCH   4  14
HETATM   14  C5          0      32.629  85.938  -9.742  1.00  0.00     0.025 C 
HETATM   15  C6          0      33.290  87.128 -10.011  1.00  0.00     0.004 C 
HETATM   16  C7          0      34.639  87.205  -9.679  1.00  0.00     0.026 C 
HETATM   17  C8          0      35.342  86.095  -9.222  1.00  0.00     0.112 C 
HETATM   18  C10         0      34.795  84.872  -9.585  1.00  0.00     0.112 C 
HETATM   19  C12         0      33.428  84.806  -9.828  1.00  0.00     0.028 C 
BRANCH  17  20
HETATM   20  O9          0      36.370  86.236  -8.307  1.00  0.00    -0.357 OA
HETATM   21  H9          0      37.085  86.853  -8.407  1.00  0.00     0.218 HD
ENDBRANCH  17  20
BRANCH  18  22
HETATM   22  O11         0      35.553  83.741  -9.319  1.00  0.00    -0.357 OA
HETATM   23  H11         0      35.509  83.034  -9.953  1.00  0.00     0.218 HD
ENDBRANCH  18  22
ENDBRANCH   4  14
BRANCH   8  24
HETATM   24  O17         0      27.193  89.934  -9.755  1.00  0.00    -0.359 OA
HETATM   25  H17         0      26.743  90.207 -10.545  1.00  0.00     0.218 HD
ENDBRANCH   8  24
TORSDOF 5
ENDMDL
