MODEL 1
REMARK VINA RESULT:      -5.7      0.000      0.000
REMARK  5 active torsions:
REMARK  status: ('A' for Active; 'I' for Inactive)
REMARK    1  A    between atoms: C4_4  and  C5_5 
REMARK    2  A    between atoms: C8_8  and  O9_9 
REMARK    3  A    between atoms: C10_11  and  O11_12 
REMARK    4  A    between atoms: C16_18  and  O17_19 
REMARK    5  A    between atoms: C19_22  and  O20_23 
ROOT
HETATM    1  O1          0      21.705  96.326   5.354  1.00  0.00    -0.286 OA
HETATM    2  C2          0      22.116  96.972   6.357  1.00  0.00     0.201 C 
HETATM    3  C3          0      21.551  98.168   6.762  1.00  0.00     0.067 C 
HETATM    4  C4          0      22.089  98.911   7.808  1.00  0.00     0.103 C 
HETATM    5  O13         0      23.153  98.444   8.436  1.00  0.00    -0.307 OA
HETATM    6  C14         0      23.751  97.333   8.067  1.00  0.00     0.107 C 
HETATM    7  C15         0      25.058  97.049   8.436  1.00  0.00     0.049 C 
HETATM    8  C16         0      25.766  96.011   7.842  1.00  0.00     0.093 C 
HETATM    9  C18         0      24.982  94.997   7.305  1.00  0.00     0.048 C 
HETATM   10  C19         0      23.657  95.234   6.968  1.00  0.00     0.096 C 
HETATM   11  C21         0      23.113  96.471   7.181  1.00  0.00     0.084 C 
ENDROOT
BRANCH  10  12
HETATM   12  O20         0      23.025  94.392   6.057  1.00  0.00    -0.359 OA
HETATM   13  H20         0      22.808  93.513   6.341  1.00  0.00     0.218 HD
ENDBRANCH  10  12
BRANCH   4  14
HETATM   14  C5          0      21.858 100.357   7.790  1.00  0.00     0.025 C 
HETATM   15  C6          0      21.861 101.132   8.940  1.00  0.00     0.004 C 
HETATM   16  C7          0      22.428 102.401   8.861  1.00  0.00     0.026 C 
HETATM   17  C8          0      22.855 102.934   7.649  1.00  0.00     0.112 C 
HETATM   18  C10         0      22.250 102.383   6.528  1.00  0.00     0.112 C 
HETATM   19  C12         0      21.768 101.082   6.609  1.00  0.00     0.028 C 
BRANCH  17  20
HETATM   20  O9          0      23.945 103.785   7.595  1.00  0.00    -0.357 OA
HETATM   21  H9          0      24.810 103.556   7.915  1.00  0.00     0.218 HD
ENDBRANCH  17  20
BRANCH  18  22
HETATM   22  O11         0      22.498 103.003   5.312  1.00  0.00    -0.357 OA
HETATM   23  H11         0      21.832 102.913   4.639  1.00  0.00     0.218 HD
ENDBRANCH  18  22
ENDBRANCH   4  14
BRANCH   8  24
HETATM   24  O17         0      27.120  96.145   7.516  1.00  0.00    -0.359 OA
HETATM   25  H17         0      27.757  96.460   8.146  1.00  0.00     0.218 HD
ENDBRANCH   8  24
TORSDOF 5
ENDMDL
MODEL 2
REMARK VINA RESULT:      -5.6      1.750      6.634
REMARK  5 active torsions:
REMARK  status: ('A' for Active; 'I' for Inactive)
REMARK    1  A    between atoms: C4_4  and  C5_5 
REMARK    2  A    between atoms: C8_8  and  O9_9 
REMARK    3  A    between atoms: C10_11  and  O11_12 
REMARK    4  A    between atoms: C16_18  and  O17_19 
REMARK    5  A    between atoms: C19_22  and  O20_23 
ROOT
HETATM    1  O1          0      24.565 100.365  11.301  1.00  0.00    -0.286 OA
HETATM    2  C2          0      23.914  99.772  10.397  1.00  0.00     0.201 C 
HETATM    3  C3          0      24.057  98.420  10.133  1.00  0.00     0.067 C 
HETATM    4  C4          0      23.404  97.813   9.066  1.00  0.00     0.103 C 
HETATM    5  O13         0      22.614  98.549   8.304  1.00  0.00    -0.307 OA
HETATM    6  C14         0      22.472  99.843   8.488  1.00  0.00     0.107 C 
HETATM    7  C15         0      21.987 100.675   7.489  1.00  0.00     0.049 C 
HETATM    8  C16         0      22.077 102.057   7.595  1.00  0.00     0.093 C 
HETATM    9  C18         0      22.161 102.543   8.894  1.00  0.00     0.048 C 
HETATM   10  C19         0      22.598 101.724   9.926  1.00  0.00     0.096 C 
HETATM   11  C21         0      22.932 100.423   9.665  1.00  0.00     0.084 C 
ENDROOT
BRANCH  10  12
HETATM   12  O20         0      23.089 102.303  11.093  1.00  0.00    -0.359 OA
HETATM   13  H20         0      23.686 103.036  11.008  1.00  0.00     0.218 HD
ENDBRANCH  10  12
BRANCH   4  14
HETATM   14  C5          0      24.028  96.621   8.490  1.00  0.00     0.025 C 
HETATM   15  C6          0      23.333  95.713   7.705  1.00  0.00     0.004 C 
HETATM   16  C7          0      23.999  95.158   6.617  1.00  0.00     0.026 C 
HETATM   17  C8          0      25.351  95.393   6.393  1.00  0.00     0.112 C 
HETATM   18  C10         0      26.071  95.758   7.523  1.00  0.00     0.112 C 
HETATM   19  C12         0      25.396  96.388   8.561  1.00  0.00     0.028 C 
BRANCH  17  20
HETATM   20  O9          0      25.856  95.457   5.107  1.00  0.00    -0.357 OA
HETATM   21  H9          0      25.364  95.782   4.362  1.00  0.00     0.218 HD
ENDBRANCH  17  20
BRANCH  18  22
HETATM   22  O11         0      27.452  95.819   7.396  1.00  0.00    -0.357 OA
HETATM   23  H11         0      27.794  96.076   6.547  1.00  0.00     0.218 HD
ENDBRANCH  18  22
ENDBRANCH   4  14
BRANCH   8  24
HETATM   24  O17         0      22.398 102.853   6.489  1.00  0.00    -0.359 OA
HETATM   25  H17         0      21.740 103.120   5.858  1.00  0.00     0.218 HD
ENDBRANCH   8  24
TORSDOF 5
ENDMDL
MODEL 3
REMARK VINA RESULT:      -5.4     13.910     15.798
REMARK  5 active torsions:
REMARK  status: ('A' for Active; 'I' for Inactive)
REMARK    1  A    between atoms: C4_4  and  C5_5 
REMARK    2  A    between atoms: C8_8  and  O9_9 
REMARK    3  A    between atoms: C10_11  and  O11_12 
REMARK    4  A    between atoms: C16_18  and  O17_19 
REMARK    5  A    between atoms: C19_22  and  O20_23 
ROOT
HETATM    1  O1          0      39.420  92.483  13.350  1.00  0.00    -0.286 OA
HETATM    2  C2          0      38.443  92.666  12.573  1.00  0.00     0.201 C 
HETATM    3  C3          0      38.531  93.433  11.424  1.00  0.00     0.067 C 
HETATM    4  C4          0      37.415  93.703  10.641  1.00  0.00     0.103 C 
HETATM    5  O13         0      36.250  93.194  11.000  1.00  0.00    -0.307 OA
HETATM    6  C14         0      36.103  92.490  12.101  1.00  0.00     0.107 C 
HETATM    7  C15         0      34.860  92.299  12.686  1.00  0.00     0.049 C 
HETATM    8  C16         0      34.739  91.781  13.970  1.00  0.00     0.093 C 
HETATM    9  C18         0      35.810  91.002  14.392  1.00  0.00     0.048 C 
HETATM   10  C19         0      37.057  91.134  13.796  1.00  0.00     0.096 C 
HETATM   11  C21         0      37.229  92.027  12.773  1.00  0.00     0.084 C 
ENDROOT
BRANCH  10  12
HETATM   12  O20         0      38.188  90.700  14.480  1.00  0.00    -0.359 OA
HETATM   13  H20         0      38.662  89.955  14.130  1.00  0.00     0.218 HD
ENDBRANCH  10  12
BRANCH   4  14
HETATM   14  C5          0      37.432  94.937   9.852  1.00  0.00     0.025 C 
HETATM   15  C6          0      36.280  95.527   9.355  1.00  0.00     0.004 C 
HETATM   16  C7          0      36.211  96.917   9.367  1.00  0.00     0.026 C 
HETATM   17  C8          0      37.302  97.698   9.734  1.00  0.00     0.112 C 
HETATM   18  C10         0      38.535  97.075   9.594  1.00  0.00     0.112 C 
HETATM   19  C12         0      38.586  95.688   9.671  1.00  0.00     0.028 C 
BRANCH  17  20
HETATM   20  O9          0      37.122  98.908  10.381  1.00  0.00    -0.357 OA
HETATM   21  H9          0      36.898  98.986  11.301  1.00  0.00     0.218 HD
ENDBRANCH  17  20
BRANCH  18  22
HETATM   22  O11         0      39.662  97.866   9.765  1.00  0.00    -0.357 OA
HETATM   23  H11         0      40.337  97.533  10.344  1.00  0.00     0.218 HD
ENDBRANCH  18  22
ENDBRANCH   4  14
BRANCH   8  24
HETATM   24  O17         0      33.792  92.279  14.871  1.00  0.00    -0.359 OA
HETATM   25  H17         0      32.895  92.450  14.609  1.00  0.00     0.218 HD
ENDBRANCH   8  24
TORSDOF 5
ENDMDL
MODEL 4
REMARK VINA RESULT:      -5.3     14.622     16.382
REMARK  5 active torsions:
REMARK  status: ('A' for Active; 'I' for Inactive)
REMARK    1  A    between atoms: C4_4  and  C5_5 
REMARK    2  A    between atoms: C8_8  and  O9_9 
REMARK    3  A    between atoms: C10_11  and  O11_12 
REMARK    4  A    between atoms: C16_18  and  O17_19 
REMARK    5  A    between atoms: C19_22  and  O20_23 
ROOT
HETATM    1  O1          0      34.190  91.956  12.321  1.00  0.00    -0.286 OA
HETATM    2  C2          0      35.330  92.495  12.365  1.00  0.00     0.201 C 
HETATM    3  C3          0      35.844  93.249  11.324  1.00  0.00     0.067 C 
HETATM    4  C4          0      37.142  93.745  11.356  1.00  0.00     0.103 C 
HETATM    5  O13         0      37.888  93.503  12.419  1.00  0.00    -0.307 OA
HETATM    6  C14         0      37.462  92.762  13.418  1.00  0.00     0.107 C 
HETATM    7  C15         0      38.339  92.179  14.322  1.00  0.00     0.049 C 
HETATM    8  C16         0      37.913  91.201  15.212  1.00  0.00     0.093 C 
HETATM    9  C18         0      36.557  91.232  15.513  1.00  0.00     0.048 C 
HETATM   10  C19         0      35.657  91.848  14.654  1.00  0.00     0.096 C 
HETATM   11  C21         0      36.112  92.444  13.509  1.00  0.00     0.084 C 
ENDROOT
BRANCH  10  12
HETATM   12  O20         0      34.310  91.508  14.722  1.00  0.00    -0.359 OA
HETATM   13  H20         0      33.955  90.956  14.035  1.00  0.00     0.218 HD
ENDBRANCH  10  12
BRANCH   4  14
HETATM   14  C5          0      37.802  93.978  10.070  1.00  0.00     0.025 C 
HETATM   15  C6          0      39.148  93.717   9.857  1.00  0.00     0.004 C 
HETATM   16  C7          0      39.514  93.186   8.624  1.00  0.00     0.026 C 
HETATM   17  C8          0      38.596  93.045   7.589  1.00  0.00     0.112 C 
HETATM   18  C10         0      37.495  93.886   7.671  1.00  0.00     0.112 C 
HETATM   19  C12         0      37.099  94.334   8.926  1.00  0.00     0.028 C 
BRANCH  17  20
HETATM   20  O9          0      38.698  91.998   6.690  1.00  0.00    -0.357 OA
HETATM   21  H9          0      38.789  91.088   6.948  1.00  0.00     0.218 HD
ENDBRANCH  17  20
BRANCH  18  22
HETATM   22  O11         0      36.647  93.921   6.573  1.00  0.00    -0.357 OA
HETATM   23  H11         0      36.592  94.743   6.099  1.00  0.00     0.218 HD
ENDBRANCH  18  22
ENDBRANCH   4  14
BRANCH   8  24
HETATM   24  O17         0      38.707  90.087  15.505  1.00  0.00    -0.359 OA
HETATM   25  H17         0      39.153  89.598  14.824  1.00  0.00     0.218 HD
ENDBRANCH   8  24
TORSDOF 5
ENDMDL
MODEL 5
REMARK VINA RESULT:      -5.3     14.824     16.419
REMARK  5 active torsions:
REMARK  status: ('A' for Active; 'I' for Inactive)
REMARK    1  A    between atoms: C4_4  and  C5_5 
REMARK    2  A    between atoms: C8_8  and  O9_9 
REMARK    3  A    between atoms: C10_11  and  O11_12 
REMARK    4  A    between atoms: C16_18  and  O17_19 
REMARK    5  A    between atoms: C19_22  and  O20_23 
ROOT
HETATM    1  O1          0      37.236  96.261  13.025  1.00  0.00    -0.286 OA
HETATM    2  C2          0      36.854  95.312  12.286  1.00  0.00     0.201 C 
HETATM    3  C3          0      36.091  94.256  12.755  1.00  0.00     0.067 C 
HETATM    4  C4          0      35.771  93.173  11.946  1.00  0.00     0.103 C 
HETATM    5  O13         0      36.192  93.169  10.693  1.00  0.00    -0.307 OA
HETATM    6  C14         0      36.951  94.128  10.209  1.00  0.00     0.107 C 
HETATM    7  C15         0      37.714  93.948   9.064  1.00  0.00     0.049 C 
HETATM    8  C16         0      38.698  94.860   8.702  1.00  0.00     0.093 C 
HETATM    9  C18         0      38.517  96.146   9.196  1.00  0.00     0.048 C 
HETATM   10  C19         0      37.722  96.368  10.312  1.00  0.00     0.096 C 
HETATM   11  C21         0      37.098  95.313  10.921  1.00  0.00     0.084 C 
ENDROOT
BRANCH  10  12
HETATM   12  O20         0      37.889  97.538  11.045  1.00  0.00    -0.359 OA
HETATM   13  H20         0      37.423  97.619  11.869  1.00  0.00     0.218 HD
ENDBRANCH  10  12
BRANCH   4  14
HETATM   14  C5          0      35.521  91.892  12.609  1.00  0.00     0.025 C 
HETATM   15  C6          0      36.304  90.767  12.391  1.00  0.00     0.004 C 
HETATM   16  C7          0      36.577  89.950  13.484  1.00  0.00     0.026 C 
HETATM   17  C8          0      35.983  90.166  14.722  1.00  0.00     0.112 C 
HETATM   18  C10         0      34.788  90.872  14.677  1.00  0.00     0.112 C 
HETATM   19  C12         0      34.577  91.747  13.617  1.00  0.00     0.028 C 
BRANCH  17  20
HETATM   20  O9          0      36.660  89.876  15.894  1.00  0.00    -0.357 OA
HETATM   21  H9          0      37.470  89.381  15.926  1.00  0.00     0.218 HD
ENDBRANCH  17  20
BRANCH  18  22
HETATM   22  O11         0      34.060  90.952  15.856  1.00  0.00    -0.357 OA
HETATM   23  H11         0      33.144  90.702  15.813  1.00  0.00     0.218 HD
ENDBRANCH  18  22
ENDBRANCH   4  14
BRANCH   8  24
HETATM   24  O17         0      39.926  94.439   8.179  1.00  0.00    -0.359 OA
HETATM   25  H17         0      40.723  94.938   8.313  1.00  0.00     0.218 HD
ENDBRANCH   8  24
TORSDOF 5
ENDMDL
MODEL 6
REMARK VINA RESULT:      -5.3     13.815     15.044
REMARK  5 active torsions:
REMARK  status: ('A' for Active; 'I' for Inactive)
REMARK    1  A    between atoms: C4_4  and  C5_5 
REMARK    2  A    between atoms: C8_8  and  O9_9 
REMARK    3  A    between atoms: C10_11  and  O11_12 
REMARK    4  A    between atoms: C16_18  and  O17_19 
REMARK    5  A    between atoms: C19_22  and  O20_23 
ROOT
HETATM    1  O1          0      36.385  91.035  12.198  1.00  0.00    -0.286 OA
HETATM    2  C2          0      35.884  92.184  12.059  1.00  0.00     0.201 C 
HETATM    3  C3          0      36.129  92.981  10.954  1.00  0.00     0.067 C 
HETATM    4  C4          0      35.647  94.283  10.874  1.00  0.00     0.103 C 
HETATM    5  O13         0      34.921  94.754  11.872  1.00  0.00    -0.307 OA
HETATM    6  C14         0      34.690  94.052  12.960  1.00  0.00     0.107 C 
HETATM    7  C15         0      34.291  94.652  14.146  1.00  0.00     0.049 C 
HETATM    8  C16         0      34.295  93.952  15.346  1.00  0.00     0.093 C 
HETATM    9  C18         0      34.191  92.571  15.221  1.00  0.00     0.048 C 
HETATM   10  C19         0      34.538  91.943  14.032  1.00  0.00     0.096 C 
HETATM   11  C21         0      34.969  92.690  12.970  1.00  0.00     0.084 C 
ENDROOT
BRANCH  10  12
HETATM   12  O20         0      34.848  90.587  14.045  1.00  0.00    -0.359 OA
HETATM   13  H20         0      35.234  90.226  14.834  1.00  0.00     0.218 HD
ENDBRANCH  10  12
BRANCH   4  14
HETATM   14  C5          0      36.399  95.225  10.043  1.00  0.00     0.025 C 
HETATM   15  C6          0      36.271  96.602  10.163  1.00  0.00     0.004 C 
HETATM   16  C7          0      37.422  97.371  10.027  1.00  0.00     0.026 C 
HETATM   17  C8          0      38.636  96.806   9.652  1.00  0.00     0.112 C 
HETATM   18  C10         0      38.529  95.607   8.960  1.00  0.00     0.112 C 
HETATM   19  C12         0      37.407  94.817   9.179  1.00  0.00     0.028 C 
BRANCH  17  20
HETATM   20  O9          0      39.832  97.313  10.130  1.00  0.00    -0.357 OA
HETATM   21  H9          0      39.899  97.872  10.895  1.00  0.00     0.218 HD
ENDBRANCH  17  20
BRANCH  18  22
HETATM   22  O11         0      39.691  95.098   8.399  1.00  0.00    -0.357 OA
HETATM   23  H11         0      40.217  95.698   7.882  1.00  0.00     0.218 HD
ENDBRANCH  18  22
ENDBRANCH   4  14
BRANCH   8  24
HETATM   24  O17         0      34.710  94.553  16.540  1.00  0.00    -0.359 OA
HETATM   25  H17         0      34.990  94.037  17.287  1.00  0.00     0.218 HD
ENDBRANCH   8  24
TORSDOF 5
ENDMDL
MODEL 7
REMARK VINA RESULT:      -5.1     13.152     14.959
REMARK  5 active torsions:
REMARK  status: ('A' for Active; 'I' for Inactive)
REMARK    1  A    between atoms: C4_4  and  C5_5 
REMARK    2  A    between atoms: C8_8  and  O9_9 
REMARK    3  A    between atoms: C10_11  and  O11_12 
REMARK    4  A    between atoms: C16_18  and  O17_19 
REMARK    5  A    between atoms: C19_22  and  O20_23 
ROOT
HETATM    1  O1          0      36.474  90.356  13.728  1.00  0.00    -0.286 OA
HETATM    2  C2          0      35.838  91.386  13.373  1.00  0.00     0.201 C 
HETATM    3  C3          0      36.021  91.995  12.143  1.00  0.00     0.067 C 
HETATM    4  C4          0      35.383  93.187  11.818  1.00  0.00     0.103 C 
HETATM    5  O13         0      34.569  93.734  12.704  1.00  0.00    -0.307 OA
HETATM    6  C14         0      34.389  93.217  13.900  1.00  0.00     0.107 C 
HETATM    7  C15         0      33.877  93.966  14.949  1.00  0.00     0.049 C 
HETATM    8  C16         0      33.926  93.502  16.258  1.00  0.00     0.093 C 
HETATM    9  C18         0      34.000  92.120  16.389  1.00  0.00     0.048 C 
HETATM   10  C19         0      34.464  91.336  15.341  1.00  0.00     0.096 C 
HETATM   11  C21         0      34.836  91.927  14.164  1.00  0.00     0.084 C 
ENDROOT
BRANCH  10  12
HETATM   12  O20         0      34.941  90.057  15.608  1.00  0.00    -0.359 OA
HETATM   13  H20         0      34.425  89.500  16.178  1.00  0.00     0.218 HD
ENDBRANCH  10  12
BRANCH   4  14
HETATM   14  C5          0      36.040  94.052  10.836  1.00  0.00     0.025 C 
HETATM   15  C6          0      37.299  93.781  10.319  1.00  0.00     0.004 C 
HETATM   16  C7          0      37.515  94.059   8.973  1.00  0.00     0.026 C 
HETATM   17  C8          0      36.559  94.708   8.199  1.00  0.00     0.112 C 
HETATM   18  C10         0      35.655  95.477   8.919  1.00  0.00     0.112 C 
HETATM   19  C12         0      35.393  95.125  10.238  1.00  0.00     0.028 C 
BRANCH  17  20
HETATM   20  O9          0      36.421  94.419   6.853  1.00  0.00    -0.357 OA
HETATM   21  H9          0      35.590  94.216   6.440  1.00  0.00     0.218 HD
ENDBRANCH  17  20
BRANCH  18  22
HETATM   22  O11         0      34.802  96.292   8.189  1.00  0.00    -0.357 OA
HETATM   23  H11         0      34.339  95.890   7.463  1.00  0.00     0.218 HD
ENDBRANCH  18  22
ENDBRANCH   4  14
BRANCH   8  24
HETATM   24  O17         0      34.220  94.358  17.325  1.00  0.00    -0.359 OA
HETATM   25  H17         0      34.589  94.034  18.138  1.00  0.00     0.218 HD
ENDBRANCH   8  24
TORSDOF 5
ENDMDL
MODEL 8
REMARK VINA RESULT:      -5.0     13.231     14.840
REMARK  5 active torsions:
REMARK  status: ('A' for Active; 'I' for Inactive)
REMARK    1  A    between atoms: C4_4  and  C5_5 
REMARK    2  A    between atoms: C8_8  and  O9_9 
REMARK    3  A    between atoms: C10_11  and  O11_12 
REMARK    4  A    between atoms: C16_18  and  O17_19 
REMARK    5  A    between atoms: C19_22  and  O20_23 
ROOT
HETATM    1  O1          0      34.897  90.004  13.718  1.00  0.00    -0.286 OA
HETATM    2  C2          0      34.740  91.169  14.176  1.00  0.00     0.201 C 
HETATM    3  C3          0      34.127  91.422  15.391  1.00  0.00     0.067 C 
HETATM    4  C4          0      33.875  92.718  15.825  1.00  0.00     0.103 C 
HETATM    5  O13         0      34.252  93.728  15.060  1.00  0.00    -0.307 OA
HETATM    6  C14         0      34.805  93.543  13.881  1.00  0.00     0.107 C 
HETATM    7  C15         0      34.834  94.546  12.923  1.00  0.00     0.049 C 
HETATM    8  C16         0      35.183  94.275  11.605  1.00  0.00     0.093 C 
HETATM    9  C18         0      35.980  93.151  11.429  1.00  0.00     0.048 C 
HETATM   10  C19         0      36.010  92.149  12.390  1.00  0.00     0.096 C 
HETATM   11  C21         0      35.262  92.279  13.528  1.00  0.00     0.084 C 
ENDROOT
BRANCH  10  12
HETATM   12  O20         0      36.438  90.875  12.031  1.00  0.00    -0.359 OA
HETATM   13  H20         0      37.371  90.701  12.035  1.00  0.00     0.218 HD
ENDBRANCH  10  12
BRANCH   4  14
HETATM   14  C5          0      32.750  92.911  16.742  1.00  0.00     0.025 C 
HETATM   15  C6          0      32.066  94.113  16.850  1.00  0.00     0.004 C 
HETATM   16  C7          0      30.687  94.055  17.030  1.00  0.00     0.026 C 
HETATM   17  C8          0      30.028  92.848  17.231  1.00  0.00     0.112 C 
HETATM   18  C10         0      30.826  91.827  17.729  1.00  0.00     0.112 C 
HETATM   19  C12         0      32.189  91.864  17.462  1.00  0.00     0.028 C 
BRANCH  17  20
HETATM   20  O9          0      28.740  92.657  16.761  1.00  0.00    -0.357 OA
HETATM   21  H9          0      28.009  93.222  16.980  1.00  0.00     0.218 HD
ENDBRANCH  17  20
BRANCH  18  22
HETATM   22  O11         0      30.183  90.662  18.124  1.00  0.00    -0.357 OA
HETATM   23  H11         0      30.199  90.456  19.052  1.00  0.00     0.218 HD
ENDBRANCH  18  22
ENDBRANCH   4  14
BRANCH   8  24
HETATM   24  O17         0      34.513  94.878  10.535  1.00  0.00    -0.359 OA
HETATM   25  H17         0      34.942  95.510   9.970  1.00  0.00     0.218 HD
ENDBRANCH   8  24
TORSDOF 5
ENDMDL
MODEL 9
REMARK VINA RESULT:      -4.9      3.491      6.411
REMARK  5 active torsions:
REMARK  status: ('A' for Active; 'I' for Inactive)
REMARK    1  A    between atoms: C4_4  and  C5_5 
REMARK    2  A    between atoms: C8_8  and  O9_9 
REMARK    3  A    between atoms: C10_11  and  O11_12 
REMARK    4  A    between atoms: C16_18  and  O17_19 
REMARK    5  A    between atoms: C19_22  and  O20_23 
ROOT
HETATM    1  O1          0      21.565  96.975   7.066  1.00  0.00    -0.286 OA
HETATM    2  C2          0      22.531  97.031   6.257  1.00  0.00     0.201 C 
HETATM    3  C3          0      22.361  97.019   4.883  1.00  0.00     0.067 C 
HETATM    4  C4          0      23.446  96.978   4.014  1.00  0.00     0.103 C 
HETATM    5  O13         0      24.665  96.971   4.522  1.00  0.00    -0.307 OA
HETATM    6  C14         0      24.883  96.944   5.819  1.00  0.00     0.107 C 
HETATM    7  C15         0      26.100  96.538   6.348  1.00  0.00     0.049 C 
HETATM    8  C16         0      26.243  96.267   7.703  1.00  0.00     0.093 C 
HETATM    9  C18         0      25.329  96.910   8.530  1.00  0.00     0.048 C 
HETATM   10  C19         0      24.121  97.369   8.024  1.00  0.00     0.096 C 
HETATM   11  C21         0      23.835  97.204   6.696  1.00  0.00     0.084 C 
ENDROOT
BRANCH  10  12
HETATM   12  O20         0      23.062  97.601   8.895  1.00  0.00    -0.359 OA
HETATM   13  H20         0      23.090  98.384   9.432  1.00  0.00     0.218 HD
ENDBRANCH  10  12
BRANCH   4  14
HETATM   14  C5          0      23.227  96.377   2.697  1.00  0.00     0.025 C 
HETATM   15  C6          0      24.112  96.537   1.641  1.00  0.00     0.004 C 
HETATM   16  C7          0      24.330  95.442   0.811  1.00  0.00     0.026 C 
HETATM   17  C8          0      23.594  94.270   0.943  1.00  0.00     0.112 C 
HETATM   18  C10         0      22.360  94.426   1.560  1.00  0.00     0.112 C 
HETATM   19  C12         0      22.196  95.480   2.451  1.00  0.00     0.028 C 
BRANCH  17  20
HETATM   20  O9          0      24.164  93.040   0.666  1.00  0.00    -0.357 OA
HETATM   21  H9          0      25.050  92.801   0.913  1.00  0.00     0.218 HD
ENDBRANCH  17  20
BRANCH  18  22
HETATM   22  O11         0      21.508  93.331   1.547  1.00  0.00    -0.357 OA
HETATM   23  H11         0      21.874  92.498   1.822  1.00  0.00     0.218 HD
ENDBRANCH  18  22
ENDBRANCH   4  14
BRANCH   8  24
HETATM   24  O17         0      27.011  95.188   8.154  1.00  0.00    -0.359 OA
HETATM   25  H17         0      26.627  94.334   8.314  1.00  0.00     0.218 HD
ENDBRANCH   8  24
TORSDOF 5
ENDMDL
