MODEL 1
REMARK VINA RESULT:      -6.2      0.000      0.000
REMARK  5 active torsions:
REMARK  status: ('A' for Active; 'I' for Inactive)
REMARK    1  A    between atoms: C4_4  and  C5_5 
REMARK    2  A    between atoms: C8_8  and  O9_9 
REMARK    3  A    between atoms: C10_11  and  O11_12 
REMARK    4  A    between atoms: C16_18  and  O17_19 
REMARK    5  A    between atoms: C19_22  and  O20_23 
ROOT
HETATM    1  O1          0      18.079  86.300 -22.841  1.00  0.00    -0.286 OA
HETATM    2  C2          0      17.309  85.764 -23.684  1.00  0.00     0.201 C 
HETATM    3  C3          0      15.930  85.797 -23.568  1.00  0.00     0.067 C 
HETATM    4  C4          0      15.107  85.111 -24.454  1.00  0.00     0.103 C 
HETATM    5  O13         0      15.664  84.430 -25.440  1.00  0.00    -0.307 OA
HETATM    6  C14         0      16.969  84.335 -25.573  1.00  0.00     0.107 C 
HETATM    7  C15         0      17.555  83.329 -26.329  1.00  0.00     0.049 C 
HETATM    8  C16         0      18.920  83.079 -26.262  1.00  0.00     0.093 C 
HETATM    9  C18         0      19.696  84.159 -25.860  1.00  0.00     0.048 C 
HETATM   10  C19         0      19.132  85.205 -25.143  1.00  0.00     0.096 C 
HETATM   11  C21         0      17.797  85.180 -24.843  1.00  0.00     0.084 C 
ENDROOT
BRANCH  10  12
HETATM   12  O20         0      19.955  86.033 -24.386  1.00  0.00    -0.359 OA
HETATM   13  H20         0      20.669  85.632 -23.904  1.00  0.00     0.218 HD
ENDBRANCH  10  12
BRANCH   4  14
HETATM   14  C5          0      13.794  84.691 -23.961  1.00  0.00     0.025 C 
HETATM   15  C6          0      13.404  83.361 -23.902  1.00  0.00     0.004 C 
HETATM   16  C7          0      12.646  82.960 -22.806  1.00  0.00     0.026 C 
HETATM   17  C8          0      12.178  83.874 -21.869  1.00  0.00     0.112 C 
HETATM   18  C10         0      12.070  85.178 -22.335  1.00  0.00     0.112 C 
HETATM   19  C12         0      12.900  85.578 -23.376  1.00  0.00     0.028 C 
BRANCH  17  20
HETATM   20  O9          0      12.045  83.520 -20.538  1.00  0.00    -0.357 OA
HETATM   21  H9          0      12.655  82.955 -20.079  1.00  0.00     0.218 HD
ENDBRANCH  17  20
BRANCH  18  22
HETATM   22  O11         0      11.434  86.090 -21.506  1.00  0.00    -0.357 OA
HETATM   23  H11         0      10.528  86.295 -21.707  1.00  0.00     0.218 HD
ENDBRANCH  18  22
ENDBRANCH   4  14
BRANCH   8  24
HETATM   24  O17         0      19.423  81.773 -26.266  1.00  0.00    -0.359 OA
HETATM   25  H17         0      19.850  81.400 -25.504  1.00  0.00     0.218 HD
ENDBRANCH   8  24
TORSDOF 5
ENDMDL
MODEL 2
REMARK VINA RESULT:      -6.1      1.308      1.703
REMARK  5 active torsions:
REMARK  status: ('A' for Active; 'I' for Inactive)
REMARK    1  A    between atoms: C4_4  and  C5_5 
REMARK    2  A    between atoms: C8_8  and  O9_9 
REMARK    3  A    between atoms: C10_11  and  O11_12 
REMARK    4  A    between atoms: C16_18  and  O17_19 
REMARK    5  A    between atoms: C19_22  and  O20_23 
ROOT
HETATM    1  O1          0      18.073  86.209 -22.721  1.00  0.00    -0.286 OA
HETATM    2  C2          0      17.415  85.836 -23.730  1.00  0.00     0.201 C 
HETATM    3  C3          0      16.031  85.816 -23.758  1.00  0.00     0.067 C 
HETATM    4  C4          0      15.331  85.303 -24.845  1.00  0.00     0.103 C 
HETATM    5  O13         0      16.012  84.846 -25.880  1.00  0.00    -0.307 OA
HETATM    6  C14         0      17.327  84.807 -25.890  1.00  0.00     0.107 C 
HETATM    7  C15         0      18.028  83.986 -26.762  1.00  0.00     0.049 C 
HETATM    8  C16         0      19.389  83.757 -26.600  1.00  0.00     0.093 C 
HETATM    9  C18         0      20.074  84.751 -25.912  1.00  0.00     0.048 C 
HETATM   10  C19         0      19.397  85.620 -25.067  1.00  0.00     0.096 C 
HETATM   11  C21         0      18.041  85.507 -24.923  1.00  0.00     0.084 C 
ENDROOT
BRANCH  10  12
HETATM   12  O20         0      20.104  86.297 -24.079  1.00  0.00    -0.359 OA
HETATM   13  H20         0      19.968  87.233 -23.996  1.00  0.00     0.218 HD
ENDBRANCH  10  12
BRANCH   4  14
HETATM   14  C5          0      13.994  84.764 -24.587  1.00  0.00     0.025 C 
HETATM   15  C6          0      13.116  84.414 -25.602  1.00  0.00     0.004 C 
HETATM   16  C7          0      12.336  83.278 -25.415  1.00  0.00     0.026 C 
HETATM   17  C8          0      12.328  82.588 -24.208  1.00  0.00     0.112 C 
HETATM   18  C10         0      12.713  83.342 -23.107  1.00  0.00     0.112 C 
HETATM   19  C12         0      13.563  84.423 -23.312  1.00  0.00     0.028 C 
BRANCH  17  20
HETATM   20  O9          0      12.155  81.216 -24.176  1.00  0.00    -0.357 OA
HETATM   21  H9          0      11.307  80.792 -24.113  1.00  0.00     0.218 HD
ENDBRANCH  17  20
BRANCH  18  22
HETATM   22  O11         0      12.543  82.762 -21.858  1.00  0.00    -0.357 OA
HETATM   23  H11         0      12.940  81.909 -21.722  1.00  0.00     0.218 HD
ENDBRANCH  18  22
ENDBRANCH   4  14
BRANCH   8  24
HETATM   24  O17         0      19.944  82.489 -26.808  1.00  0.00    -0.359 OA
HETATM   25  H17         0      19.422  81.698 -26.741  1.00  0.00     0.218 HD
ENDBRANCH   8  24
TORSDOF 5
ENDMDL
MODEL 3
REMARK VINA RESULT:      -6.0      1.869      3.414
REMARK  5 active torsions:
REMARK  status: ('A' for Active; 'I' for Inactive)
REMARK    1  A    between atoms: C4_4  and  C5_5 
REMARK    2  A    between atoms: C8_8  and  O9_9 
REMARK    3  A    between atoms: C10_11  and  O11_12 
REMARK    4  A    between atoms: C16_18  and  O17_19 
REMARK    5  A    between atoms: C19_22  and  O20_23 
ROOT
HETATM    1  O1          0      18.647  82.677 -27.871  1.00  0.00    -0.286 OA
HETATM    2  C2          0      18.230  83.118 -26.765  1.00  0.00     0.201 C 
HETATM    3  C3          0      16.989  82.788 -26.246  1.00  0.00     0.067 C 
HETATM    4  C4          0      16.512  83.368 -25.076  1.00  0.00     0.103 C 
HETATM    5  O13         0      17.276  84.238 -24.441  1.00  0.00    -0.307 OA
HETATM    6  C14         0      18.446  84.614 -24.910  1.00  0.00     0.107 C 
HETATM    7  C15         0      19.060  85.785 -24.489  1.00  0.00     0.049 C 
HETATM    8  C16         0      20.158  86.307 -25.163  1.00  0.00     0.093 C 
HETATM    9  C18         0      20.899  85.378 -25.884  1.00  0.00     0.048 C 
HETATM   10  C19         0      20.329  84.176 -26.281  1.00  0.00     0.096 C 
HETATM   11  C21         0      19.033  83.895 -25.945  1.00  0.00     0.084 C 
ENDROOT
BRANCH  10  12
HETATM   12  O20         0      20.897  83.471 -27.338  1.00  0.00    -0.359 OA
HETATM   13  H20         0      20.926  83.890 -28.189  1.00  0.00     0.218 HD
ENDBRANCH  10  12
BRANCH   4  14
HETATM   14  C5          0      15.059  83.459 -24.918  1.00  0.00     0.025 C 
HETATM   15  C6          0      14.174  83.239 -25.964  1.00  0.00     0.004 C 
HETATM   16  C7          0      12.990  82.568 -25.676  1.00  0.00     0.026 C 
HETATM   17  C8          0      12.634  82.243 -24.371  1.00  0.00     0.112 C 
HETATM   18  C10         0      13.228  83.032 -23.395  1.00  0.00     0.112 C 
HETATM   19  C12         0      14.454  83.623 -23.679  1.00  0.00     0.028 C 
BRANCH  17  20
HETATM   20  O9          0      11.918  81.091 -24.098  1.00  0.00    -0.357 OA
HETATM   21  H9          0      11.526  80.901 -23.253  1.00  0.00     0.218 HD
ENDBRANCH  17  20
BRANCH  18  22
HETATM   22  O11         0      12.767  82.877 -22.095  1.00  0.00    -0.357 OA
HETATM   23  H11         0      11.838  83.014 -21.950  1.00  0.00     0.218 HD
ENDBRANCH  18  22
ENDBRANCH   4  14
BRANCH   8  24
HETATM   24  O17         0      20.299  87.683 -25.371  1.00  0.00    -0.359 OA
HETATM   25  H17         0      19.731  88.313 -24.944  1.00  0.00     0.218 HD
ENDBRANCH   8  24
TORSDOF 5
ENDMDL
MODEL 4
REMARK VINA RESULT:      -5.8      1.982      2.523
REMARK  5 active torsions:
REMARK  status: ('A' for Active; 'I' for Inactive)
REMARK    1  A    between atoms: C4_4  and  C5_5 
REMARK    2  A    between atoms: C8_8  and  O9_9 
REMARK    3  A    between atoms: C10_11  and  O11_12 
REMARK    4  A    between atoms: C16_18  and  O17_19 
REMARK    5  A    between atoms: C19_22  and  O20_23 
ROOT
HETATM    1  O1          0      17.964  85.165 -23.160  1.00  0.00    -0.286 OA
HETATM    2  C2          0      17.282  84.536 -24.014  1.00  0.00     0.201 C 
HETATM    3  C3          0      15.929  84.284 -23.857  1.00  0.00     0.067 C 
HETATM    4  C4          0      15.224  83.501 -24.763  1.00  0.00     0.103 C 
HETATM    5  O13         0      15.864  83.005 -25.807  1.00  0.00    -0.307 OA
HETATM    6  C14         0      17.155  83.182 -25.984  1.00  0.00     0.107 C 
HETATM    7  C15         0      17.898  82.362 -26.821  1.00  0.00     0.049 C 
HETATM    8  C16         0      19.287  82.387 -26.809  1.00  0.00     0.093 C 
HETATM    9  C18         0      19.849  83.576 -26.359  1.00  0.00     0.048 C 
HETATM   10  C19         0      19.118  84.443 -25.558  1.00  0.00     0.096 C 
HETATM   11  C21         0      17.828  84.132 -25.223  1.00  0.00     0.084 C 
ENDROOT
BRANCH  10  12
HETATM   12  O20         0      19.790  85.373 -24.771  1.00  0.00    -0.359 OA
HETATM   13  H20         0      20.609  85.108 -24.371  1.00  0.00     0.218 HD
ENDBRANCH  10  12
BRANCH   4  14
HETATM   14  C5          0      14.042  82.796 -24.261  1.00  0.00     0.025 C 
HETATM   15  C6          0      13.381  83.169 -23.100  1.00  0.00     0.004 C 
HETATM   16  C7          0      11.993  83.084 -23.093  1.00  0.00     0.026 C 
HETATM   17  C8          0      11.291  82.522 -24.154  1.00  0.00     0.112 C 
HETATM   18  C10         0      12.027  81.638 -24.932  1.00  0.00     0.112 C 
HETATM   19  C12         0      13.406  81.798 -24.988  1.00  0.00     0.028 C 
BRANCH  17  20
HETATM   20  O9          0      10.036  82.989 -24.501  1.00  0.00    -0.357 OA
HETATM   21  H9          0       9.351  82.441 -24.867  1.00  0.00     0.218 HD
ENDBRANCH  17  20
BRANCH  18  22
HETATM   22  O11         0      11.329  80.908 -25.884  1.00  0.00    -0.357 OA
HETATM   23  H11         0      11.804  80.214 -26.326  1.00  0.00     0.218 HD
ENDBRANCH  18  22
ENDBRANCH   4  14
BRANCH   8  24
HETATM   24  O17         0      20.039  81.212 -26.915  1.00  0.00    -0.359 OA
HETATM   25  H17         0      20.989  81.222 -26.886  1.00  0.00     0.218 HD
ENDBRANCH   8  24
TORSDOF 5
ENDMDL
MODEL 5
REMARK VINA RESULT:      -5.7      1.883      6.768
REMARK  5 active torsions:
REMARK  status: ('A' for Active; 'I' for Inactive)
REMARK    1  A    between atoms: C4_4  and  C5_5 
REMARK    2  A    between atoms: C8_8  and  O9_9 
REMARK    3  A    between atoms: C10_11  and  O11_12 
REMARK    4  A    between atoms: C16_18  and  O17_19 
REMARK    5  A    between atoms: C19_22  and  O20_23 
ROOT
HETATM    1  O1          0      14.707  87.255 -25.244  1.00  0.00    -0.286 OA
HETATM    2  C2          0      15.339  86.181 -25.045  1.00  0.00     0.201 C 
HETATM    3  C3          0      16.561  85.909 -25.635  1.00  0.00     0.067 C 
HETATM    4  C4          0      17.186  84.677 -25.481  1.00  0.00     0.103 C 
HETATM    5  O13         0      16.602  83.758 -24.734  1.00  0.00    -0.307 OA
HETATM    6  C14         0      15.424  83.951 -24.181  1.00  0.00     0.107 C 
HETATM    7  C15         0      14.637  82.893 -23.748  1.00  0.00     0.049 C 
HETATM    8  C16         0      13.304  83.079 -23.404  1.00  0.00     0.093 C 
HETATM    9  C18         0      12.974  84.370 -23.010  1.00  0.00     0.048 C 
HETATM   10  C19         0      13.765  85.447 -23.387  1.00  0.00     0.096 C 
HETATM   11  C21         0      14.889  85.234 -24.138  1.00  0.00     0.084 C 
ENDROOT
BRANCH  10  12
HETATM   12  O20         0      13.222  86.728 -23.375  1.00  0.00    -0.359 OA
HETATM   13  H20         0      12.402  86.859 -22.915  1.00  0.00     0.218 HD
ENDBRANCH  10  12
BRANCH   4  14
HETATM   14  C5          0      18.091  84.247 -26.548  1.00  0.00     0.025 C 
HETATM   15  C6          0      18.711  85.137 -27.413  1.00  0.00     0.004 C 
HETATM   16  C7          0      20.023  84.865 -27.787  1.00  0.00     0.026 C 
HETATM   17  C8          0      20.654  83.681 -27.424  1.00  0.00     0.112 C 
HETATM   18  C10         0      19.794  82.630 -27.133  1.00  0.00     0.112 C 
HETATM   19  C12         0      18.515  82.931 -26.680  1.00  0.00     0.028 C 
BRANCH  17  20
HETATM   20  O9          0      22.015  83.650 -27.175  1.00  0.00    -0.357 OA
HETATM   21  H9          0      22.672  83.521 -27.850  1.00  0.00     0.218 HD
ENDBRANCH  17  20
BRANCH  18  22
HETATM   22  O11         0      20.367  81.380 -26.950  1.00  0.00    -0.357 OA
HETATM   23  H11         0      19.838  80.724 -26.512  1.00  0.00     0.218 HD
ENDBRANCH  18  22
ENDBRANCH   4  14
BRANCH   8  24
HETATM   24  O17         0      12.324  82.143 -23.752  1.00  0.00    -0.359 OA
HETATM   25  H17         0      11.902  81.597 -23.100  1.00  0.00     0.218 HD
ENDBRANCH   8  24
TORSDOF 5
ENDMDL
MODEL 6
REMARK VINA RESULT:      -5.6      2.026      6.497
REMARK  5 active torsions:
REMARK  status: ('A' for Active; 'I' for Inactive)
REMARK    1  A    between atoms: C4_4  and  C5_5 
REMARK    2  A    between atoms: C8_8  and  O9_9 
REMARK    3  A    between atoms: C10_11  and  O11_12 
REMARK    4  A    between atoms: C16_18  and  O17_19 
REMARK    5  A    between atoms: C19_22  and  O20_23 
ROOT
HETATM    1  O1          0      13.963  87.092 -23.908  1.00  0.00    -0.286 OA
HETATM    2  C2          0      14.901  86.249 -23.946  1.00  0.00     0.201 C 
HETATM    3  C3          0      16.217  86.601 -24.195  1.00  0.00     0.067 C 
HETATM    4  C4          0      17.214  85.642 -24.334  1.00  0.00     0.103 C 
HETATM    5  O13         0      16.891  84.367 -24.202  1.00  0.00    -0.307 OA
HETATM    6  C14         0      15.651  83.977 -24.002  1.00  0.00     0.107 C 
HETATM    7  C15         0      15.244  82.676 -24.258  1.00  0.00     0.049 C 
HETATM    8  C16         0      13.898  82.334 -24.291  1.00  0.00     0.093 C 
HETATM    9  C18         0      13.062  83.170 -23.561  1.00  0.00     0.048 C 
HETATM   10  C19         0      13.457  84.463 -23.246  1.00  0.00     0.096 C 
HETATM   11  C21         0      14.687  84.913 -23.644  1.00  0.00     0.084 C 
ENDROOT
BRANCH  10  12
HETATM   12  O20         0      12.491  85.409 -22.918  1.00  0.00    -0.359 OA
HETATM   13  H20         0      11.604  85.106 -22.768  1.00  0.00     0.218 HD
ENDBRANCH  10  12
BRANCH   4  14
HETATM   14  C5          0      18.372  85.994 -25.156  1.00  0.00     0.025 C 
HETATM   15  C6          0      19.584  86.400 -24.615  1.00  0.00     0.004 C 
HETATM   16  C7          0      20.747  85.958 -25.236  1.00  0.00     0.026 C 
HETATM   17  C8          0      20.712  85.249 -26.432  1.00  0.00     0.112 C 
HETATM   18  C10         0      19.565  85.447 -27.189  1.00  0.00     0.112 C 
HETATM   19  C12         0      18.394  85.805 -26.532  1.00  0.00     0.028 C 
BRANCH  17  20
HETATM   20  O9          0      21.657  84.277 -26.708  1.00  0.00    -0.357 OA
HETATM   21  H9          0      21.588  83.376 -26.415  1.00  0.00     0.218 HD
ENDBRANCH  17  20
BRANCH  18  22
HETATM   22  O11         0      19.559  84.916 -28.471  1.00  0.00    -0.357 OA
HETATM   23  H11         0      20.163  85.298 -29.097  1.00  0.00     0.218 HD
ENDBRANCH  18  22
ENDBRANCH   4  14
BRANCH   8  24
HETATM   24  O17         0      13.395  81.442 -25.245  1.00  0.00    -0.359 OA
HETATM   25  H17         0      12.704  81.691 -25.847  1.00  0.00     0.218 HD
ENDBRANCH   8  24
TORSDOF 5
ENDMDL
MODEL 7
REMARK VINA RESULT:      -5.6      2.012      6.864
REMARK  5 active torsions:
REMARK  status: ('A' for Active; 'I' for Inactive)
REMARK    1  A    between atoms: C4_4  and  C5_5 
REMARK    2  A    between atoms: C8_8  and  O9_9 
REMARK    3  A    between atoms: C10_11  and  O11_12 
REMARK    4  A    between atoms: C16_18  and  O17_19 
REMARK    5  A    between atoms: C19_22  and  O20_23 
ROOT
HETATM    1  O1          0      12.738  80.721 -25.447  1.00  0.00    -0.286 OA
HETATM    2  C2          0      13.128  81.866 -25.087  1.00  0.00     0.201 C 
HETATM    3  C3          0      14.273  82.461 -25.589  1.00  0.00     0.067 C 
HETATM    4  C4          0      14.736  83.677 -25.101  1.00  0.00     0.103 C 
HETATM    5  O13         0      14.048  84.282 -24.149  1.00  0.00    -0.307 OA
HETATM    6  C14         0      12.975  83.744 -23.611  1.00  0.00     0.107 C 
HETATM    7  C15         0      12.491  84.155 -22.378  1.00  0.00     0.049 C 
HETATM    8  C16         0      11.523  83.422 -21.702  1.00  0.00     0.093 C 
HETATM    9  C18         0      10.721  82.624 -22.509  1.00  0.00     0.048 C 
HETATM   10  C19         0      11.155  82.233 -23.769  1.00  0.00     0.096 C 
HETATM   11  C21         0      12.375  82.650 -24.226  1.00  0.00     0.084 C 
ENDROOT
BRANCH  10  12
HETATM   12  O20         0      10.578  81.120 -24.372  1.00  0.00    -0.359 OA
HETATM   13  H20         0      11.018  80.743 -25.125  1.00  0.00     0.218 HD
ENDBRANCH  10  12
BRANCH   4  14
HETATM   14  C5          0      16.173  83.938 -25.207  1.00  0.00     0.025 C 
HETATM   15  C6          0      16.727  84.686 -26.235  1.00  0.00     0.004 C 
HETATM   16  C7          0      17.782  85.536 -25.918  1.00  0.00     0.026 C 
HETATM   17  C8          0      18.356  85.544 -24.651  1.00  0.00     0.112 C 
HETATM   18  C10         0      18.179  84.373 -23.927  1.00  0.00     0.112 C 
HETATM   19  C12         0      17.069  83.585 -24.206  1.00  0.00     0.028 C 
BRANCH  17  20
HETATM   20  O9          0      18.866  86.712 -24.111  1.00  0.00    -0.357 OA
HETATM   21  H9          0      18.328  87.449 -23.844  1.00  0.00     0.218 HD
ENDBRANCH  17  20
BRANCH  18  22
HETATM   22  O11         0      18.887  84.256 -22.739  1.00  0.00    -0.357 OA
HETATM   23  H11         0      18.535  83.663 -22.085  1.00  0.00     0.218 HD
ENDBRANCH  18  22
ENDBRANCH   4  14
BRANCH   8  24
HETATM   24  O17         0      11.579  83.244 -20.315  1.00  0.00    -0.359 OA
HETATM   25  H17         0      10.970  82.674 -19.860  1.00  0.00     0.218 HD
ENDBRANCH   8  24
TORSDOF 5
ENDMDL
MODEL 8
REMARK VINA RESULT:      -5.6      2.822      6.541
REMARK  5 active torsions:
REMARK  status: ('A' for Active; 'I' for Inactive)
REMARK    1  A    between atoms: C4_4  and  C5_5 
REMARK    2  A    between atoms: C8_8  and  O9_9 
REMARK    3  A    between atoms: C10_11  and  O11_12 
REMARK    4  A    between atoms: C16_18  and  O17_19 
REMARK    5  A    between atoms: C19_22  and  O20_23 
ROOT
HETATM    1  O1          0      15.257  81.561 -28.897  1.00  0.00    -0.286 OA
HETATM    2  C2          0      15.135  82.160 -27.793  1.00  0.00     0.201 C 
HETATM    3  C3          0      16.135  82.951 -27.254  1.00  0.00     0.067 C 
HETATM    4  C4          0      16.015  83.516 -25.989  1.00  0.00     0.103 C 
HETATM    5  O13         0      14.907  83.303 -25.302  1.00  0.00    -0.307 OA
HETATM    6  C14         0      13.942  82.530 -25.752  1.00  0.00     0.107 C 
HETATM    7  C15         0      12.987  81.986 -24.906  1.00  0.00     0.049 C 
HETATM    8  C16         0      12.133  80.977 -25.335  1.00  0.00     0.093 C 
HETATM    9  C18         0      11.922  80.933 -26.708  1.00  0.00     0.048 C 
HETATM   10  C19         0      12.834  81.508 -27.582  1.00  0.00     0.096 C 
HETATM   11  C21         0      13.942  82.140 -27.086  1.00  0.00     0.084 C 
ENDROOT
BRANCH  10  12
HETATM   12  O20         0      12.857  81.096 -28.910  1.00  0.00    -0.359 OA
HETATM   13  H20         0      12.596  80.204 -29.104  1.00  0.00     0.218 HD
ENDBRANCH  10  12
BRANCH   4  14
HETATM   14  C5          0      17.253  83.796 -25.260  1.00  0.00     0.025 C 
HETATM   15  C6          0      18.511  83.601 -25.812  1.00  0.00     0.004 C 
HETATM   16  C7          0      19.499  84.533 -25.512  1.00  0.00     0.026 C 
HETATM   17  C8          0      19.284  85.551 -24.588  1.00  0.00     0.112 C 
HETATM   18  C10         0      18.283  85.292 -23.661  1.00  0.00     0.112 C 
HETATM   19  C12         0      17.262  84.420 -24.020  1.00  0.00     0.028 C 
BRANCH  17  20
HETATM   20  O9          0      19.886  86.787 -24.743  1.00  0.00    -0.357 OA
HETATM   21  H9          0      19.408  87.590 -24.916  1.00  0.00     0.218 HD
ENDBRANCH  17  20
BRANCH  18  22
HETATM   22  O11         0      18.156  86.185 -22.607  1.00  0.00    -0.357 OA
HETATM   23  H11         0      18.315  87.102 -22.799  1.00  0.00     0.218 HD
ENDBRANCH  18  22
ENDBRANCH   4  14
BRANCH   8  24
HETATM   24  O17         0      11.795  79.904 -24.503  1.00  0.00    -0.359 OA
HETATM   25  H17         0      11.315  79.152 -24.829  1.00  0.00     0.218 HD
ENDBRANCH   8  24
TORSDOF 5
ENDMDL
MODEL 9
REMARK VINA RESULT:      -5.5      2.003      7.110
REMARK  5 active torsions:
REMARK  status: ('A' for Active; 'I' for Inactive)
REMARK    1  A    between atoms: C4_4  and  C5_5 
REMARK    2  A    between atoms: C8_8  and  O9_9 
REMARK    3  A    between atoms: C10_11  and  O11_12 
REMARK    4  A    between atoms: C16_18  and  O17_19 
REMARK    5  A    between atoms: C19_22  and  O20_23 
ROOT
HETATM    1  O1          0      13.949  81.764 -27.492  1.00  0.00    -0.286 OA
HETATM    2  C2          0      14.567  82.551 -26.724  1.00  0.00     0.201 C 
HETATM    3  C3          0      15.904  82.869 -26.893  1.00  0.00     0.067 C 
HETATM    4  C4          0      16.587  83.658 -25.974  1.00  0.00     0.103 C 
HETATM    5  O13         0      15.930  84.126 -24.927  1.00  0.00    -0.307 OA
HETATM    6  C14         0      14.671  83.823 -24.699  1.00  0.00     0.107 C 
HETATM    7  C15         0      14.102  83.964 -23.442  1.00  0.00     0.049 C 
HETATM    8  C16         0      12.862  83.411 -23.145  1.00  0.00     0.093 C 
HETATM    9  C18         0      12.033  83.206 -24.242  1.00  0.00     0.048 C 
HETATM   10  C19         0      12.566  83.106 -25.520  1.00  0.00     0.096 C 
HETATM   11  C21         0      13.916  83.228 -25.704  1.00  0.00     0.084 C 
ENDROOT
BRANCH  10  12
HETATM   12  O20         0      11.824  82.483 -26.519  1.00  0.00    -0.359 OA
HETATM   13  H20         0      11.345  81.695 -26.292  1.00  0.00     0.218 HD
ENDBRANCH  10  12
BRANCH   4  14
HETATM   14  C5          0      18.034  83.461 -25.868  1.00  0.00     0.025 C 
HETATM   15  C6          0      18.677  82.330 -26.351  1.00  0.00     0.004 C 
HETATM   16  C7          0      19.921  82.502 -26.949  1.00  0.00     0.026 C 
HETATM   17  C8          0      20.567  83.733 -26.948  1.00  0.00     0.112 C 
HETATM   18  C10         0      20.170  84.596 -25.935  1.00  0.00     0.112 C 
HETATM   19  C12         0      18.889  84.457 -25.414  1.00  0.00     0.028 C 
BRANCH  17  20
HETATM   20  O9          0      21.373  84.111 -28.008  1.00  0.00    -0.357 OA
HETATM   21  H9          0      21.952  84.864 -27.988  1.00  0.00     0.218 HD
ENDBRANCH  17  20
BRANCH  18  22
HETATM   22  O11         0      20.911  85.758 -25.773  1.00  0.00    -0.357 OA
HETATM   23  H11         0      21.755  85.794 -26.208  1.00  0.00     0.218 HD
ENDBRANCH  18  22
ENDBRANCH   4  14
BRANCH   8  24
HETATM   24  O17         0      12.611  82.804 -21.909  1.00  0.00    -0.359 OA
HETATM   25  H17         0      12.028  82.059 -21.829  1.00  0.00     0.218 HD
ENDBRANCH   8  24
TORSDOF 5
ENDMDL
