MODEL 1
REMARK VINA RESULT:      -3.2      0.000      0.000
REMARK  5 active torsions:
REMARK  status: ('A' for Active; 'I' for Inactive)
REMARK    1  A    between atoms: C4_4  and  C5_5 
REMARK    2  A    between atoms: C8_8  and  O9_9 
REMARK    3  A    between atoms: C10_11  and  O11_12 
REMARK    4  A    between atoms: C16_18  and  O17_19 
REMARK    5  A    between atoms: C19_22  and  O20_23 
ROOT
HETATM    1  O1          0      50.125  29.158 -11.159  1.00  0.00    -0.286 OA
HETATM    2  C2          0      49.050  29.363 -11.786  1.00  0.00     0.201 C 
HETATM    3  C3          0      48.586  30.632 -12.086  1.00  0.00     0.067 C 
HETATM    4  C4          0      47.349  30.833 -12.688  1.00  0.00     0.103 C 
HETATM    5  O13         0      46.614  29.778 -12.994  1.00  0.00    -0.307 OA
HETATM    6  C14         0      46.989  28.554 -12.696  1.00  0.00     0.107 C 
HETATM    7  C15         0      46.084  27.504 -12.642  1.00  0.00     0.049 C 
HETATM    8  C16         0      46.431  26.279 -12.086  1.00  0.00     0.093 C 
HETATM    9  C18         0      47.792  25.996 -12.093  1.00  0.00     0.048 C 
HETATM   10  C19         0      48.725  27.019 -12.193  1.00  0.00     0.096 C 
HETATM   11  C21         0      48.302  28.316 -12.302  1.00  0.00     0.084 C 
ENDROOT
BRANCH  10  12
HETATM   12  O20         0      50.031  26.792 -11.770  1.00  0.00    -0.359 OA
HETATM   13  H20         0      50.307  25.893 -11.640  1.00  0.00     0.218 HD
ENDBRANCH  10  12
BRANCH   4  14
HETATM   14  C5          0      46.679  32.109 -12.431  1.00  0.00     0.025 C 
HETATM   15  C6          0      45.803  32.299 -11.372  1.00  0.00     0.004 C 
HETATM   16  C7          0      45.845  33.524 -10.713  1.00  0.00     0.026 C 
HETATM   17  C8          0      46.634  34.573 -11.173  1.00  0.00     0.112 C 
HETATM   18  C10         0      46.950  34.512 -12.523  1.00  0.00     0.112 C 
HETATM   19  C12         0      46.984  33.265 -13.138  1.00  0.00     0.028 C 
BRANCH  17  20
HETATM   20  O9          0      47.212  35.466 -10.288  1.00  0.00    -0.357 OA
HETATM   21  H9          0      46.717  36.087  -9.766  1.00  0.00     0.218 HD
ENDBRANCH  17  20
BRANCH  18  22
HETATM   22  O11         0      47.572  35.623 -13.074  1.00  0.00    -0.357 OA
HETATM   23  H11         0      47.109  36.073 -13.772  1.00  0.00     0.218 HD
ENDBRANCH  18  22
ENDBRANCH   4  14
BRANCH   8  24
HETATM   24  O17         0      45.534  25.560 -11.288  1.00  0.00    -0.359 OA
HETATM   25  H17         0      45.349  25.813 -10.392  1.00  0.00     0.218 HD
ENDBRANCH   8  24
TORSDOF 5
ENDMDL
MODEL 2
REMARK VINA RESULT:      -3.0      1.651      2.917
REMARK  5 active torsions:
REMARK  status: ('A' for Active; 'I' for Inactive)
REMARK    1  A    between atoms: C4_4  and  C5_5 
REMARK    2  A    between atoms: C8_8  and  O9_9 
REMARK    3  A    between atoms: C10_11  and  O11_12 
REMARK    4  A    between atoms: C16_18  and  O17_19 
REMARK    5  A    between atoms: C19_22  and  O20_23 
ROOT
HETATM    1  O1          0      44.544  28.526 -12.596  1.00  0.00    -0.286 OA
HETATM    2  C2          0      45.463  29.327 -12.272  1.00  0.00     0.201 C 
HETATM    3  C3          0      45.214  30.563 -11.701  1.00  0.00     0.067 C 
HETATM    4  C4          0      46.238  31.469 -11.447  1.00  0.00     0.103 C 
HETATM    5  O13         0      47.479  31.123 -11.744  1.00  0.00    -0.307 OA
HETATM    6  C14         0      47.766  29.977 -12.322  1.00  0.00     0.107 C 
HETATM    7  C15         0      48.966  29.775 -12.988  1.00  0.00     0.049 C 
HETATM    8  C16         0      49.160  28.669 -13.806  1.00  0.00     0.093 C 
HETATM    9  C18         0      48.361  27.571 -13.508  1.00  0.00     0.048 C 
HETATM   10  C19         0      47.177  27.732 -12.802  1.00  0.00     0.096 C 
HETATM   11  C21         0      46.800  28.978 -12.381  1.00  0.00     0.084 C 
ENDROOT
BRANCH  10  12
HETATM   12  O20         0      46.197  26.748 -12.886  1.00  0.00    -0.359 OA
HETATM   13  H20         0      45.924  26.321 -12.082  1.00  0.00     0.218 HD
ENDBRANCH  10  12
BRANCH   4  14
HETATM   14  C5          0      45.887  32.890 -11.431  1.00  0.00     0.025 C 
HETATM   15  C6          0      45.172  33.476 -10.397  1.00  0.00     0.004 C 
HETATM   16  C7          0      45.538  34.761 -10.008  1.00  0.00     0.026 C 
HETATM   17  C8          0      46.491  35.492 -10.709  1.00  0.00     0.112 C 
HETATM   18  C10         0      46.664  35.102 -12.030  1.00  0.00     0.112 C 
HETATM   19  C12         0      46.372  33.787 -12.374  1.00  0.00     0.028 C 
BRANCH  17  20
HETATM   20  O9          0      47.326  36.380 -10.055  1.00  0.00    -0.357 OA
HETATM   21  H9          0      47.581  36.291  -9.144  1.00  0.00     0.218 HD
ENDBRANCH  17  20
BRANCH  18  22
HETATM   22  O11         0      47.460  35.913 -12.826  1.00  0.00    -0.357 OA
HETATM   23  H11         0      47.768  36.725 -12.440  1.00  0.00     0.218 HD
ENDBRANCH  18  22
ENDBRANCH   4  14
BRANCH   8  24
HETATM   24  O17         0      49.844  28.772 -15.022  1.00  0.00    -0.359 OA
HETATM   25  H17         0      49.460  29.204 -15.776  1.00  0.00     0.218 HD
ENDBRANCH   8  24
TORSDOF 5
ENDMDL
MODEL 3
REMARK VINA RESULT:      -3.0      1.708      6.576
REMARK  5 active torsions:
REMARK  status: ('A' for Active; 'I' for Inactive)
REMARK    1  A    between atoms: C4_4  and  C5_5 
REMARK    2  A    between atoms: C8_8  and  O9_9 
REMARK    3  A    between atoms: C10_11  and  O11_12 
REMARK    4  A    between atoms: C16_18  and  O17_19 
REMARK    5  A    between atoms: C19_22  and  O20_23 
ROOT
HETATM    1  O1          0      49.116  33.361 -11.837  1.00  0.00    -0.286 OA
HETATM    2  C2          0      48.328  32.380 -11.750  1.00  0.00     0.201 C 
HETATM    3  C3          0      48.755  31.065 -11.832  1.00  0.00     0.067 C 
HETATM    4  C4          0      47.855  30.006 -11.837  1.00  0.00     0.103 C 
HETATM    5  O13         0      46.564  30.270 -11.741  1.00  0.00    -0.307 OA
HETATM    6  C14         0      46.103  31.501 -11.698  1.00  0.00     0.107 C 
HETATM    7  C15         0      44.781  31.797 -11.998  1.00  0.00     0.049 C 
HETATM    8  C16         0      44.363  33.107 -12.201  1.00  0.00     0.093 C 
HETATM    9  C18         0      45.148  34.075 -11.587  1.00  0.00     0.048 C 
HETATM   10  C19         0      46.461  33.797 -11.231  1.00  0.00     0.096 C 
HETATM   11  C21         0      46.981  32.555 -11.471  1.00  0.00     0.084 C 
ENDROOT
BRANCH  10  12
HETATM   12  O20         0      47.350  34.850 -11.035  1.00  0.00    -0.359 OA
HETATM   13  H20         0      47.060  35.725 -11.260  1.00  0.00     0.218 HD
ENDBRANCH  10  12
BRANCH   4  14
HETATM   14  C5          0      48.274  28.773 -12.506  1.00  0.00     0.025 C 
HETATM   15  C6          0      49.554  28.589 -13.009  1.00  0.00     0.004 C 
HETATM   16  C7          0      50.125  27.328 -12.874  1.00  0.00     0.026 C 
HETATM   17  C8          0      49.400  26.249 -12.378  1.00  0.00     0.112 C 
HETATM   18  C10         0      48.023  26.367 -12.507  1.00  0.00     0.112 C 
HETATM   19  C12         0      47.471  27.642 -12.555  1.00  0.00     0.028 C 
BRANCH  17  20
HETATM   20  O9          0      50.020  25.261 -11.634  1.00  0.00    -0.357 OA
HETATM   21  H9          0      49.921  25.168 -10.693  1.00  0.00     0.218 HD
ENDBRANCH  17  20
BRANCH  18  22
HETATM   22  O11         0      47.265  25.245 -12.204  1.00  0.00    -0.357 OA
HETATM   23  H11         0      47.271  24.538 -12.838  1.00  0.00     0.218 HD
ENDBRANCH  18  22
ENDBRANCH   4  14
BRANCH   8  24
HETATM   24  O17         0      43.446  33.432 -13.206  1.00  0.00    -0.359 OA
HETATM   25  H17         0      42.804  34.123 -13.092  1.00  0.00     0.218 HD
ENDBRANCH   8  24
TORSDOF 5
ENDMDL
MODEL 4
REMARK VINA RESULT:      -2.9      1.690      3.208
REMARK  5 active torsions:
REMARK  status: ('A' for Active; 'I' for Inactive)
REMARK    1  A    between atoms: C4_4  and  C5_5 
REMARK    2  A    between atoms: C8_8  and  O9_9 
REMARK    3  A    between atoms: C10_11  and  O11_12 
REMARK    4  A    between atoms: C16_18  and  O17_19 
REMARK    5  A    between atoms: C19_22  and  O20_23 
ROOT
HETATM    1  O1          0      44.432  27.071 -13.187  1.00  0.00    -0.286 OA
HETATM    2  C2          0      45.545  27.485 -12.760  1.00  0.00     0.201 C 
HETATM    3  C3          0      45.806  28.824 -12.520  1.00  0.00     0.067 C 
HETATM    4  C4          0      47.071  29.264 -12.149  1.00  0.00     0.103 C 
HETATM    5  O13         0      48.036  28.374 -12.005  1.00  0.00    -0.307 OA
HETATM    6  C14         0      47.852  27.096 -12.256  1.00  0.00     0.107 C 
HETATM    7  C15         0      48.915  26.238 -12.496  1.00  0.00     0.049 C 
HETATM    8  C16         0      48.711  24.962 -13.008  1.00  0.00     0.093 C 
HETATM    9  C18         0      47.454  24.424 -12.760  1.00  0.00     0.048 C 
HETATM   10  C19         0      46.378  25.252 -12.470  1.00  0.00     0.096 C 
HETATM   11  C21         0      46.560  26.607 -12.411  1.00  0.00     0.084 C 
ENDROOT
BRANCH  10  12
HETATM   12  O20         0      45.084  24.775 -12.655  1.00  0.00    -0.359 OA
HETATM   13  H20         0      44.415  25.394 -12.925  1.00  0.00     0.218 HD
ENDBRANCH  10  12
BRANCH   4  14
HETATM   14  C5          0      47.429  30.641 -12.494  1.00  0.00     0.025 C 
HETATM   15  C6          0      46.522  31.540 -13.039  1.00  0.00     0.004 C 
HETATM   16  C7          0      46.595  32.864 -12.617  1.00  0.00     0.026 C 
HETATM   17  C8          0      47.617  33.310 -11.786  1.00  0.00     0.112 C 
HETATM   18  C10         0      48.771  32.539 -11.822  1.00  0.00     0.112 C 
HETATM   19  C12         0      48.658  31.196 -12.164  1.00  0.00     0.028 C 
BRANCH  17  20
HETATM   20  O9          0      47.391  34.312 -10.860  1.00  0.00    -0.357 OA
HETATM   21  H9          0      47.448  34.185  -9.920  1.00  0.00     0.218 HD
ENDBRANCH  17  20
BRANCH  18  22
HETATM   22  O11         0      49.883  33.041 -11.161  1.00  0.00    -0.357 OA
HETATM   23  H11         0      49.991  32.791 -10.251  1.00  0.00     0.218 HD
ENDBRANCH  18  22
ENDBRANCH   4  14
BRANCH   8  24
HETATM   24  O17         0      49.568  24.416 -13.970  1.00  0.00    -0.359 OA
HETATM   25  H17         0      50.167  24.958 -14.470  1.00  0.00     0.218 HD
ENDBRANCH   8  24
TORSDOF 5
ENDMDL
MODEL 5
REMARK VINA RESULT:      -2.8      1.988      6.759
REMARK  5 active torsions:
REMARK  status: ('A' for Active; 'I' for Inactive)
REMARK    1  A    between atoms: C4_4  and  C5_5 
REMARK    2  A    between atoms: C8_8  and  O9_9 
REMARK    3  A    between atoms: C10_11  and  O11_12 
REMARK    4  A    between atoms: C16_18  and  O17_19 
REMARK    5  A    between atoms: C19_22  and  O20_23 
ROOT
HETATM    1  O1          0      47.800  34.790 -13.174  1.00  0.00    -0.286 OA
HETATM    2  C2          0      47.347  33.862 -12.449  1.00  0.00     0.201 C 
HETATM    3  C3          0      47.587  32.524 -12.707  1.00  0.00     0.067 C 
HETATM    4  C4          0      46.993  31.518 -11.953  1.00  0.00     0.103 C 
HETATM    5  O13         0      46.197  31.860 -10.955  1.00  0.00    -0.307 OA
HETATM    6  C14         0      45.906  33.115 -10.691  1.00  0.00     0.107 C 
HETATM    7  C15         0      44.795  33.464  -9.937  1.00  0.00     0.049 C 
HETATM    8  C16         0      44.350  34.780  -9.875  1.00  0.00     0.093 C 
HETATM    9  C18         0      45.320  35.740 -10.131  1.00  0.00     0.048 C 
HETATM   10  C19         0      46.467  35.413 -10.842  1.00  0.00     0.096 C 
HETATM   11  C21         0      46.651  34.130 -11.281  1.00  0.00     0.084 C 
ENDROOT
BRANCH  10  12
HETATM   12  O20         0      47.196  36.425 -11.459  1.00  0.00    -0.359 OA
HETATM   13  H20         0      48.108  36.256 -11.662  1.00  0.00     0.218 HD
ENDBRANCH  10  12
BRANCH   4  14
HETATM   14  C5          0      46.790  30.223 -12.605  1.00  0.00     0.025 C 
HETATM   15  C6          0      47.655  29.152 -12.434  1.00  0.00     0.004 C 
HETATM   16  C7          0      47.097  27.880 -12.348  1.00  0.00     0.026 C 
HETATM   17  C8          0      45.740  27.664 -12.558  1.00  0.00     0.112 C 
HETATM   18  C10         0      45.108  28.637 -13.320  1.00  0.00     0.112 C 
HETATM   19  C12         0      45.639  29.922 -13.321  1.00  0.00     0.028 C 
BRANCH  17  20
HETATM   20  O9          0      45.066  26.668 -11.873  1.00  0.00    -0.357 OA
HETATM   21  H9          0      44.309  26.826 -11.321  1.00  0.00     0.218 HD
ENDBRANCH  17  20
BRANCH  18  22
HETATM   22  O11         0      43.805  28.377 -13.718  1.00  0.00    -0.357 OA
HETATM   23  H11         0      43.261  27.884 -13.114  1.00  0.00     0.218 HD
ENDBRANCH  18  22
ENDBRANCH   4  14
BRANCH   8  24
HETATM   24  O17         0      42.985  35.089  -9.893  1.00  0.00    -0.359 OA
HETATM   25  H17         0      42.587  35.628  -9.220  1.00  0.00     0.218 HD
ENDBRANCH   8  24
TORSDOF 5
ENDMDL
MODEL 6
REMARK VINA RESULT:      -2.8      3.060      8.286
REMARK  5 active torsions:
REMARK  status: ('A' for Active; 'I' for Inactive)
REMARK    1  A    between atoms: C4_4  and  C5_5 
REMARK    2  A    between atoms: C8_8  and  O9_9 
REMARK    3  A    between atoms: C10_11  and  O11_12 
REMARK    4  A    between atoms: C16_18  and  O17_19 
REMARK    5  A    between atoms: C19_22  and  O20_23 
ROOT
HETATM    1  O1          0      46.305  36.450 -14.433  1.00  0.00    -0.286 OA
HETATM    2  C2          0      46.513  36.172 -13.220  1.00  0.00     0.201 C 
HETATM    3  C3          0      46.698  34.877 -12.767  1.00  0.00     0.067 C 
HETATM    4  C4          0      46.822  34.589 -11.413  1.00  0.00     0.103 C 
HETATM    5  O13         0      46.781  35.586 -10.546  1.00  0.00    -0.307 OA
HETATM    6  C14         0      46.570  36.829 -10.919  1.00  0.00     0.107 C 
HETATM    7  C15         0      46.132  37.796 -10.025  1.00  0.00     0.049 C 
HETATM    8  C16         0      45.670  39.030 -10.467  1.00  0.00     0.093 C 
HETATM    9  C18         0      46.152  39.428 -11.708  1.00  0.00     0.048 C 
HETATM   10  C19         0      46.640  38.491 -12.608  1.00  0.00     0.096 C 
HETATM   11  C21         0      46.663  37.166 -12.265  1.00  0.00     0.084 C 
ENDROOT
BRANCH  10  12
HETATM   12  O20         0      46.705  38.815 -13.960  1.00  0.00    -0.359 OA
HETATM   13  H20         0      47.444  38.492 -14.461  1.00  0.00     0.218 HD
ENDBRANCH  10  12
BRANCH   4  14
HETATM   14  C5          0      46.414  33.254 -10.972  1.00  0.00     0.025 C 
HETATM   15  C6          0      45.407  33.044 -10.041  1.00  0.00     0.004 C 
HETATM   16  C7          0      44.558  31.961 -10.242  1.00  0.00     0.026 C 
HETATM   17  C8          0      44.782  31.038 -11.259  1.00  0.00     0.112 C 
HETATM   18  C10         0      46.097  30.968 -11.699  1.00  0.00     0.112 C 
HETATM   19  C12         0      46.900  32.095 -11.562  1.00  0.00     0.028 C 
BRANCH  17  20
HETATM   20  O9          0      43.724  30.417 -11.897  1.00  0.00    -0.357 OA
HETATM   21  H9          0      43.406  30.666 -12.757  1.00  0.00     0.218 HD
ENDBRANCH  17  20
BRANCH  18  22
HETATM   22  O11         0      46.413  29.938 -12.573  1.00  0.00    -0.357 OA
HETATM   23  H11         0      45.694  29.552 -13.060  1.00  0.00     0.218 HD
ENDBRANCH  18  22
ENDBRANCH   4  14
BRANCH   8  24
HETATM   24  O17         0      44.563  39.648  -9.875  1.00  0.00    -0.359 OA
HETATM   25  H17         0      44.349  40.557 -10.045  1.00  0.00     0.218 HD
ENDBRANCH   8  24
TORSDOF 5
ENDMDL
MODEL 7
REMARK VINA RESULT:      -2.8     15.816     18.352
REMARK  5 active torsions:
REMARK  status: ('A' for Active; 'I' for Inactive)
REMARK    1  A    between atoms: C4_4  and  C5_5 
REMARK    2  A    between atoms: C8_8  and  O9_9 
REMARK    3  A    between atoms: C10_11  and  O11_12 
REMARK    4  A    between atoms: C16_18  and  O17_19 
REMARK    5  A    between atoms: C19_22  and  O20_23 
ROOT
HETATM    1  O1          0      32.911  39.376 -21.444  1.00  0.00    -0.286 OA
HETATM    2  C2          0      33.776  38.594 -21.926  1.00  0.00     0.201 C 
HETATM    3  C3          0      34.911  38.210 -21.231  1.00  0.00     0.067 C 
HETATM    4  C4          0      35.898  37.431 -21.823  1.00  0.00     0.103 C 
HETATM    5  O13         0      35.731  37.035 -23.072  1.00  0.00    -0.307 OA
HETATM    6  C14         0      34.691  37.403 -23.789  1.00  0.00     0.107 C 
HETATM    7  C15         0      34.699  37.338 -25.174  1.00  0.00     0.049 C 
HETATM    8  C16         0      33.711  37.958 -25.931  1.00  0.00     0.093 C 
HETATM    9  C18         0      32.504  38.155 -25.272  1.00  0.00     0.048 C 
HETATM   10  C19         0      32.453  38.178 -23.885  1.00  0.00     0.096 C 
HETATM   11  C21         0      33.598  37.989 -23.160  1.00  0.00     0.084 C 
ENDROOT
BRANCH  10  12
HETATM   12  O20         0      31.375  38.792 -23.254  1.00  0.00    -0.359 OA
HETATM   13  H20         0      30.502  38.595 -23.571  1.00  0.00     0.218 HD
ENDBRANCH  10  12
BRANCH   4  14
HETATM   14  C5          0      37.260  37.567 -21.303  1.00  0.00     0.025 C 
HETATM   15  C6          0      38.377  37.121 -21.994  1.00  0.00     0.004 C 
HETATM   16  C7          0      39.527  37.902 -21.933  1.00  0.00     0.026 C 
HETATM   17  C8          0      39.609  39.017 -21.107  1.00  0.00     0.112 C 
HETATM   18  C10         0      38.731  39.007 -20.031  1.00  0.00     0.112 C 
HETATM   19  C12         0      37.548  38.286 -20.150  1.00  0.00     0.028 C 
BRANCH  17  20
HETATM   20  O9          0      40.358  40.120 -21.476  1.00  0.00    -0.357 OA
HETATM   21  H9          0      41.019  40.104 -22.159  1.00  0.00     0.218 HD
ENDBRANCH  17  20
BRANCH  18  22
HETATM   22  O11         0      38.899  39.997 -19.074  1.00  0.00    -0.357 OA
HETATM   23  H11         0      39.701  40.505 -19.116  1.00  0.00     0.218 HD
ENDBRANCH  18  22
ENDBRANCH   4  14
BRANCH   8  24
HETATM   24  O17         0      34.017  38.625 -27.123  1.00  0.00    -0.359 OA
HETATM   25  H17         0      33.622  39.461 -27.342  1.00  0.00     0.218 HD
ENDBRANCH   8  24
TORSDOF 5
ENDMDL
MODEL 8
REMARK VINA RESULT:      -2.7      2.647      4.999
REMARK  5 active torsions:
REMARK  status: ('A' for Active; 'I' for Inactive)
REMARK    1  A    between atoms: C4_4  and  C5_5 
REMARK    2  A    between atoms: C8_8  and  O9_9 
REMARK    3  A    between atoms: C10_11  and  O11_12 
REMARK    4  A    between atoms: C16_18  and  O17_19 
REMARK    5  A    between atoms: C19_22  and  O20_23 
ROOT
HETATM    1  O1          0      44.190  32.071 -12.265  1.00  0.00    -0.286 OA
HETATM    2  C2          0      45.173  32.780 -11.914  1.00  0.00     0.201 C 
HETATM    3  C3          0      45.056  34.124 -11.604  1.00  0.00     0.067 C 
HETATM    4  C4          0      46.169  34.906 -11.319  1.00  0.00     0.103 C 
HETATM    5  O13         0      47.362  34.338 -11.327  1.00  0.00    -0.307 OA
HETATM    6  C14         0      47.533  33.075 -11.650  1.00  0.00     0.107 C 
HETATM    7  C15         0      48.768  32.582 -12.047  1.00  0.00     0.049 C 
HETATM    8  C16         0      48.892  31.325 -12.627  1.00  0.00     0.093 C 
HETATM    9  C18         0      47.880  30.429 -12.304  1.00  0.00     0.048 C 
HETATM   10  C19         0      46.647  30.886 -11.860  1.00  0.00     0.096 C 
HETATM   11  C21         0      46.431  32.230 -11.721  1.00  0.00     0.084 C 
ENDROOT
BRANCH  10  12
HETATM   12  O20         0      45.537  30.053 -11.959  1.00  0.00    -0.359 OA
HETATM   13  H20         0      45.601  29.180 -11.593  1.00  0.00     0.218 HD
ENDBRANCH  10  12
BRANCH   4  14
HETATM   14  C5          0      46.070  36.340 -11.597  1.00  0.00     0.025 C 
HETATM   15  C6          0      46.468  37.311 -10.690  1.00  0.00     0.004 C 
HETATM   16  C7          0      47.097  38.445 -11.194  1.00  0.00     0.026 C 
HETATM   17  C8          0      47.207  38.671 -12.562  1.00  0.00     0.112 C 
HETATM   18  C10         0      46.261  38.011 -13.336  1.00  0.00     0.112 C 
HETATM   19  C12         0      45.711  36.833 -12.845  1.00  0.00     0.028 C 
BRANCH  17  20
HETATM   20  O9          0      48.305  39.329 -13.086  1.00  0.00    -0.357 OA
HETATM   21  H9          0      48.383  40.275 -13.130  1.00  0.00     0.218 HD
ENDBRANCH  17  20
BRANCH  18  22
HETATM   22  O11         0      46.205  38.347 -14.681  1.00  0.00    -0.357 OA
HETATM   23  H11         0      46.958  38.801 -15.043  1.00  0.00     0.218 HD
ENDBRANCH  18  22
ENDBRANCH   4  14
BRANCH   8  24
HETATM   24  O17         0      49.761  31.099 -13.699  1.00  0.00    -0.359 OA
HETATM   25  H17         0      50.327  30.337 -13.731  1.00  0.00     0.218 HD
ENDBRANCH   8  24
TORSDOF 5
ENDMDL
MODEL 9
REMARK VINA RESULT:      -2.7     14.777     17.054
REMARK  5 active torsions:
REMARK  status: ('A' for Active; 'I' for Inactive)
REMARK    1  A    between atoms: C4_4  and  C5_5 
REMARK    2  A    between atoms: C8_8  and  O9_9 
REMARK    3  A    between atoms: C10_11  and  O11_12 
REMARK    4  A    between atoms: C16_18  and  O17_19 
REMARK    5  A    between atoms: C19_22  and  O20_23 
ROOT
HETATM    1  O1          0      39.111  37.036 -19.777  1.00  0.00    -0.286 OA
HETATM    2  C2          0      38.288  37.566 -20.573  1.00  0.00     0.201 C 
HETATM    3  C3          0      36.968  37.812 -20.235  1.00  0.00     0.067 C 
HETATM    4  C4          0      36.057  38.301 -21.164  1.00  0.00     0.103 C 
HETATM    5  O13         0      36.476  38.553 -22.392  1.00  0.00    -0.307 OA
HETATM    6  C14         0      37.708  38.302 -22.776  1.00  0.00     0.107 C 
HETATM    7  C15         0      38.046  38.180 -24.116  1.00  0.00     0.049 C 
HETATM    8  C16         0      39.278  37.668 -24.506  1.00  0.00     0.093 C 
HETATM    9  C18         0      40.291  37.797 -23.564  1.00  0.00     0.048 C 
HETATM   10  C19         0      39.989  37.967 -22.220  1.00  0.00     0.096 C 
HETATM   11  C21         0      38.681  38.026 -21.821  1.00  0.00     0.084 C 
ENDROOT
BRANCH  10  12
HETATM   12  O20         0      40.950  37.661 -21.262  1.00  0.00    -0.359 OA
HETATM   13  H20         0      41.472  36.878 -21.389  1.00  0.00     0.218 HD
ENDBRANCH  10  12
BRANCH   4  14
HETATM   14  C5          0      34.646  37.975 -20.954  1.00  0.00     0.025 C 
HETATM   15  C6          0      34.193  37.275 -19.844  1.00  0.00     0.004 C 
HETATM   16  C7          0      32.979  37.665 -19.288  1.00  0.00     0.026 C 
HETATM   17  C8          0      32.176  38.627 -19.891  1.00  0.00     0.112 C 
HETATM   18  C10         0      32.386  38.788 -21.254  1.00  0.00     0.112 C 
HETATM   19  C12         0      33.637  38.471 -21.770  1.00  0.00     0.028 C 
BRANCH  17  20
HETATM   20  O9          0      31.398  39.481 -19.128  1.00  0.00    -0.357 OA
HETATM   21  H9          0      31.623  40.387 -18.955  1.00  0.00     0.218 HD
ENDBRANCH  17  20
BRANCH  18  22
HETATM   22  O11         0      31.488  39.594 -21.938  1.00  0.00    -0.357 OA
HETATM   23  H11         0      31.285  39.348 -22.833  1.00  0.00     0.218 HD
ENDBRANCH  18  22
ENDBRANCH   4  14
BRANCH   8  24
HETATM   24  O17         0      39.394  36.803 -25.600  1.00  0.00    -0.359 OA
HETATM   25  H17         0      39.413  35.860 -25.490  1.00  0.00     0.218 HD
ENDBRANCH   8  24
TORSDOF 5
ENDMDL
