MODEL 1
REMARK VINA RESULT:      -2.0      0.000      0.000
REMARK  5 active torsions:
REMARK  status: ('A' for Active; 'I' for Inactive)
REMARK    1  A    between atoms: C4_4  and  C5_5 
REMARK    2  A    between atoms: C8_8  and  O9_9 
REMARK    3  A    between atoms: C10_11  and  O11_12 
REMARK    4  A    between atoms: C16_18  and  O17_19 
REMARK    5  A    between atoms: C19_22  and  O20_23 
ROOT
HETATM    1  O1          0      44.561  -0.499 -21.062  1.00  0.00    -0.286 OA
HETATM    2  C2          0      44.777  -1.737 -20.960  1.00  0.00     0.201 C 
HETATM    3  C3          0      46.032  -2.261 -20.698  1.00  0.00     0.067 C 
HETATM    4  C4          0      46.263  -3.632 -20.692  1.00  0.00     0.103 C 
HETATM    5  O13         0      45.249  -4.447 -20.923  1.00  0.00    -0.307 OA
HETATM    6  C14         0      44.046  -4.002 -21.214  1.00  0.00     0.107 C 
HETATM    7  C15         0      43.101  -4.804 -21.838  1.00  0.00     0.049 C 
HETATM    8  C16         0      41.935  -4.265 -22.370  1.00  0.00     0.093 C 
HETATM    9  C18         0      41.530  -3.065 -21.799  1.00  0.00     0.048 C 
HETATM   10  C19         0      42.440  -2.260 -21.127  1.00  0.00     0.096 C 
HETATM   11  C21         0      43.744  -2.660 -21.011  1.00  0.00     0.084 C 
ENDROOT
BRANCH  10  12
HETATM   12  O20         0      42.154  -0.910 -20.950  1.00  0.00    -0.359 OA
HETATM   13  H20         0      42.204  -0.341 -21.709  1.00  0.00     0.218 HD
ENDBRANCH  10  12
BRANCH   4  14
HETATM   14  C5          0      47.618  -4.084 -21.011  1.00  0.00     0.025 C 
HETATM   15  C6          0      48.508  -4.531 -20.046  1.00  0.00     0.004 C 
HETATM   16  C7          0      49.329  -5.605 -20.374  1.00  0.00     0.026 C 
HETATM   17  C8          0      49.362  -6.132 -21.661  1.00  0.00     0.112 C 
HETATM   18  C10         0      48.950  -5.256 -22.656  1.00  0.00     0.112 C 
HETATM   19  C12         0      48.062  -4.242 -22.318  1.00  0.00     0.028 C 
BRANCH  17  20
HETATM   20  O9          0      49.585  -7.482 -21.869  1.00  0.00    -0.357 OA
HETATM   21  H9          0      50.409  -7.916 -21.679  1.00  0.00     0.218 HD
ENDBRANCH  17  20
BRANCH  18  22
HETATM   22  O11         0      49.140  -5.663 -23.969  1.00  0.00    -0.357 OA
HETATM   23  H11         0      49.856  -5.258 -24.445  1.00  0.00     0.218 HD
ENDBRANCH  18  22
ENDBRANCH   4  14
BRANCH   8  24
HETATM   24  O17         0      41.416  -4.712 -23.589  1.00  0.00    -0.359 OA
HETATM   25  H17         0      41.973  -4.868 -24.342  1.00  0.00     0.218 HD
ENDBRANCH   8  24
TORSDOF 5
ENDMDL
MODEL 2
REMARK VINA RESULT:      -1.8      1.785      2.316
REMARK  5 active torsions:
REMARK  status: ('A' for Active; 'I' for Inactive)
REMARK    1  A    between atoms: C4_4  and  C5_5 
REMARK    2  A    between atoms: C8_8  and  O9_9 
REMARK    3  A    between atoms: C10_11  and  O11_12 
REMARK    4  A    between atoms: C16_18  and  O17_19 
REMARK    5  A    between atoms: C19_22  and  O20_23 
ROOT
HETATM    1  O1          0      43.590  -3.118 -24.821  1.00  0.00    -0.286 OA
HETATM    2  C2          0      43.872  -3.469 -23.642  1.00  0.00     0.201 C 
HETATM    3  C3          0      45.081  -3.166 -23.039  1.00  0.00     0.067 C 
HETATM    4  C4          0      45.406  -3.652 -21.777  1.00  0.00     0.103 C 
HETATM    5  O13         0      44.526  -4.404 -21.140  1.00  0.00    -0.307 OA
HETATM    6  C14         0      43.380  -4.751 -21.683  1.00  0.00     0.107 C 
HETATM    7  C15         0      42.647  -5.832 -21.214  1.00  0.00     0.049 C 
HETATM    8  C16         0      41.580  -6.349 -21.939  1.00  0.00     0.093 C 
HETATM    9  C18         0      40.977  -5.455 -22.814  1.00  0.00     0.048 C 
HETATM   10  C19         0      41.666  -4.338 -23.267  1.00  0.00     0.096 C 
HETATM   11  C21         0      42.943  -4.106 -22.834  1.00  0.00     0.084 C 
ENDROOT
BRANCH  10  12
HETATM   12  O20         0      41.249  -3.709 -24.436  1.00  0.00    -0.359 OA
HETATM   13  H20         0      41.440  -4.135 -25.263  1.00  0.00     0.218 HD
ENDBRANCH  10  12
BRANCH   4  14
HETATM   14  C5          0      46.828  -3.818 -21.471  1.00  0.00     0.025 C 
HETATM   15  C6          0      47.294  -4.104 -20.195  1.00  0.00     0.004 C 
HETATM   16  C7          0      48.365  -4.985 -20.083  1.00  0.00     0.026 C 
HETATM   17  C8          0      49.038  -5.461 -21.202  1.00  0.00     0.112 C 
HETATM   18  C10         0      48.928  -4.660 -22.330  1.00  0.00     0.112 C 
HETATM   19  C12         0      47.804  -3.852 -22.458  1.00  0.00     0.028 C 
BRANCH  17  20
HETATM   20  O9          0      49.581  -6.734 -21.214  1.00  0.00    -0.357 OA
HETATM   21  H9          0      50.232  -7.036 -20.591  1.00  0.00     0.218 HD
ENDBRANCH  17  20
BRANCH  18  22
HETATM   22  O11         0      49.729  -4.987 -23.415  1.00  0.00    -0.357 OA
HETATM   23  H11         0      50.082  -5.869 -23.438  1.00  0.00     0.218 HD
ENDBRANCH  18  22
ENDBRANCH   4  14
BRANCH   8  24
HETATM   24  O17         0      41.359  -7.728 -22.027  1.00  0.00    -0.359 OA
HETATM   25  H17         0      41.757  -8.254 -22.711  1.00  0.00     0.218 HD
ENDBRANCH   8  24
TORSDOF 5
ENDMDL
MODEL 3
REMARK VINA RESULT:      -1.5      4.616      6.811
REMARK  5 active torsions:
REMARK  status: ('A' for Active; 'I' for Inactive)
REMARK    1  A    between atoms: C4_4  and  C5_5 
REMARK    2  A    between atoms: C8_8  and  O9_9 
REMARK    3  A    between atoms: C10_11  and  O11_12 
REMARK    4  A    between atoms: C16_18  and  O17_19 
REMARK    5  A    between atoms: C19_22  and  O20_23 
ROOT
HETATM    1  O1          0      49.310  -6.917 -21.593  1.00  0.00    -0.286 OA
HETATM    2  C2          0      49.345  -6.411 -22.748  1.00  0.00     0.201 C 
HETATM    3  C3          0      49.756  -5.111 -22.986  1.00  0.00     0.067 C 
HETATM    4  C4          0      49.688  -4.545 -24.254  1.00  0.00     0.103 C 
HETATM    5  O13         0      49.236  -5.282 -25.254  1.00  0.00    -0.307 OA
HETATM    6  C14         0      48.798  -6.509 -25.076  1.00  0.00     0.107 C 
HETATM    7  C15         0      47.973  -7.132 -26.001  1.00  0.00     0.049 C 
HETATM    8  C16         0      47.311  -8.315 -25.697  1.00  0.00     0.093 C 
HETATM    9  C18         0      47.907  -9.081 -24.701  1.00  0.00     0.048 C 
HETATM   10  C19         0      48.775  -8.499 -23.788  1.00  0.00     0.096 C 
HETATM   11  C21         0      49.060  -7.163 -23.877  1.00  0.00     0.084 C 
ENDROOT
BRANCH  10  12
HETATM   12  O20         0      49.013  -9.136 -22.574  1.00  0.00    -0.359 OA
HETATM   13  H20         0      49.826  -9.617 -22.475  1.00  0.00     0.218 HD
ENDBRANCH  10  12
BRANCH   4  14
HETATM   14  C5          0      49.548  -3.090 -24.332  1.00  0.00     0.025 C 
HETATM   15  C6          0      48.775  -2.459 -25.295  1.00  0.00     0.004 C 
HETATM   16  C7          0      48.049  -1.337 -24.907  1.00  0.00     0.026 C 
HETATM   17  C8          0      48.190  -0.780 -23.641  1.00  0.00     0.112 C 
HETATM   18  C10         0      49.394  -1.068 -23.011  1.00  0.00     0.112 C 
HETATM   19  C12         0      50.056  -2.240 -23.357  1.00  0.00     0.028 C 
BRANCH  17  20
HETATM   20  O9          0      47.118  -0.176 -23.009  1.00  0.00    -0.357 OA
HETATM   21  H9          0      47.113   0.063 -22.089  1.00  0.00     0.218 HD
ENDBRANCH  17  20
BRANCH  18  22
HETATM   22  O11         0      49.665  -0.388 -21.833  1.00  0.00    -0.357 OA
HETATM   23  H11         0      49.634   0.561 -21.867  1.00  0.00     0.218 HD
ENDBRANCH  18  22
ENDBRANCH   4  14
BRANCH   8  24
HETATM   24  O17         0      45.994  -8.541 -26.110  1.00  0.00    -0.359 OA
HETATM   25  H17         0      45.441  -7.835 -26.425  1.00  0.00     0.218 HD
ENDBRANCH   8  24
TORSDOF 5
ENDMDL
MODEL 4
REMARK VINA RESULT:      -1.5      3.545      6.453
REMARK  5 active torsions:
REMARK  status: ('A' for Active; 'I' for Inactive)
REMARK    1  A    between atoms: C4_4  and  C5_5 
REMARK    2  A    between atoms: C8_8  and  O9_9 
REMARK    3  A    between atoms: C10_11  and  O11_12 
REMARK    4  A    between atoms: C16_18  and  O17_19 
REMARK    5  A    between atoms: C19_22  and  O20_23 
ROOT
HETATM    1  O1          0      46.264  -3.478 -21.514  1.00  0.00    -0.286 OA
HETATM    2  C2          0      47.001  -3.761 -22.498  1.00  0.00     0.201 C 
HETATM    3  C3          0      46.725  -3.339 -23.788  1.00  0.00     0.067 C 
HETATM    4  C4          0      47.496  -3.751 -24.869  1.00  0.00     0.103 C 
HETATM    5  O13         0      48.526  -4.548 -24.648  1.00  0.00    -0.307 OA
HETATM    6  C14         0      48.809  -5.007 -23.449  1.00  0.00     0.107 C 
HETATM    7  C15         0      49.609  -6.126 -23.265  1.00  0.00     0.049 C 
HETATM    8  C16         0      49.697  -6.755 -22.029  1.00  0.00     0.093 C 
HETATM    9  C18         0      49.409  -5.946 -20.937  1.00  0.00     0.048 C 
HETATM   10  C19         0      48.651  -4.793 -21.093  1.00  0.00     0.096 C 
HETATM   11  C21         0      48.197  -4.442 -22.335  1.00  0.00     0.084 C 
ENDROOT
BRANCH  10  12
HETATM   12  O20         0      48.012  -4.244 -19.986  1.00  0.00    -0.359 OA
HETATM   13  H20         0      47.877  -4.800 -19.228  1.00  0.00     0.218 HD
ENDBRANCH  10  12
BRANCH   4  14
HETATM   14  C5          0      46.844  -3.789 -26.180  1.00  0.00     0.025 C 
HETATM   15  C6          0      47.533  -4.057 -27.354  1.00  0.00     0.004 C 
HETATM   16  C7          0      46.893  -4.835 -28.314  1.00  0.00     0.026 C 
HETATM   17  C8          0      45.565  -5.222 -28.171  1.00  0.00     0.112 C 
HETATM   18  C10         0      44.811  -4.410 -27.334  1.00  0.00     0.112 C 
HETATM   19  C12         0      45.466  -3.709 -26.329  1.00  0.00     0.028 C 
BRANCH  17  20
HETATM   20  O9          0      45.124  -6.437 -28.664  1.00  0.00    -0.357 OA
HETATM   21  H9          0      45.618  -6.969 -29.277  1.00  0.00     0.218 HD
ENDBRANCH  17  20
BRANCH  18  22
HETATM   22  O11         0      43.442  -4.637 -27.304  1.00  0.00    -0.357 OA
HETATM   23  H11         0      43.154  -5.539 -27.380  1.00  0.00     0.218 HD
ENDBRANCH  18  22
ENDBRANCH   4  14
BRANCH   8  24
HETATM   24  O17         0      49.734  -8.150 -21.921  1.00  0.00    -0.359 OA
HETATM   25  H17         0      50.363  -8.591 -21.362  1.00  0.00     0.218 HD
ENDBRANCH   8  24
TORSDOF 5
ENDMDL
MODEL 5
REMARK VINA RESULT:      -1.4      3.695      6.770
REMARK  5 active torsions:
REMARK  status: ('A' for Active; 'I' for Inactive)
REMARK    1  A    between atoms: C4_4  and  C5_5 
REMARK    2  A    between atoms: C8_8  and  O9_9 
REMARK    3  A    between atoms: C10_11  and  O11_12 
REMARK    4  A    between atoms: C16_18  and  O17_19 
REMARK    5  A    between atoms: C19_22  and  O20_23 
ROOT
HETATM    1  O1          0      48.760  -5.960 -20.901  1.00  0.00    -0.286 OA
HETATM    2  C2          0      48.951  -5.356 -21.993  1.00  0.00     0.201 C 
HETATM    3  C3          0      48.918  -3.976 -22.102  1.00  0.00     0.067 C 
HETATM    4  C4          0      49.029  -3.341 -23.334  1.00  0.00     0.103 C 
HETATM    5  O13         0      49.189  -4.080 -24.418  1.00  0.00    -0.307 OA
HETATM    6  C14         0      49.189  -5.394 -24.374  1.00  0.00     0.107 C 
HETATM    7  C15         0      48.954  -6.163 -25.504  1.00  0.00     0.049 C 
HETATM    8  C16         0      48.703  -7.527 -25.410  1.00  0.00     0.093 C 
HETATM    9  C18         0      49.211  -8.140 -24.271  1.00  0.00     0.048 C 
HETATM   10  C19         0      49.501  -7.393 -23.138  1.00  0.00     0.096 C 
HETATM   11  C21         0      49.301  -6.040 -23.147  1.00  0.00     0.084 C 
ENDROOT
BRANCH  10  12
HETATM   12  O20         0      49.583  -8.032 -21.904  1.00  0.00    -0.359 OA
HETATM   13  H20         0      48.941  -7.805 -21.242  1.00  0.00     0.218 HD
ENDBRANCH  10  12
BRANCH   4  14
HETATM   14  C5          0      48.406  -2.022 -23.466  1.00  0.00     0.025 C 
HETATM   15  C6          0      47.062  -1.852 -23.766  1.00  0.00     0.004 C 
HETATM   16  C7          0      46.386  -0.816 -23.131  1.00  0.00     0.026 C 
HETATM   17  C8          0      47.050   0.104 -22.327  1.00  0.00     0.112 C 
HETATM   18  C10         0      48.407   0.235 -22.594  1.00  0.00     0.112 C 
HETATM   19  C12         0      49.077  -0.847 -23.152  1.00  0.00     0.028 C 
BRANCH  17  20
HETATM   20  O9          0      46.427   0.662 -21.225  1.00  0.00    -0.357 OA
HETATM   21  H9          0      46.738   1.444 -20.782  1.00  0.00     0.218 HD
ENDBRANCH  17  20
BRANCH  18  22
HETATM   22  O11         0      49.076   1.268 -21.955  1.00  0.00    -0.357 OA
HETATM   23  H11         0      48.964   1.336 -21.014  1.00  0.00     0.218 HD
ENDBRANCH  18  22
ENDBRANCH   4  14
BRANCH   8  24
HETATM   24  O17         0      47.739  -8.148 -26.212  1.00  0.00    -0.359 OA
HETATM   25  H17         0      46.952  -8.528 -25.842  1.00  0.00     0.218 HD
ENDBRANCH   8  24
TORSDOF 5
ENDMDL
MODEL 6
REMARK VINA RESULT:      -1.4      2.773      4.491
REMARK  5 active torsions:
REMARK  status: ('A' for Active; 'I' for Inactive)
REMARK    1  A    between atoms: C4_4  and  C5_5 
REMARK    2  A    between atoms: C8_8  and  O9_9 
REMARK    3  A    between atoms: C10_11  and  O11_12 
REMARK    4  A    between atoms: C16_18  and  O17_19 
REMARK    5  A    between atoms: C19_22  and  O20_23 
ROOT
HETATM    1  O1          0      39.803  -4.608 -23.082  1.00  0.00    -0.286 OA
HETATM    2  C2          0      40.787  -5.072 -22.442  1.00  0.00     0.201 C 
HETATM    3  C3          0      41.815  -4.277 -21.965  1.00  0.00     0.067 C 
HETATM    4  C4          0      42.936  -4.825 -21.354  1.00  0.00     0.103 C 
HETATM    5  O13         0      43.004  -6.137 -21.211  1.00  0.00    -0.307 OA
HETATM    6  C14         0      42.074  -6.940 -21.679  1.00  0.00     0.107 C 
HETATM    7  C15         0      42.314  -8.289 -21.893  1.00  0.00     0.049 C 
HETATM    8  C16         0      41.425  -9.074 -22.619  1.00  0.00     0.093 C 
HETATM    9  C18         0      40.115  -8.610 -22.639  1.00  0.00     0.048 C 
HETATM   10  C19         0      39.835  -7.275 -22.382  1.00  0.00     0.096 C 
HETATM   11  C21         0      40.855  -6.411 -22.091  1.00  0.00     0.084 C 
ENDROOT
BRANCH  10  12
HETATM   12  O20         0      38.629  -6.736 -22.821  1.00  0.00    -0.359 OA
HETATM   13  H20         0      37.962  -7.335 -23.134  1.00  0.00     0.218 HD
ENDBRANCH  10  12
BRANCH   4  14
HETATM   14  C5          0      44.182  -4.059 -21.429  1.00  0.00     0.025 C 
HETATM   15  C6          0      44.904  -3.686 -20.305  1.00  0.00     0.004 C 
HETATM   16  C7          0      46.292  -3.727 -20.388  1.00  0.00     0.026 C 
HETATM   17  C8          0      46.944  -3.998 -21.586  1.00  0.00     0.112 C 
HETATM   18  C10         0      46.197  -3.728 -22.726  1.00  0.00     0.112 C 
HETATM   19  C12         0      44.811  -3.778 -22.634  1.00  0.00     0.028 C 
BRANCH  17  20
HETATM   20  O9          0      48.148  -4.679 -21.600  1.00  0.00    -0.357 OA
HETATM   21  H9          0      48.873  -4.482 -21.018  1.00  0.00     0.218 HD
ENDBRANCH  17  20
BRANCH  18  22
HETATM   22  O11         0      46.860  -3.801 -23.942  1.00  0.00    -0.357 OA
HETATM   23  H11         0      46.558  -4.459 -24.558  1.00  0.00     0.218 HD
ENDBRANCH  18  22
ENDBRANCH   4  14
BRANCH   8  24
HETATM   24  O17         0      41.876 -10.044 -23.521  1.00  0.00    -0.359 OA
HETATM   25  H17         0      42.755 -10.020 -23.880  1.00  0.00     0.218 HD
ENDBRANCH   8  24
TORSDOF 5
ENDMDL
MODEL 7
REMARK VINA RESULT:      -1.4      3.448      4.299
REMARK  5 active torsions:
REMARK  status: ('A' for Active; 'I' for Inactive)
REMARK    1  A    between atoms: C4_4  and  C5_5 
REMARK    2  A    between atoms: C8_8  and  O9_9 
REMARK    3  A    between atoms: C10_11  and  O11_12 
REMARK    4  A    between atoms: C16_18  and  O17_19 
REMARK    5  A    between atoms: C19_22  and  O20_23 
ROOT
HETATM    1  O1          0      46.353  -2.409 -25.476  1.00  0.00    -0.286 OA
HETATM    2  C2          0      47.214  -2.471 -24.556  1.00  0.00     0.201 C 
HETATM    3  C3          0      48.244  -3.395 -24.553  1.00  0.00     0.067 C 
HETATM    4  C4          0      49.118  -3.510 -23.478  1.00  0.00     0.103 C 
HETATM    5  O13         0      48.965  -2.698 -22.447  1.00  0.00    -0.307 OA
HETATM    6  C14         0      47.981  -1.828 -22.382  1.00  0.00     0.107 C 
HETATM    7  C15         0      47.575  -1.272 -21.177  1.00  0.00     0.049 C 
HETATM    8  C16         0      46.386  -0.560 -21.075  1.00  0.00     0.093 C 
HETATM    9  C18         0      45.935   0.003 -22.263  1.00  0.00     0.048 C 
HETATM   10  C19         0      46.358  -0.499 -23.486  1.00  0.00     0.096 C 
HETATM   11  C21         0      47.238  -1.546 -23.523  1.00  0.00     0.084 C 
ENDROOT
BRANCH  10  12
HETATM   12  O20         0      45.599  -0.245 -24.625  1.00  0.00    -0.359 OA
HETATM   13  H20         0      45.765  -0.771 -25.397  1.00  0.00     0.218 HD
ENDBRANCH  10  12
BRANCH   4  14
HETATM   14  C5          0      49.746  -4.814 -23.261  1.00  0.00     0.025 C 
HETATM   15  C6          0      49.910  -5.369 -22.000  1.00  0.00     0.004 C 
HETATM   16  C7          0      49.727  -6.742 -21.872  1.00  0.00     0.026 C 
HETATM   17  C8          0      49.519  -7.557 -22.979  1.00  0.00     0.112 C 
HETATM   18  C10         0      49.994  -7.040 -24.177  1.00  0.00     0.112 C 
HETATM   19  C12         0      50.088  -5.660 -24.309  1.00  0.00     0.028 C 
BRANCH  17  20
HETATM   20  O9          0      48.716  -8.681 -22.892  1.00  0.00    -0.357 OA
HETATM   21  H9          0      48.078  -8.926 -23.552  1.00  0.00     0.218 HD
ENDBRANCH  17  20
BRANCH  18  22
HETATM   22  O11         0      49.984  -7.887 -25.275  1.00  0.00    -0.357 OA
HETATM   23  H11         0      49.388  -7.668 -25.982  1.00  0.00     0.218 HD
ENDBRANCH  18  22
ENDBRANCH   4  14
BRANCH   8  24
HETATM   24  O17         0      45.552  -0.689 -19.959  1.00  0.00    -0.359 OA
HETATM   25  H17         0      45.553  -0.047 -19.258  1.00  0.00     0.218 HD
ENDBRANCH   8  24
TORSDOF 5
ENDMDL
MODEL 8
REMARK VINA RESULT:      -1.3      4.508      5.560
REMARK  5 active torsions:
REMARK  status: ('A' for Active; 'I' for Inactive)
REMARK    1  A    between atoms: C4_4  and  C5_5 
REMARK    2  A    between atoms: C8_8  and  O9_9 
REMARK    3  A    between atoms: C10_11  and  O11_12 
REMARK    4  A    between atoms: C16_18  and  O17_19 
REMARK    5  A    between atoms: C19_22  and  O20_23 
ROOT
HETATM    1  O1          0      43.255  -6.521 -26.160  1.00  0.00    -0.286 OA
HETATM    2  C2          0      44.377  -5.988 -26.377  1.00  0.00     0.201 C 
HETATM    3  C3          0      45.573  -6.669 -26.228  1.00  0.00     0.067 C 
HETATM    4  C4          0      46.799  -6.029 -26.373  1.00  0.00     0.103 C 
HETATM    5  O13         0      46.812  -4.744 -26.680  1.00  0.00    -0.307 OA
HETATM    6  C14         0      45.706  -4.042 -26.796  1.00  0.00     0.107 C 
HETATM    7  C15         0      45.709  -2.657 -26.718  1.00  0.00     0.049 C 
HETATM    8  C16         0      44.526  -1.940 -26.585  1.00  0.00     0.093 C 
HETATM    9  C18         0      43.391  -2.586 -27.059  1.00  0.00     0.048 C 
HETATM   10  C19         0      43.370  -3.968 -27.194  1.00  0.00     0.096 C 
HETATM   11  C21         0      44.482  -4.698 -26.874  1.00  0.00     0.084 C 
ENDROOT
BRANCH  10  12
HETATM   12  O20         0      42.147  -4.629 -27.240  1.00  0.00    -0.359 OA
HETATM   13  H20         0      41.391  -4.146 -27.553  1.00  0.00     0.218 HD
ENDBRANCH  10  12
BRANCH   4  14
HETATM   14  C5          0      47.938  -6.591 -25.645  1.00  0.00     0.025 C 
HETATM   15  C6          0      49.062  -5.847 -25.317  1.00  0.00     0.004 C 
HETATM   16  C7          0      49.651  -6.081 -24.078  1.00  0.00     0.026 C 
HETATM   17  C8          0      49.221  -7.112 -23.249  1.00  0.00     0.112 C 
HETATM   18  C10         0      48.568  -8.148 -23.903  1.00  0.00     0.112 C 
HETATM   19  C12         0      47.915  -7.868 -25.098  1.00  0.00     0.028 C 
BRANCH  17  20
HETATM   20  O9          0      49.266  -6.980 -21.873  1.00  0.00    -0.357 OA
HETATM   21  H9          0      49.898  -6.438 -21.415  1.00  0.00     0.218 HD
ENDBRANCH  17  20
BRANCH  18  22
HETATM   22  O11         0      48.287  -9.284 -23.157  1.00  0.00    -0.357 OA
HETATM   23  H11         0      47.975  -9.149 -22.270  1.00  0.00     0.218 HD
ENDBRANCH  18  22
ENDBRANCH   4  14
BRANCH   8  24
HETATM   24  O17         0      44.440  -0.824 -25.744  1.00  0.00    -0.359 OA
HETATM   25  H17         0      44.490   0.062 -26.084  1.00  0.00     0.218 HD
ENDBRANCH   8  24
TORSDOF 5
ENDMDL
MODEL 9
REMARK VINA RESULT:      -1.3      4.122      6.274
REMARK  5 active torsions:
REMARK  status: ('A' for Active; 'I' for Inactive)
REMARK    1  A    between atoms: C4_4  and  C5_5 
REMARK    2  A    between atoms: C8_8  and  O9_9 
REMARK    3  A    between atoms: C10_11  and  O11_12 
REMARK    4  A    between atoms: C16_18  and  O17_19 
REMARK    5  A    between atoms: C19_22  and  O20_23 
ROOT
HETATM    1  O1          0      45.014  -4.507 -22.999  1.00  0.00    -0.286 OA
HETATM    2  C2          0      46.024  -3.769 -23.162  1.00  0.00     0.201 C 
HETATM    3  C3          0      46.336  -3.182 -24.377  1.00  0.00     0.067 C 
HETATM    4  C4          0      47.509  -2.458 -24.557  1.00  0.00     0.103 C 
HETATM    5  O13         0      48.330  -2.315 -23.531  1.00  0.00    -0.307 OA
HETATM    6  C14         0      48.101  -2.883 -22.368  1.00  0.00     0.107 C 
HETATM    7  C15         0      49.111  -3.077 -21.437  1.00  0.00     0.049 C 
HETATM    8  C16         0      48.925  -3.896 -20.330  1.00  0.00     0.093 C 
HETATM    9  C18         0      47.603  -4.053 -19.932  1.00  0.00     0.048 C 
HETATM   10  C19         0      46.565  -3.821 -20.824  1.00  0.00     0.096 C 
HETATM   11  C21         0      46.845  -3.419 -22.101  1.00  0.00     0.084 C 
ENDROOT
BRANCH  10  12
HETATM   12  O20         0      45.317  -4.383 -20.576  1.00  0.00    -0.359 OA
HETATM   13  H20         0      44.646  -4.289 -21.242  1.00  0.00     0.218 HD
ENDBRANCH  10  12
BRANCH   4  14
HETATM   14  C5          0      48.057  -2.397 -25.913  1.00  0.00     0.025 C 
HETATM   15  C6          0      47.662  -3.261 -26.923  1.00  0.00     0.004 C 
HETATM   16  C7          0      47.537  -2.738 -28.207  1.00  0.00     0.026 C 
HETATM   17  C8          0      47.922  -1.435 -28.504  1.00  0.00     0.112 C 
HETATM   18  C10         0      48.856  -0.893 -27.632  1.00  0.00     0.112 C 
HETATM   19  C12         0      48.902  -1.376 -26.329  1.00  0.00     0.028 C 
BRANCH  17  20
HETATM   20  O9          0      47.250  -0.699 -29.464  1.00  0.00    -0.357 OA
HETATM   21  H9          0      46.306  -0.709 -29.572  1.00  0.00     0.218 HD
ENDBRANCH  17  20
BRANCH  18  22
HETATM   22  O11         0      49.414   0.327 -27.986  1.00  0.00    -0.357 OA
HETATM   23  H11         0      50.068   0.688 -27.399  1.00  0.00     0.218 HD
ENDBRANCH  18  22
ENDBRANCH   4  14
BRANCH   8  24
HETATM   24  O17         0      49.937  -4.750 -19.876  1.00  0.00    -0.359 OA
HETATM   25  H17         0      49.745  -5.508 -19.336  1.00  0.00     0.218 HD
ENDBRANCH   8  24
TORSDOF 5
ENDMDL
