MODEL 1
REMARK VINA RESULT:      -0.0      0.000      0.000
REMARK  5 active torsions:
REMARK  status: ('A' for Active; 'I' for Inactive)
REMARK    1  A    between atoms: C4_4  and  C5_5 
REMARK    2  A    between atoms: C8_8  and  O9_9 
REMARK    3  A    between atoms: C10_11  and  O11_12 
REMARK    4  A    between atoms: C16_18  and  O17_19 
REMARK    5  A    between atoms: C19_22  and  O20_23 
ROOT
HETATM    1  O1          0       8.867   0.009   2.400  1.00  0.00    -0.286 OA
HETATM    2  C2          0       8.083   0.320   1.462  1.00  0.00     0.201 C 
HETATM    3  C3          0       8.476   1.084   0.376  1.00  0.00     0.067 C 
HETATM    4  C4          0       7.567   1.499  -0.590  1.00  0.00     0.103 C 
HETATM    5  O13         0       6.303   1.133  -0.472  1.00  0.00    -0.307 OA
HETATM    6  C14         0       5.870   0.440   0.559  1.00  0.00     0.107 C 
HETATM    7  C15         0       4.525   0.397   0.897  1.00  0.00     0.049 C 
HETATM    8  C16         0       4.104  -0.118   2.117  1.00  0.00     0.093 C 
HETATM    9  C18         0       4.975  -1.028   2.702  1.00  0.00     0.048 C 
HETATM   10  C19         0       6.319  -1.043   2.353  1.00  0.00     0.096 C 
HETATM   11  C21         0       6.785  -0.167   1.412  1.00  0.00     0.084 C 
ENDROOT
BRANCH  10  12
HETATM   12  O20         0       7.241  -1.621   3.220  1.00  0.00    -0.359 OA
HETATM   13  H20         0       7.730  -1.047   3.797  1.00  0.00     0.218 HD
ENDBRANCH  10  12
BRANCH   4  14
HETATM   14  C5          0       7.879   2.730  -1.319  1.00  0.00     0.025 C 
HETATM   15  C6          0       6.902   3.541  -1.878  1.00  0.00     0.004 C 
HETATM   16  C7          0       7.091   4.917  -1.809  1.00  0.00     0.026 C 
HETATM   17  C8          0       8.271   5.469  -1.323  1.00  0.00     0.112 C 
HETATM   18  C10         0       9.375   4.630  -1.394  1.00  0.00     0.112 C 
HETATM   19  C12         0       9.163   3.256  -1.375  1.00  0.00     0.028 C 
BRANCH  17  20
HETATM   20  O9          0       8.263   6.671  -0.639  1.00  0.00    -0.357 OA
HETATM   21  H9          0       7.605   6.908   0.005  1.00  0.00     0.218 HD
ENDBRANCH  17  20
BRANCH  18  22
HETATM   22  O11         0      10.610   5.190  -1.100  1.00  0.00    -0.357 OA
HETATM   23  H11         0      10.618   5.917  -0.488  1.00  0.00     0.218 HD
ENDBRANCH  18  22
ENDBRANCH   4  14
BRANCH   8  24
HETATM   24  O17         0       3.069   0.482   2.843  1.00  0.00    -0.359 OA
HETATM   25  H17         0       3.200   1.294   3.320  1.00  0.00     0.218 HD
ENDBRANCH   8  24
TORSDOF 5
ENDMDL
MODEL 2
REMARK VINA RESULT:      -0.0      1.572      2.029
REMARK  5 active torsions:
REMARK  status: ('A' for Active; 'I' for Inactive)
REMARK    1  A    between atoms: C4_4  and  C5_5 
REMARK    2  A    between atoms: C8_8  and  O9_9 
REMARK    3  A    between atoms: C10_11  and  O11_12 
REMARK    4  A    between atoms: C16_18  and  O17_19 
REMARK    5  A    between atoms: C19_22  and  O20_23 
ROOT
HETATM    1  O1          0       8.320   1.182   1.517  1.00  0.00    -0.286 OA
HETATM    2  C2          0       7.839   1.609   0.431  1.00  0.00     0.201 C 
HETATM    3  C3          0       8.472   2.564  -0.346  1.00  0.00     0.067 C 
HETATM    4  C4          0       7.873   3.092  -1.484  1.00  0.00     0.103 C 
HETATM    5  O13         0       6.679   2.649  -1.836  1.00  0.00    -0.307 OA
HETATM    6  C14         0       6.019   1.770  -1.114  1.00  0.00     0.107 C 
HETATM    7  C15         0       4.647   1.603  -1.241  1.00  0.00     0.049 C 
HETATM    8  C16         0       3.921   0.869  -0.311  1.00  0.00     0.093 C 
HETATM    9  C18         0       4.654  -0.083   0.387  1.00  0.00     0.048 C 
HETATM   10  C19         0       6.034   0.028   0.493  1.00  0.00     0.096 C 
HETATM   11  C21         0       6.679   1.074  -0.108  1.00  0.00     0.084 C 
ENDROOT
BRANCH  10  12
HETATM   12  O20         0       6.693  -0.643   1.519  1.00  0.00    -0.359 OA
HETATM   13  H20         0       6.917  -0.152   2.300  1.00  0.00     0.218 HD
ENDBRANCH  10  12
BRANCH   4  14
HETATM   14  C5          0       8.270   4.443  -1.885  1.00  0.00     0.025 C 
HETATM   15  C6          0       7.439   5.288  -2.606  1.00  0.00     0.004 C 
HETATM   16  C7          0       7.456   6.640  -2.281  1.00  0.00     0.026 C 
HETATM   17  C8          0       8.364   7.159  -1.364  1.00  0.00     0.112 C 
HETATM   18  C10         0       9.514   6.400  -1.194  1.00  0.00     0.112 C 
HETATM   19  C12         0       9.447   5.034  -1.444  1.00  0.00     0.028 C 
BRANCH  17  20
HETATM   20  O9          0       8.020   8.225  -0.552  1.00  0.00    -0.357 OA
HETATM   21  H9          0       8.497   8.465   0.234  1.00  0.00     0.218 HD
ENDBRANCH  17  20
BRANCH  18  22
HETATM   22  O11         0      10.532   6.963  -0.437  1.00  0.00    -0.357 OA
HETATM   23  H11         0      10.966   7.726  -0.801  1.00  0.00     0.218 HD
ENDBRANCH  18  22
ENDBRANCH   4  14
BRANCH   8  24
HETATM   24  O17         0       2.656   1.285   0.120  1.00  0.00    -0.359 OA
HETATM   25  H17         0       2.548   2.009   0.725  1.00  0.00     0.218 HD
ENDBRANCH   8  24
TORSDOF 5
ENDMDL
MODEL 3
REMARK VINA RESULT:      -0.0      5.272      6.160
REMARK  5 active torsions:
REMARK  status: ('A' for Active; 'I' for Inactive)
REMARK    1  A    between atoms: C4_4  and  C5_5 
REMARK    2  A    between atoms: C8_8  and  O9_9 
REMARK    3  A    between atoms: C10_11  and  O11_12 
REMARK    4  A    between atoms: C16_18  and  O17_19 
REMARK    5  A    between atoms: C19_22  and  O20_23 
ROOT
HETATM    1  O1          0       7.079   5.483   6.903  1.00  0.00    -0.286 OA
HETATM    2  C2          0       7.626   4.405   6.542  1.00  0.00     0.201 C 
HETATM    3  C3          0       8.990   4.289   6.335  1.00  0.00     0.067 C 
HETATM    4  C4          0       9.555   3.119   5.839  1.00  0.00     0.103 C 
HETATM    5  O13         0       8.764   2.093   5.581  1.00  0.00    -0.307 OA
HETATM    6  C14         0       7.459   2.162   5.725  1.00  0.00     0.107 C 
HETATM    7  C15         0       6.606   1.267   5.096  1.00  0.00     0.049 C 
HETATM    8  C16         0       5.236   1.492   5.041  1.00  0.00     0.093 C 
HETATM    9  C18         0       4.734   2.307   6.049  1.00  0.00     0.048 C 
HETATM   10  C19         0       5.569   3.181   6.731  1.00  0.00     0.096 C 
HETATM   11  C21         0       6.901   3.230   6.419  1.00  0.00     0.084 C 
ENDROOT
BRANCH  10  12
HETATM   12  O20         0       5.016   4.268   7.400  1.00  0.00    -0.359 OA
HETATM   13  H20         0       5.456   4.582   8.181  1.00  0.00     0.218 HD
ENDBRANCH  10  12
BRANCH   4  14
HETATM   14  C5          0      10.812   3.244   5.099  1.00  0.00     0.025 C 
HETATM   15  C6          0      11.204   2.338   4.125  1.00  0.00     0.004 C 
HETATM   16  C7          0      11.846   2.841   2.998  1.00  0.00     0.026 C 
HETATM   17  C8          0      12.208   4.180   2.901  1.00  0.00     0.112 C 
HETATM   18  C10         0      12.354   4.831   4.119  1.00  0.00     0.112 C 
HETATM   19  C12         0      11.634   4.358   5.210  1.00  0.00     0.028 C 
BRANCH  17  20
HETATM   20  O9          0      12.204   4.829   1.679  1.00  0.00    -0.357 OA
HETATM   21  H9          0      11.679   5.599   1.492  1.00  0.00     0.218 HD
ENDBRANCH  17  20
BRANCH  18  22
HETATM   22  O11         0      12.894   6.109   4.089  1.00  0.00    -0.357 OA
HETATM   23  H11         0      12.505   6.725   3.479  1.00  0.00     0.218 HD
ENDBRANCH  18  22
ENDBRANCH   4  14
BRANCH   8  24
HETATM   24  O17         0       4.496   1.208   3.888  1.00  0.00    -0.359 OA
HETATM   25  H17         0       4.478   1.803   3.147  1.00  0.00     0.218 HD
ENDBRANCH   8  24
TORSDOF 5
ENDMDL
MODEL 4
REMARK VINA RESULT:       0.0      2.585      6.691
REMARK  5 active torsions:
REMARK  status: ('A' for Active; 'I' for Inactive)
REMARK    1  A    between atoms: C4_4  and  C5_5 
REMARK    2  A    between atoms: C8_8  and  O9_9 
REMARK    3  A    between atoms: C10_11  and  O11_12 
REMARK    4  A    between atoms: C16_18  and  O17_19 
REMARK    5  A    between atoms: C19_22  and  O20_23 
ROOT
HETATM    1  O1          0       6.646  -2.019   0.384  1.00  0.00    -0.286 OA
HETATM    2  C2          0       6.437  -0.917   0.962  1.00  0.00     0.201 C 
HETATM    3  C3          0       5.841  -0.824   2.208  1.00  0.00     0.067 C 
HETATM    4  C4          0       5.529   0.406   2.776  1.00  0.00     0.103 C 
HETATM    5  O13         0       5.832   1.508   2.112  1.00  0.00    -0.307 OA
HETATM    6  C14         0       6.365   1.475   0.910  1.00  0.00     0.107 C 
HETATM    7  C15         0       6.316   2.570   0.059  1.00  0.00     0.049 C 
HETATM    8  C16         0       6.648   2.454  -1.285  1.00  0.00     0.093 C 
HETATM    9  C18         0       7.500   1.400  -1.591  1.00  0.00     0.048 C 
HETATM   10  C19         0       7.608   0.310  -0.738  1.00  0.00     0.096 C 
HETATM   11  C21         0       6.882   0.280   0.422  1.00  0.00     0.084 C 
ENDROOT
BRANCH  10  12
HETATM   12  O20         0       8.096  -0.896  -1.233  1.00  0.00    -0.359 OA
HETATM   13  H20         0       8.550  -0.884  -2.067  1.00  0.00     0.218 HD
ENDBRANCH  10  12
BRANCH   4  14
HETATM   14  C5          0       4.418   0.441   3.729  1.00  0.00     0.025 C 
HETATM   15  C6          0       3.656   1.578   3.955  1.00  0.00     0.004 C 
HETATM   16  C7          0       2.290   1.410   4.157  1.00  0.00     0.026 C 
HETATM   17  C8          0       1.719   0.146   4.265  1.00  0.00     0.112 C 
HETATM   18  C10         0       2.598  -0.855   4.657  1.00  0.00     0.112 C 
HETATM   19  C12         0       3.948  -0.700   4.367  1.00  0.00     0.028 C 
BRANCH  17  20
HETATM   20  O9          0       0.436  -0.093   3.806  1.00  0.00    -0.357 OA
HETATM   21  H9          0       0.221  -0.762   3.166  1.00  0.00     0.218 HD
ENDBRANCH  17  20
BRANCH  18  22
HETATM   22  O11         0       2.046  -2.091   4.962  1.00  0.00    -0.357 OA
HETATM   23  H11         0       2.637  -2.835   4.975  1.00  0.00     0.218 HD
ENDBRANCH  18  22
ENDBRANCH   4  14
BRANCH   8  24
HETATM   24  O17         0       5.920   3.123  -2.276  1.00  0.00    -0.359 OA
HETATM   25  H17         0       5.214   2.698  -2.749  1.00  0.00     0.218 HD
ENDBRANCH   8  24
TORSDOF 5
ENDMDL
MODEL 5
REMARK VINA RESULT:       0.0      2.600      6.798
REMARK  5 active torsions:
REMARK  status: ('A' for Active; 'I' for Inactive)
REMARK    1  A    between atoms: C4_4  and  C5_5 
REMARK    2  A    between atoms: C8_8  and  O9_9 
REMARK    3  A    between atoms: C10_11  and  O11_12 
REMARK    4  A    between atoms: C16_18  and  O17_19 
REMARK    5  A    between atoms: C19_22  and  O20_23 
ROOT
HETATM    1  O1          0       6.646  -2.019   0.384  1.00  0.00    -0.286 OA
HETATM    2  C2          0       6.978  -1.100   1.183  1.00  0.00     0.201 C 
HETATM    3  C3          0       6.973  -1.264   2.558  1.00  0.00     0.067 C 
HETATM    4  C4          0       7.244  -0.206   3.419  1.00  0.00     0.103 C 
HETATM    5  O13         0       7.533   0.975   2.901  1.00  0.00    -0.307 OA
HETATM    6  C14         0       7.515   1.194   1.605  1.00  0.00     0.107 C 
HETATM    7  C15         0       7.418   2.474   1.080  1.00  0.00     0.049 C 
HETATM    8  C16         0       7.145   2.684  -0.266  1.00  0.00     0.093 C 
HETATM    9  C18         0       7.499   1.637  -1.107  1.00  0.00     0.048 C 
HETATM   10  C19         0       7.651   0.351  -0.607  1.00  0.00     0.096 C 
HETATM   11  C21         0       7.466   0.115   0.728  1.00  0.00     0.084 C 
ENDROOT
BRANCH  10  12
HETATM   12  O20         0       7.570  -0.732  -1.478  1.00  0.00    -0.359 OA
HETATM   13  H20         0       7.642  -0.560  -2.409  1.00  0.00     0.218 HD
ENDBRANCH  10  12
BRANCH   4  14
HETATM   14  C5          0       6.655  -0.264   4.758  1.00  0.00     0.025 C 
HETATM   15  C6          0       6.370   0.871   5.503  1.00  0.00     0.004 C 
HETATM   16  C7          0       5.204   0.867   6.263  1.00  0.00     0.026 C 
HETATM   17  C8          0       4.416  -0.273   6.384  1.00  0.00     0.112 C 
HETATM   18  C10         0       5.085  -1.467   6.151  1.00  0.00     0.112 C 
HETATM   19  C12         0       6.198  -1.449   5.319  1.00  0.00     0.028 C 
BRANCH  17  20
HETATM   20  O9          0       3.042  -0.175   6.515  1.00  0.00    -0.357 OA
HETATM   21  H9          0       2.425  -0.598   5.931  1.00  0.00     0.218 HD
ENDBRANCH  17  20
BRANCH  18  22
HETATM   22  O11         0       4.400  -2.638   6.442  1.00  0.00    -0.357 OA
HETATM   23  H11         0       4.732  -3.439   6.053  1.00  0.00     0.218 HD
ENDBRANCH  18  22
ENDBRANCH   4  14
BRANCH   8  24
HETATM   24  O17         0       6.284   3.705  -0.685  1.00  0.00    -0.359 OA
HETATM   25  H17         0       5.365   3.543  -0.859  1.00  0.00     0.218 HD
ENDBRANCH   8  24
TORSDOF 5
ENDMDL
MODEL 6
REMARK VINA RESULT:       0.0      7.216      8.384
REMARK  5 active torsions:
REMARK  status: ('A' for Active; 'I' for Inactive)
REMARK    1  A    between atoms: C4_4  and  C5_5 
REMARK    2  A    between atoms: C8_8  and  O9_9 
REMARK    3  A    between atoms: C10_11  and  O11_12 
REMARK    4  A    between atoms: C16_18  and  O17_19 
REMARK    5  A    between atoms: C19_22  and  O20_23 
ROOT
HETATM    1  O1          0       4.966  -2.331   9.691  1.00  0.00    -0.286 OA
HETATM    2  C2          0       4.798  -2.023   8.479  1.00  0.00     0.201 C 
HETATM    3  C3          0       4.968  -0.735   8.001  1.00  0.00     0.067 C 
HETATM    4  C4          0       4.677  -0.402   6.683  1.00  0.00     0.103 C 
HETATM    5  O13         0       4.248  -1.350   5.869  1.00  0.00    -0.307 OA
HETATM    6  C14         0       4.033  -2.581   6.280  1.00  0.00     0.107 C 
HETATM    7  C15         0       3.226  -3.458   5.571  1.00  0.00     0.049 C 
HETATM    8  C16         0       2.798  -4.657   6.129  1.00  0.00     0.093 C 
HETATM    9  C18         0       3.609  -5.156   7.141  1.00  0.00     0.048 C 
HETATM   10  C19         0       4.464  -4.314   7.840  1.00  0.00     0.096 C 
HETATM   11  C21         0       4.520  -2.985   7.519  1.00  0.00     0.084 C 
ENDROOT
BRANCH  10  12
HETATM   12  O20         0       4.927  -4.702   9.094  1.00  0.00    -0.359 OA
HETATM   13  H20         0       4.320  -4.664   9.824  1.00  0.00     0.218 HD
ENDBRANCH  10  12
BRANCH   4  14
HETATM   14  C5          0       4.299   0.986   6.410  1.00  0.00     0.025 C 
HETATM   15  C6          0       3.493   1.349   5.341  1.00  0.00     0.004 C 
HETATM   16  C7          0       2.566   2.365   5.550  1.00  0.00     0.026 C 
HETATM   17  C8          0       2.530   3.087   6.737  1.00  0.00     0.112 C 
HETATM   18  C10         0       3.722   3.093   7.449  1.00  0.00     0.112 C 
HETATM   19  C12         0       4.593   2.023   7.286  1.00  0.00     0.028 C 
BRANCH  17  20
HETATM   20  O9          0       1.333   3.566   7.240  1.00  0.00    -0.357 OA
HETATM   21  H9          0       1.260   4.066   8.045  1.00  0.00     0.218 HD
ENDBRANCH  17  20
BRANCH  18  22
HETATM   22  O11         0       3.799   3.949   8.539  1.00  0.00    -0.357 OA
HETATM   23  H11         0       3.915   4.873   8.352  1.00  0.00     0.218 HD
ENDBRANCH  18  22
ENDBRANCH   4  14
BRANCH   8  24
HETATM   24  O17         0       1.498  -5.132   5.927  1.00  0.00    -0.359 OA
HETATM   25  H17         0       1.157  -5.875   6.412  1.00  0.00     0.218 HD
ENDBRANCH   8  24
TORSDOF 5
ENDMDL
MODEL 7
REMARK VINA RESULT:       0.0      7.524      9.690
REMARK  5 active torsions:
REMARK  status: ('A' for Active; 'I' for Inactive)
REMARK    1  A    between atoms: C4_4  and  C5_5 
REMARK    2  A    between atoms: C8_8  and  O9_9 
REMARK    3  A    between atoms: C10_11  and  O11_12 
REMARK    4  A    between atoms: C16_18  and  O17_19 
REMARK    5  A    between atoms: C19_22  and  O20_23 
ROOT
HETATM    1  O1          0       3.025  -8.093   0.991  1.00  0.00    -0.286 OA
HETATM    2  C2          0       3.749  -7.449   1.798  1.00  0.00     0.201 C 
HETATM    3  C3          0       3.228  -6.673   2.819  1.00  0.00     0.067 C 
HETATM    4  C4          0       4.043  -5.891   3.630  1.00  0.00     0.103 C 
HETATM    5  O13         0       5.348  -5.912   3.426  1.00  0.00    -0.307 OA
HETATM    6  C14         0       5.892  -6.602   2.447  1.00  0.00     0.107 C 
HETATM    7  C15         0       7.168  -6.326   1.979  1.00  0.00     0.049 C 
HETATM    8  C16         0       7.637  -6.876   0.792  1.00  0.00     0.093 C 
HETATM    9  C18         0       7.023  -8.064   0.413  1.00  0.00     0.048 C 
HETATM   10  C19         0       5.765  -8.394   0.900  1.00  0.00     0.096 C 
HETATM   11  C21         0       5.132  -7.551   1.772  1.00  0.00     0.084 C 
ENDROOT
BRANCH  10  12
HETATM   12  O20         0       4.990  -9.320   0.209  1.00  0.00    -0.359 OA
HETATM   13  H20         0       5.431  -9.912  -0.389  1.00  0.00     0.218 HD
ENDBRANCH  10  12
BRANCH   4  14
HETATM   14  C5          0       3.443  -4.700   4.234  1.00  0.00     0.025 C 
HETATM   15  C6          0       4.184  -3.582   4.587  1.00  0.00     0.004 C 
HETATM   16  C7          0       3.609  -2.333   4.373  1.00  0.00     0.026 C 
HETATM   17  C8          0       2.291  -2.200   3.949  1.00  0.00     0.112 C 
HETATM   18  C10         0       1.478  -3.289   4.235  1.00  0.00     0.112 C 
HETATM   19  C12         0       2.069  -4.540   4.359  1.00  0.00     0.028 C 
BRANCH  17  20
HETATM   20  O9          0       1.912  -1.153   3.129  1.00  0.00    -0.357 OA
HETATM   21  H9          0       1.829  -1.225   2.185  1.00  0.00     0.218 HD
ENDBRANCH  17  20
BRANCH  18  22
HETATM   22  O11         0       0.118  -3.135   4.006  1.00  0.00    -0.357 OA
HETATM   23  H11         0      -0.413  -3.923   4.023  1.00  0.00     0.218 HD
ENDBRANCH  18  22
ENDBRANCH   4  14
BRANCH   8  24
HETATM   24  O17         0       8.408  -6.128  -0.105  1.00  0.00    -0.359 OA
HETATM   25  H17         0       8.056  -5.826  -0.934  1.00  0.00     0.218 HD
ENDBRANCH   8  24
TORSDOF 5
ENDMDL
MODEL 8
REMARK VINA RESULT:       0.0      5.845      6.939
REMARK  5 active torsions:
REMARK  status: ('A' for Active; 'I' for Inactive)
REMARK    1  A    between atoms: C4_4  and  C5_5 
REMARK    2  A    between atoms: C8_8  and  O9_9 
REMARK    3  A    between atoms: C10_11  and  O11_12 
REMARK    4  A    between atoms: C16_18  and  O17_19 
REMARK    5  A    between atoms: C19_22  and  O20_23 
ROOT
HETATM    1  O1          0       6.541  -0.881  -3.568  1.00  0.00    -0.286 OA
HETATM    2  C2          0       7.658  -1.317  -3.176  1.00  0.00     0.201 C 
HETATM    3  C3          0       8.859  -0.720  -3.520  1.00  0.00     0.067 C 
HETATM    4  C4          0      10.080  -1.279  -3.159  1.00  0.00     0.103 C 
HETATM    5  O13         0      10.083  -2.396  -2.454  1.00  0.00    -0.307 OA
HETATM    6  C14         0       8.973  -3.023  -2.133  1.00  0.00     0.107 C 
HETATM    7  C15         0       8.970  -4.359  -1.760  1.00  0.00     0.049 C 
HETATM    8  C16         0       7.785  -5.081  -1.670  1.00  0.00     0.093 C 
HETATM    9  C18         0       6.647  -4.316  -1.445  1.00  0.00     0.048 C 
HETATM   10  C19         0       6.631  -2.965  -1.764  1.00  0.00     0.096 C 
HETATM   11  C21         0       7.751  -2.377  -2.288  1.00  0.00     0.084 C 
ENDROOT
BRANCH  10  12
HETATM   12  O20         0       5.410  -2.324  -1.951  1.00  0.00    -0.359 OA
HETATM   13  H20         0       4.775  -2.363  -1.246  1.00  0.00     0.218 HD
ENDBRANCH  10  12
BRANCH   4  14
HETATM   14  C5          0      11.231  -0.982  -4.014  1.00  0.00     0.025 C 
HETATM   15  C6          0      12.321  -1.832  -4.129  1.00  0.00     0.004 C 
HETATM   16  C7          0      12.903  -1.967  -5.385  1.00  0.00     0.026 C 
HETATM   17  C8          0      12.503  -1.184  -6.463  1.00  0.00     0.112 C 
HETATM   18  C10         0      11.899   0.017  -6.114  1.00  0.00     0.112 C 
HETATM   19  C12         0      11.251   0.098  -4.888  1.00  0.00     0.028 C 
BRANCH  17  20
HETATM   20  O9          0      12.527  -1.686  -7.752  1.00  0.00    -0.357 OA
HETATM   21  H9          0      11.752  -1.793  -8.291  1.00  0.00     0.218 HD
ENDBRANCH  17  20
BRANCH  18  22
HETATM   22  O11         0      11.653   0.918  -7.140  1.00  0.00    -0.357 OA
HETATM   23  H11         0      11.429   0.552  -7.989  1.00  0.00     0.218 HD
ENDBRANCH  18  22
ENDBRANCH   4  14
BRANCH   8  24
HETATM   24  O17         0       7.705  -6.408  -2.107  1.00  0.00    -0.359 OA
HETATM   25  H17         0       7.738  -7.136  -1.498  1.00  0.00     0.218 HD
ENDBRANCH   8  24
TORSDOF 5
ENDMDL
MODEL 9
REMARK VINA RESULT:       0.0      5.205      6.512
REMARK  5 active torsions:
REMARK  status: ('A' for Active; 'I' for Inactive)
REMARK    1  A    between atoms: C4_4  and  C5_5 
REMARK    2  A    between atoms: C8_8  and  O9_9 
REMARK    3  A    between atoms: C10_11  and  O11_12 
REMARK    4  A    between atoms: C16_18  and  O17_19 
REMARK    5  A    between atoms: C19_22  and  O20_23 
ROOT
HETATM    1  O1          0       8.778  -3.290   1.180  1.00  0.00    -0.286 OA
HETATM    2  C2          0       7.839  -3.550   0.380  1.00  0.00     0.201 C 
HETATM    3  C3          0       8.024  -4.278  -0.783  1.00  0.00     0.067 C 
HETATM    4  C4          0       6.994  -4.463  -1.699  1.00  0.00     0.103 C 
HETATM    5  O13         0       5.808  -3.945  -1.434  1.00  0.00    -0.307 OA
HETATM    6  C14         0       5.589  -3.213  -0.363  1.00  0.00     0.107 C 
HETATM    7  C15         0       4.504  -2.353  -0.276  1.00  0.00     0.049 C 
HETATM    8  C16         0       4.415  -1.404   0.736  1.00  0.00     0.093 C 
HETATM    9  C18         0       5.130  -1.706   1.888  1.00  0.00     0.048 C 
HETATM   10  C19         0       6.192  -2.599   1.846  1.00  0.00     0.096 C 
HETATM   11  C21         0       6.527  -3.200   0.663  1.00  0.00     0.084 C 
ENDROOT
BRANCH  10  12
HETATM   12  O20         0       7.150  -2.566   2.854  1.00  0.00    -0.359 OA
HETATM   13  H20         0       7.849  -3.207   2.826  1.00  0.00     0.218 HD
ENDBRANCH  10  12
BRANCH   4  14
HETATM   14  C5          0       7.372  -4.681  -3.096  1.00  0.00     0.025 C 
HETATM   15  C6          0       6.544  -4.351  -4.159  1.00  0.00     0.004 C 
HETATM   16  C7          0       7.139  -3.821  -5.300  1.00  0.00     0.026 C 
HETATM   17  C8          0       8.522  -3.747  -5.434  1.00  0.00     0.112 C 
HETATM   18  C10         0       9.229  -4.646  -4.647  1.00  0.00     0.112 C 
HETATM   19  C12         0       8.645  -5.094  -3.468  1.00  0.00     0.028 C 
BRANCH  17  20
HETATM   20  O9          0       9.112  -2.712  -6.136  1.00  0.00    -0.357 OA
HETATM   21  H9          0       9.415  -1.906  -5.734  1.00  0.00     0.218 HD
ENDBRANCH  17  20
BRANCH  18  22
HETATM   22  O11         0      10.594  -4.746  -4.878  1.00  0.00    -0.357 OA
HETATM   23  H11         0      11.014  -4.003  -5.296  1.00  0.00     0.218 HD
ENDBRANCH  18  22
ENDBRANCH   4  14
BRANCH   8  24
HETATM   24  O17         0       3.934  -0.114   0.485  1.00  0.00    -0.359 OA
HETATM   25  H17         0       3.188   0.240   0.955  1.00  0.00     0.218 HD
ENDBRANCH   8  24
TORSDOF 5
ENDMDL
