MODEL 1
REMARK VINA RESULT:      -5.2      0.000      0.000
REMARK  5 active torsions:
REMARK  status: ('A' for Active; 'I' for Inactive)
REMARK    1  A    between atoms: C4_4  and  C5_5 
REMARK    2  A    between atoms: C8_8  and  O9_9 
REMARK    3  A    between atoms: C10_11  and  O11_12 
REMARK    4  A    between atoms: C16_18  and  O17_19 
REMARK    5  A    between atoms: C19_22  and  O20_23 
ROOT
HETATM    1  O1          0      24.837  67.437 -36.636  1.00  0.00    -0.286 OA
HETATM    2  C2          0      24.999  68.579 -37.146  1.00  0.00     0.201 C 
HETATM    3  C3          0      26.135  69.342 -36.935  1.00  0.00     0.067 C 
HETATM    4  C4          0      26.244  70.638 -37.425  1.00  0.00     0.103 C 
HETATM    5  O13         0      25.242  71.139 -38.125  1.00  0.00    -0.307 OA
HETATM    6  C14         0      24.126  70.472 -38.323  1.00  0.00     0.107 C 
HETATM    7  C15         0      22.950  71.108 -38.692  1.00  0.00     0.049 C 
HETATM    8  C16         0      21.728  70.447 -38.651  1.00  0.00     0.093 C 
HETATM    9  C18         0      21.806  69.063 -38.753  1.00  0.00     0.048 C 
HETATM   10  C19         0      22.983  68.398 -38.436  1.00  0.00     0.096 C 
HETATM   11  C21         0      24.080  69.111 -38.037  1.00  0.00     0.084 C 
ENDROOT
BRANCH  10  12
HETATM   12  O20         0      22.935  67.044 -38.119  1.00  0.00    -0.359 OA
HETATM   13  H20         0      22.661  66.801 -37.243  1.00  0.00     0.218 HD
ENDBRANCH  10  12
BRANCH   4  14
HETATM   14  C5          0      27.125  71.556 -36.700  1.00  0.00     0.025 C 
HETATM   15  C6          0      28.375  71.183 -36.226  1.00  0.00     0.004 C 
HETATM   16  C7          0      29.401  72.119 -36.308  1.00  0.00     0.026 C 
HETATM   17  C8          0      29.165  73.426 -36.721  1.00  0.00     0.112 C 
HETATM   18  C10         0      27.856  73.858 -36.556  1.00  0.00     0.112 C 
HETATM   19  C12         0      26.841  72.909 -36.564  1.00  0.00     0.028 C 
BRANCH  17  20
HETATM   20  O9          0      30.124  74.130 -37.427  1.00  0.00    -0.357 OA
HETATM   21  H9          0      30.610  73.770 -38.160  1.00  0.00     0.218 HD
ENDBRANCH  17  20
BRANCH  18  22
HETATM   22  O11         0      27.608  75.206 -36.774  1.00  0.00    -0.357 OA
HETATM   23  H11         0      27.240  75.445 -37.617  1.00  0.00     0.218 HD
ENDBRANCH  18  22
ENDBRANCH   4  14
BRANCH   8  24
HETATM   24  O17         0      20.566  71.088 -38.206  1.00  0.00    -0.359 OA
HETATM   25  H17         0      19.736  70.985 -38.657  1.00  0.00     0.218 HD
ENDBRANCH   8  24
TORSDOF 5
ENDMDL
MODEL 2
REMARK VINA RESULT:      -4.9      1.718      2.552
REMARK  5 active torsions:
REMARK  status: ('A' for Active; 'I' for Inactive)
REMARK    1  A    between atoms: C4_4  and  C5_5 
REMARK    2  A    between atoms: C8_8  and  O9_9 
REMARK    3  A    between atoms: C10_11  and  O11_12 
REMARK    4  A    between atoms: C16_18  and  O17_19 
REMARK    5  A    between atoms: C19_22  and  O20_23 
ROOT
HETATM    1  O1          0      24.327  66.396 -37.058  1.00  0.00    -0.286 OA
HETATM    2  C2          0      24.149  67.456 -37.718  1.00  0.00     0.201 C 
HETATM    3  C3          0      25.173  68.344 -38.004  1.00  0.00     0.067 C 
HETATM    4  C4          0      24.931  69.554 -38.644  1.00  0.00     0.103 C 
HETATM    5  O13         0      23.693  69.846 -39.002  1.00  0.00    -0.307 OA
HETATM    6  C14         0      22.680  69.057 -38.722  1.00  0.00     0.107 C 
HETATM    7  C15         0      21.371  69.518 -38.726  1.00  0.00     0.049 C 
HETATM    8  C16         0      20.337  68.761 -38.188  1.00  0.00     0.093 C 
HETATM    9  C18         0      20.569  67.391 -38.153  1.00  0.00     0.048 C 
HETATM   10  C19         0      21.865  66.894 -38.195  1.00  0.00     0.096 C 
HETATM   11  C21         0      22.921  67.758 -38.287  1.00  0.00     0.084 C 
ENDROOT
BRANCH  10  12
HETATM   12  O20         0      22.114  65.606 -37.730  1.00  0.00    -0.359 OA
HETATM   13  H20         0      22.563  65.512 -36.899  1.00  0.00     0.218 HD
ENDBRANCH  10  12
BRANCH   4  14
HETATM   14  C5          0      25.866  70.649 -38.380  1.00  0.00     0.025 C 
HETATM   15  C6          0      25.654  71.944 -38.833  1.00  0.00     0.004 C 
HETATM   16  C7          0      26.014  72.989 -37.988  1.00  0.00     0.026 C 
HETATM   17  C8          0      26.684  72.761 -36.791  1.00  0.00     0.112 C 
HETATM   18  C10         0      27.389  71.566 -36.739  1.00  0.00     0.112 C 
HETATM   19  C12         0      26.956  70.510 -37.532  1.00  0.00     0.028 C 
BRANCH  17  20
HETATM   20  O9          0      26.469  73.575 -35.693  1.00  0.00    -0.357 OA
HETATM   21  H9          0      26.187  74.480 -35.753  1.00  0.00     0.218 HD
ENDBRANCH  17  20
BRANCH  18  22
HETATM   22  O11         0      28.225  71.377 -35.648  1.00  0.00    -0.357 OA
HETATM   23  H11         0      29.050  71.848 -35.652  1.00  0.00     0.218 HD
ENDBRANCH  18  22
ENDBRANCH   4  14
BRANCH   8  24
HETATM   24  O17         0      19.312  69.353 -37.441  1.00  0.00    -0.359 OA
HETATM   25  H17         0      19.384  70.240 -37.111  1.00  0.00     0.218 HD
ENDBRANCH   8  24
TORSDOF 5
ENDMDL
MODEL 3
REMARK VINA RESULT:      -4.9      2.167      7.120
REMARK  5 active torsions:
REMARK  status: ('A' for Active; 'I' for Inactive)
REMARK    1  A    between atoms: C4_4  and  C5_5 
REMARK    2  A    between atoms: C8_8  and  O9_9 
REMARK    3  A    between atoms: C10_11  and  O11_12 
REMARK    4  A    between atoms: C16_18  and  O17_19 
REMARK    5  A    between atoms: C19_22  and  O20_23 
ROOT
HETATM    1  O1          0      23.667  74.483 -36.893  1.00  0.00    -0.286 OA
HETATM    2  C2          0      23.888  73.453 -37.588  1.00  0.00     0.201 C 
HETATM    3  C3          0      22.891  72.788 -38.281  1.00  0.00     0.067 C 
HETATM    4  C4          0      23.141  71.598 -38.955  1.00  0.00     0.103 C 
HETATM    5  O13         0      24.369  71.109 -38.944  1.00  0.00    -0.307 OA
HETATM    6  C14         0      25.343  71.680 -38.270  1.00  0.00     0.107 C 
HETATM    7  C15         0      26.495  70.989 -37.924  1.00  0.00     0.049 C 
HETATM    8  C16         0      27.399  71.508 -37.005  1.00  0.00     0.093 C 
HETATM    9  C18         0      27.380  72.892 -36.879  1.00  0.00     0.048 C 
HETATM   10  C19         0      26.260  73.619 -37.260  1.00  0.00     0.096 C 
HETATM   11  C21         0      25.173  72.970 -37.779  1.00  0.00     0.084 C 
ENDROOT
BRANCH  10  12
HETATM   12  O20         0      26.072  74.898 -36.745  1.00  0.00    -0.359 OA
HETATM   13  H20         0      26.677  75.579 -37.012  1.00  0.00     0.218 HD
ENDBRANCH  10  12
BRANCH   4  14
HETATM   14  C5          0      22.017  70.677 -39.129  1.00  0.00     0.025 C 
HETATM   15  C6          0      22.148  69.301 -39.013  1.00  0.00     0.004 C 
HETATM   16  C7          0      21.110  68.604 -38.403  1.00  0.00     0.026 C 
HETATM   17  C8          0      19.923  69.232 -38.041  1.00  0.00     0.112 C 
HETATM   18  C10         0      19.645  70.396 -38.745  1.00  0.00     0.112 C 
HETATM   19  C12         0      20.708  71.119 -39.272  1.00  0.00     0.028 C 
BRANCH  17  20
HETATM   20  O9          0      19.216  68.822 -36.924  1.00  0.00    -0.357 OA
HETATM   21  H9          0      18.865  69.418 -36.273  1.00  0.00     0.218 HD
ENDBRANCH  17  20
BRANCH  18  22
HETATM   22  O11         0      18.390  70.958 -38.559  1.00  0.00    -0.357 OA
HETATM   23  H11         0      17.918  70.706 -37.773  1.00  0.00     0.218 HD
ENDBRANCH  18  22
ENDBRANCH   4  14
BRANCH   8  24
HETATM   24  O17         0      28.021  70.692 -36.054  1.00  0.00    -0.359 OA
HETATM   25  H17         0      28.932  70.812 -35.813  1.00  0.00     0.218 HD
ENDBRANCH   8  24
TORSDOF 5
ENDMDL
MODEL 4
REMARK VINA RESULT:      -4.8      2.094      3.879
REMARK  5 active torsions:
REMARK  status: ('A' for Active; 'I' for Inactive)
REMARK    1  A    between atoms: C4_4  and  C5_5 
REMARK    2  A    between atoms: C8_8  and  O9_9 
REMARK    3  A    between atoms: C10_11  and  O11_12 
REMARK    4  A    between atoms: C16_18  and  O17_19 
REMARK    5  A    between atoms: C19_22  and  O20_23 
ROOT
HETATM    1  O1          0      22.479  68.165 -39.824  1.00  0.00    -0.286 OA
HETATM    2  C2          0      23.245  68.261 -38.826  1.00  0.00     0.201 C 
HETATM    3  C3          0      23.936  69.421 -38.520  1.00  0.00     0.067 C 
HETATM    4  C4          0      24.852  69.470 -37.475  1.00  0.00     0.103 C 
HETATM    5  O13         0      25.045  68.383 -36.750  1.00  0.00    -0.307 OA
HETATM    6  C14         0      24.444  67.245 -37.021  1.00  0.00     0.107 C 
HETATM    7  C15         0      24.922  66.033 -36.544  1.00  0.00     0.049 C 
HETATM    8  C16         0      24.442  64.825 -37.034  1.00  0.00     0.093 C 
HETATM    9  C18         0      23.164  64.878 -37.578  1.00  0.00     0.048 C 
HETATM   10  C19         0      22.636  66.083 -38.022  1.00  0.00     0.096 C 
HETATM   11  C21         0      23.373  67.230 -37.908  1.00  0.00     0.084 C 
ENDROOT
BRANCH  10  12
HETATM   12  O20         0      21.586  66.070 -38.934  1.00  0.00    -0.359 OA
HETATM   13  H20         0      21.792  65.919 -39.849  1.00  0.00     0.218 HD
ENDBRANCH  10  12
BRANCH   4  14
HETATM   14  C5          0      25.934  70.450 -37.578  1.00  0.00     0.025 C 
HETATM   15  C6          0      25.749  71.724 -38.096  1.00  0.00     0.004 C 
HETATM   16  C7          0      26.431  72.773 -37.488  1.00  0.00     0.026 C 
HETATM   17  C8          0      27.369  72.549 -36.486  1.00  0.00     0.112 C 
HETATM   18  C10         0      27.930  71.279 -36.490  1.00  0.00     0.112 C 
HETATM   19  C12         0      27.191  70.232 -37.028  1.00  0.00     0.028 C 
BRANCH  17  20
HETATM   20  O9          0      27.544  73.463 -35.462  1.00  0.00    -0.357 OA
HETATM   21  H9          0      28.253  73.419 -34.830  1.00  0.00     0.218 HD
ENDBRANCH  17  20
BRANCH  18  22
HETATM   22  O11         0      29.003  71.063 -35.637  1.00  0.00    -0.357 OA
HETATM   23  H11         0      28.798  70.815 -34.743  1.00  0.00     0.218 HD
ENDBRANCH  18  22
ENDBRANCH   4  14
BRANCH   8  24
HETATM   24  O17         0      25.297  63.742 -37.268  1.00  0.00    -0.359 OA
HETATM   25  H17         0      25.204  63.189 -38.035  1.00  0.00     0.218 HD
ENDBRANCH   8  24
TORSDOF 5
ENDMDL
MODEL 5
REMARK VINA RESULT:      -4.7      3.327      7.215
REMARK  5 active torsions:
REMARK  status: ('A' for Active; 'I' for Inactive)
REMARK    1  A    between atoms: C4_4  and  C5_5 
REMARK    2  A    between atoms: C8_8  and  O9_9 
REMARK    3  A    between atoms: C10_11  and  O11_12 
REMARK    4  A    between atoms: C16_18  and  O17_19 
REMARK    5  A    between atoms: C19_22  and  O20_23 
ROOT
HETATM    1  O1          0      22.063  68.686 -38.341  1.00  0.00    -0.286 OA
HETATM    2  C2          0      23.247  68.285 -38.171  1.00  0.00     0.201 C 
HETATM    3  C3          0      23.562  66.958 -37.929  1.00  0.00     0.067 C 
HETATM    4  C4          0      24.863  66.559 -37.644  1.00  0.00     0.103 C 
HETATM    5  O13         0      25.818  67.472 -37.626  1.00  0.00    -0.307 OA
HETATM    6  C14         0      25.567  68.750 -37.812  1.00  0.00     0.107 C 
HETATM    7  C15         0      26.456  69.736 -37.408  1.00  0.00     0.049 C 
HETATM    8  C16         0      26.082  71.074 -37.373  1.00  0.00     0.093 C 
HETATM    9  C18         0      25.039  71.415 -38.226  1.00  0.00     0.048 C 
HETATM   10  C19         0      24.159  70.445 -38.686  1.00  0.00     0.096 C 
HETATM   11  C21         0      24.329  69.140 -38.311  1.00  0.00     0.084 C 
ENDROOT
BRANCH  10  12
HETATM   12  O20         0      22.908  70.831 -39.157  1.00  0.00    -0.359 OA
HETATM   13  H20         0      22.146  70.369 -38.826  1.00  0.00     0.218 HD
ENDBRANCH  10  12
BRANCH   4  14
HETATM   14  C5          0      25.030  65.349 -36.837  1.00  0.00     0.025 C 
HETATM   15  C6          0      24.200  65.034 -35.772  1.00  0.00     0.004 C 
HETATM   16  C7          0      23.857  63.697 -35.595  1.00  0.00     0.026 C 
HETATM   17  C8          0      24.426  62.690 -36.366  1.00  0.00     0.112 C 
HETATM   18  C10         0      25.655  63.013 -36.926  1.00  0.00     0.112 C 
HETATM   19  C12         0      25.938  64.351 -37.171  1.00  0.00     0.028 C 
BRANCH  17  20
HETATM   20  O9          0      23.704  61.558 -36.700  1.00  0.00    -0.357 OA
HETATM   21  H9          0      24.074  60.810 -37.155  1.00  0.00     0.218 HD
ENDBRANCH  17  20
BRANCH  18  22
HETATM   22  O11         0      26.353  61.986 -37.545  1.00  0.00    -0.357 OA
HETATM   23  H11         0      27.271  61.892 -37.319  1.00  0.00     0.218 HD
ENDBRANCH  18  22
ENDBRANCH   4  14
BRANCH   8  24
HETATM   24  O17         0      26.486  71.916 -36.331  1.00  0.00    -0.359 OA
HETATM   25  H17         0      26.252  71.740 -35.428  1.00  0.00     0.218 HD
ENDBRANCH   8  24
TORSDOF 5
ENDMDL
MODEL 6
REMARK VINA RESULT:      -4.7     10.121     12.419
REMARK  5 active torsions:
REMARK  status: ('A' for Active; 'I' for Inactive)
REMARK    1  A    between atoms: C4_4  and  C5_5 
REMARK    2  A    between atoms: C8_8  and  O9_9 
REMARK    3  A    between atoms: C10_11  and  O11_12 
REMARK    4  A    between atoms: C16_18  and  O17_19 
REMARK    5  A    between atoms: C19_22  and  O20_23 
ROOT
HETATM    1  O1          0      11.253  69.494 -35.090  1.00  0.00    -0.286 OA
HETATM    2  C2          0      12.187  69.347 -35.925  1.00  0.00     0.201 C 
HETATM    3  C3          0      12.755  68.116 -36.205  1.00  0.00     0.067 C 
HETATM    4  C4          0      13.852  67.995 -37.052  1.00  0.00     0.103 C 
HETATM    5  O13         0      14.343  69.085 -37.614  1.00  0.00    -0.307 OA
HETATM    6  C14         0      13.865  70.282 -37.353  1.00  0.00     0.107 C 
HETATM    7  C15         0      14.598  71.433 -37.604  1.00  0.00     0.049 C 
HETATM    8  C16         0      14.203  72.665 -37.098  1.00  0.00     0.093 C 
HETATM    9  C18         0      12.846  72.778 -36.821  1.00  0.00     0.048 C 
HETATM   10  C19         0      12.072  71.645 -36.610  1.00  0.00     0.096 C 
HETATM   11  C21         0      12.647  70.406 -36.693  1.00  0.00     0.084 C 
ENDROOT
BRANCH  10  12
HETATM   12  O20         0      10.868  71.761 -35.922  1.00  0.00    -0.359 OA
HETATM   13  H20         0      10.151  72.209 -36.354  1.00  0.00     0.218 HD
ENDBRANCH  10  12
BRANCH   4  14
HETATM   14  C5          0      14.740  66.850 -36.839  1.00  0.00     0.025 C 
HETATM   15  C6          0      15.662  66.428 -37.785  1.00  0.00     0.004 C 
HETATM   16  C7          0      16.898  65.984 -37.327  1.00  0.00     0.026 C 
HETATM   17  C8          0      17.163  65.836 -35.969  1.00  0.00     0.112 C 
HETATM   18  C10         0      16.037  65.667 -35.174  1.00  0.00     0.112 C 
HETATM   19  C12         0      14.831  66.196 -35.617  1.00  0.00     0.028 C 
BRANCH  17  20
HETATM   20  O9          0      18.432  66.059 -35.467  1.00  0.00    -0.357 OA
HETATM   21  H9          0      19.208  65.599 -35.767  1.00  0.00     0.218 HD
ENDBRANCH  17  20
BRANCH  18  22
HETATM   22  O11         0      16.251  65.328 -33.846  1.00  0.00    -0.357 OA
HETATM   23  H11         0      16.505  66.031 -33.258  1.00  0.00     0.218 HD
ENDBRANCH  18  22
ENDBRANCH   4  14
BRANCH   8  24
HETATM   24  O17         0      15.135  73.581 -36.596  1.00  0.00    -0.359 OA
HETATM   25  H17         0      15.645  73.397 -35.816  1.00  0.00     0.218 HD
ENDBRANCH   8  24
TORSDOF 5
ENDMDL
MODEL 7
REMARK VINA RESULT:      -4.6      2.246      6.632
REMARK  5 active torsions:
REMARK  status: ('A' for Active; 'I' for Inactive)
REMARK    1  A    between atoms: C4_4  and  C5_5 
REMARK    2  A    between atoms: C8_8  and  O9_9 
REMARK    3  A    between atoms: C10_11  and  O11_12 
REMARK    4  A    between atoms: C16_18  and  O17_19 
REMARK    5  A    between atoms: C19_22  and  O20_23 
ROOT
HETATM    1  O1          0      22.425  71.365 -37.886  1.00  0.00    -0.286 OA
HETATM    2  C2          0      23.432  70.629 -38.076  1.00  0.00     0.201 C 
HETATM    3  C3          0      23.330  69.280 -38.370  1.00  0.00     0.067 C 
HETATM    4  C4          0      24.455  68.470 -38.473  1.00  0.00     0.103 C 
HETATM    5  O13         0      25.647  69.014 -38.305  1.00  0.00    -0.307 OA
HETATM    6  C14         0      25.798  70.282 -37.987  1.00  0.00     0.107 C 
HETATM    7  C15         0      26.974  70.760 -37.426  1.00  0.00     0.049 C 
HETATM    8  C16         0      27.041  72.028 -36.862  1.00  0.00     0.093 C 
HETATM    9  C18         0      26.107  72.936 -37.347  1.00  0.00     0.048 C 
HETATM   10  C19         0      24.941  72.492 -37.956  1.00  0.00     0.096 C 
HETATM   11  C21         0      24.717  71.149 -38.095  1.00  0.00     0.084 C 
ENDROOT
BRANCH  10  12
HETATM   12  O20         0      23.847  73.348 -38.037  1.00  0.00    -0.359 OA
HETATM   13  H20         0      23.148  73.237 -37.404  1.00  0.00     0.218 HD
ENDBRANCH  10  12
BRANCH   4  14
HETATM   14  C5          0      24.284  67.045 -38.182  1.00  0.00     0.025 C 
HETATM   15  C6          0      25.354  66.175 -38.028  1.00  0.00     0.004 C 
HETATM   16  C7          0      25.249  65.192 -37.049  1.00  0.00     0.026 C 
HETATM   17  C8          0      24.070  64.992 -36.339  1.00  0.00     0.112 C 
HETATM   18  C10         0      22.924  65.447 -36.978  1.00  0.00     0.112 C 
HETATM   19  C12         0      23.045  66.489 -37.889  1.00  0.00     0.028 C 
BRANCH  17  20
HETATM   20  O9          0      24.100  64.571 -35.021  1.00  0.00    -0.357 OA
HETATM   21  H9          0      23.524  64.910 -34.346  1.00  0.00     0.218 HD
ENDBRANCH  17  20
BRANCH  18  22
HETATM   22  O11         0      21.708  65.106 -36.404  1.00  0.00    -0.357 OA
HETATM   23  H11         0      21.435  65.608 -35.644  1.00  0.00     0.218 HD
ENDBRANCH  18  22
ENDBRANCH   4  14
BRANCH   8  24
HETATM   24  O17         0      27.751  72.263 -35.680  1.00  0.00    -0.359 OA
HETATM   25  H17         0      27.548  72.998 -35.113  1.00  0.00     0.218 HD
ENDBRANCH   8  24
TORSDOF 5
ENDMDL
MODEL 8
REMARK VINA RESULT:      -4.6      1.540      2.859
REMARK  5 active torsions:
REMARK  status: ('A' for Active; 'I' for Inactive)
REMARK    1  A    between atoms: C4_4  and  C5_5 
REMARK    2  A    between atoms: C8_8  and  O9_9 
REMARK    3  A    between atoms: C10_11  and  O11_12 
REMARK    4  A    between atoms: C16_18  and  O17_19 
REMARK    5  A    between atoms: C19_22  and  O20_23 
ROOT
HETATM    1  O1          0      23.611  70.512 -39.775  1.00  0.00    -0.286 OA
HETATM    2  C2          0      24.261  70.150 -38.756  1.00  0.00     0.201 C 
HETATM    3  C3          0      25.254  70.927 -38.184  1.00  0.00     0.067 C 
HETATM    4  C4          0      26.025  70.460 -37.125  1.00  0.00     0.103 C 
HETATM    5  O13         0      25.781  69.253 -36.646  1.00  0.00    -0.307 OA
HETATM    6  C14         0      24.875  68.461 -37.176  1.00  0.00     0.107 C 
HETATM    7  C15         0      24.885  67.091 -36.958  1.00  0.00     0.049 C 
HETATM    8  C16         0      24.093  66.234 -37.713  1.00  0.00     0.093 C 
HETATM    9  C18         0      22.964  66.819 -38.273  1.00  0.00     0.048 C 
HETATM   10  C19         0      22.902  68.193 -38.463  1.00  0.00     0.096 C 
HETATM   11  C21         0      23.954  68.979 -38.080  1.00  0.00     0.084 C 
ENDROOT
BRANCH  10  12
HETATM   12  O20         0      22.003  68.712 -39.390  1.00  0.00    -0.359 OA
HETATM   13  H20         0      22.254  69.497 -39.861  1.00  0.00     0.218 HD
ENDBRANCH  10  12
BRANCH   4  14
HETATM   14  C5          0      27.370  71.018 -36.979  1.00  0.00     0.025 C 
HETATM   15  C6          0      28.397  70.749 -37.872  1.00  0.00     0.004 C 
HETATM   16  C7          0      29.266  71.789 -38.187  1.00  0.00     0.026 C 
HETATM   17  C8          0      29.202  73.016 -37.536  1.00  0.00     0.112 C 
HETATM   18  C10         0      28.609  72.976 -36.281  1.00  0.00     0.112 C 
HETATM   19  C12         0      27.679  71.976 -36.022  1.00  0.00     0.028 C 
BRANCH  17  20
HETATM   20  O9          0      29.516  74.188 -38.201  1.00  0.00    -0.357 OA
HETATM   21  H9          0      30.396  74.423 -38.470  1.00  0.00     0.218 HD
ENDBRANCH  17  20
BRANCH  18  22
HETATM   22  O11         0      28.687  74.129 -35.512  1.00  0.00    -0.357 OA
HETATM   23  H11         0      28.023  74.245 -34.843  1.00  0.00     0.218 HD
ENDBRANCH  18  22
ENDBRANCH   4  14
BRANCH   8  24
HETATM   24  O17         0      24.571  64.993 -38.148  1.00  0.00    -0.359 OA
HETATM   25  H17         0      24.166  64.527 -38.870  1.00  0.00     0.218 HD
ENDBRANCH   8  24
TORSDOF 5
ENDMDL
MODEL 9
REMARK VINA RESULT:      -4.6      8.774     12.356
REMARK  5 active torsions:
REMARK  status: ('A' for Active; 'I' for Inactive)
REMARK    1  A    between atoms: C4_4  and  C5_5 
REMARK    2  A    between atoms: C8_8  and  O9_9 
REMARK    3  A    between atoms: C10_11  and  O11_12 
REMARK    4  A    between atoms: C16_18  and  O17_19 
REMARK    5  A    between atoms: C19_22  and  O20_23 
ROOT
HETATM    1  O1          0      16.339  65.938 -34.622  1.00  0.00    -0.286 OA
HETATM    2  C2          0      16.101  66.877 -35.430  1.00  0.00     0.201 C 
HETATM    3  C3          0      14.941  67.632 -35.383  1.00  0.00     0.067 C 
HETATM    4  C4          0      14.658  68.593 -36.347  1.00  0.00     0.103 C 
HETATM    5  O13         0      15.532  68.796 -37.316  1.00  0.00    -0.307 OA
HETATM    6  C14         0      16.630  68.082 -37.429  1.00  0.00     0.107 C 
HETATM    7  C15         0      17.333  68.005 -38.623  1.00  0.00     0.049 C 
HETATM    8  C16         0      18.335  67.060 -38.811  1.00  0.00     0.093 C 
HETATM    9  C18         0      18.935  66.601 -37.645  1.00  0.00     0.048 C 
HETATM   10  C19         0      18.279  66.705 -36.426  1.00  0.00     0.096 C 
HETATM   11  C21         0      17.039  67.280 -36.369  1.00  0.00     0.084 C 
ENDROOT
BRANCH  10  12
HETATM   12  O20         0      18.665  65.881 -35.373  1.00  0.00    -0.359 OA
HETATM   13  H20         0      19.466  66.095 -34.910  1.00  0.00     0.218 HD
ENDBRANCH  10  12
BRANCH   4  14
HETATM   14  C5          0      13.247  68.897 -36.595  1.00  0.00     0.025 C 
HETATM   15  C6          0      12.266  67.918 -36.657  1.00  0.00     0.004 C 
HETATM   16  C7          0      11.025  68.212 -36.103  1.00  0.00     0.026 C 
HETATM   17  C8          0      10.723  69.482 -35.623  1.00  0.00     0.112 C 
HETATM   18  C10         0      11.491  70.505 -36.166  1.00  0.00     0.112 C 
HETATM   19  C12         0      12.762  70.198 -36.635  1.00  0.00     0.028 C 
BRANCH  17  20
HETATM   20  O9          0       9.875  69.649 -34.543  1.00  0.00    -0.357 OA
HETATM   21  H9          0       9.954  69.163 -33.730  1.00  0.00     0.218 HD
ENDBRANCH  17  20
BRANCH  18  22
HETATM   22  O11         0      11.108  71.804 -35.866  1.00  0.00    -0.357 OA
HETATM   23  H11         0      11.376  72.148 -35.022  1.00  0.00     0.218 HD
ENDBRANCH  18  22
ENDBRANCH   4  14
BRANCH   8  24
HETATM   24  O17         0      18.483  66.388 -40.029  1.00  0.00    -0.359 OA
HETATM   25  H17         0      19.227  66.545 -40.598  1.00  0.00     0.218 HD
ENDBRANCH   8  24
TORSDOF 5
ENDMDL
