MODEL 1
REMARK VINA RESULT:      -0.2      0.000      0.000
REMARK  5 active torsions:
REMARK  status: ('A' for Active; 'I' for Inactive)
REMARK    1  A    between atoms: C4_4  and  C5_5 
REMARK    2  A    between atoms: C8_8  and  O9_9 
REMARK    3  A    between atoms: C10_11  and  O11_12 
REMARK    4  A    between atoms: C16_18  and  O17_19 
REMARK    5  A    between atoms: C19_22  and  O20_23 
ROOT
HETATM    1  O1          0      18.486 117.479  -2.247  1.00  0.00    -0.286 OA
HETATM    2  C2          0      19.047 116.457  -2.728  1.00  0.00     0.201 C 
HETATM    3  C3          0      19.425 116.363  -4.056  1.00  0.00     0.067 C 
HETATM    4  C4          0      19.947 115.188  -4.584  1.00  0.00     0.103 C 
HETATM    5  O13         0      20.101 114.147  -3.785  1.00  0.00    -0.307 OA
HETATM    6  C14         0      19.724 114.170  -2.525  1.00  0.00     0.107 C 
HETATM    7  C15         0      19.509 113.005  -1.805  1.00  0.00     0.049 C 
HETATM    8  C16         0      18.872 113.027  -0.570  1.00  0.00     0.093 C 
HETATM    9  C18         0      18.956 114.235   0.112  1.00  0.00     0.048 C 
HETATM   10  C19         0      19.217 115.414  -0.572  1.00  0.00     0.096 C 
HETATM   11  C21         0      19.410 115.385  -1.926  1.00  0.00     0.084 C 
ENDROOT
BRANCH  10  12
HETATM   12  O20         0      18.874 116.630   0.012  1.00  0.00    -0.359 OA
HETATM   13  H20         0      19.577 117.194   0.310  1.00  0.00     0.218 HD
ENDBRANCH  10  12
BRANCH   4  14
HETATM   14  C5          0      19.757 114.954  -6.017  1.00  0.00     0.025 C 
HETATM   15  C6          0      19.538 113.692  -6.551  1.00  0.00     0.004 C 
HETATM   16  C7          0      18.634 113.585  -7.602  1.00  0.00     0.026 C 
HETATM   17  C8          0      18.066 114.709  -8.194  1.00  0.00     0.112 C 
HETATM   18  C10         0      18.798 115.879  -8.037  1.00  0.00     0.112 C 
HETATM   19  C12         0      19.631 115.993  -6.930  1.00  0.00     0.028 C 
BRANCH  17  20
HETATM   20  O9          0      16.779 114.670  -8.700  1.00  0.00    -0.357 OA
HETATM   21  H9          0      16.363 113.879  -9.023  1.00  0.00     0.218 HD
ENDBRANCH  17  20
BRANCH  18  22
HETATM   22  O11         0      18.378 116.984  -8.762  1.00  0.00    -0.357 OA
HETATM   23  H11         0      18.628 117.018  -9.679  1.00  0.00     0.218 HD
ENDBRANCH  18  22
ENDBRANCH   4  14
BRANCH   8  24
HETATM   24  O17         0      17.948 112.040  -0.208  1.00  0.00    -0.359 OA
HETATM   25  H17         0      17.543 111.474  -0.854  1.00  0.00     0.218 HD
ENDBRANCH   8  24
TORSDOF 5
ENDMDL
MODEL 2
REMARK VINA RESULT:      -0.2      2.427      3.150
REMARK  5 active torsions:
REMARK  status: ('A' for Active; 'I' for Inactive)
REMARK    1  A    between atoms: C4_4  and  C5_5 
REMARK    2  A    between atoms: C8_8  and  O9_9 
REMARK    3  A    between atoms: C10_11  and  O11_12 
REMARK    4  A    between atoms: C16_18  and  O17_19 
REMARK    5  A    between atoms: C19_22  and  O20_23 
ROOT
HETATM    1  O1          0      15.707 115.215  -1.804  1.00  0.00    -0.286 OA
HETATM    2  C2          0      16.924 115.511  -1.956  1.00  0.00     0.201 C 
HETATM    3  C3          0      17.341 116.663  -2.599  1.00  0.00     0.067 C 
HETATM    4  C4          0      18.687 116.914  -2.844  1.00  0.00     0.103 C 
HETATM    5  O13         0      19.582 116.035  -2.430  1.00  0.00    -0.307 OA
HETATM    6  C14         0      19.237 114.908  -1.847  1.00  0.00     0.107 C 
HETATM    7  C15         0      20.105 113.827  -1.775  1.00  0.00     0.049 C 
HETATM    8  C16         0      19.658 112.568  -1.393  1.00  0.00     0.093 C 
HETATM    9  C18         0      18.511 112.565  -0.609  1.00  0.00     0.048 C 
HETATM   10  C19         0      17.645 113.650  -0.621  1.00  0.00     0.096 C 
HETATM   11  C21         0      17.932 114.739  -1.399  1.00  0.00     0.084 C 
ENDROOT
BRANCH  10  12
HETATM   12  O20         0      16.329 113.475  -0.203  1.00  0.00    -0.359 OA
HETATM   13  H20         0      15.820 112.787  -0.613  1.00  0.00     0.218 HD
ENDBRANCH  10  12
BRANCH   4  14
HETATM   14  C5          0      19.012 117.764  -3.991  1.00  0.00     0.025 C 
HETATM   15  C6          0      20.120 117.549  -4.796  1.00  0.00     0.004 C 
HETATM   16  C7          0      19.976 117.764  -6.163  1.00  0.00     0.026 C 
HETATM   17  C8          0      18.811 118.305  -6.697  1.00  0.00     0.112 C 
HETATM   18  C10         0      18.055 119.051  -5.803  1.00  0.00     0.112 C 
HETATM   19  C12         0      18.155 118.757  -4.448  1.00  0.00     0.028 C 
BRANCH  17  20
HETATM   20  O9          0      18.367 117.932  -7.953  1.00  0.00    -0.357 OA
HETATM   21  H9          0      17.653 117.323  -8.102  1.00  0.00     0.218 HD
ENDBRANCH  17  20
BRANCH  18  22
HETATM   22  O11         0      16.987 119.766  -6.326  1.00  0.00    -0.357 OA
HETATM   23  H11         0      16.731 119.564  -7.218  1.00  0.00     0.218 HD
ENDBRANCH  18  22
ENDBRANCH   4  14
BRANCH   8  24
HETATM   24  O17         0      20.122 111.408  -2.023  1.00  0.00    -0.359 OA
HETATM   25  H17         0      19.658 111.017  -2.754  1.00  0.00     0.218 HD
ENDBRANCH   8  24
TORSDOF 5
ENDMDL
MODEL 3
REMARK VINA RESULT:      -0.2      4.078      6.189
REMARK  5 active torsions:
REMARK  status: ('A' for Active; 'I' for Inactive)
REMARK    1  A    between atoms: C4_4  and  C5_5 
REMARK    2  A    between atoms: C8_8  and  O9_9 
REMARK    3  A    between atoms: C10_11  and  O11_12 
REMARK    4  A    between atoms: C16_18  and  O17_19 
REMARK    5  A    between atoms: C19_22  and  O20_23 
ROOT
HETATM    1  O1          0      14.782 115.684  -4.388  1.00  0.00    -0.286 OA
HETATM    2  C2          0      15.211 115.569  -3.207  1.00  0.00     0.201 C 
HETATM    3  C3          0      16.560 115.488  -2.902  1.00  0.00     0.067 C 
HETATM    4  C4          0      17.001 115.258  -1.604  1.00  0.00     0.103 C 
HETATM    5  O13         0      16.105 115.135  -0.642  1.00  0.00    -0.307 OA
HETATM    6  C14         0      14.812 115.166  -0.882  1.00  0.00     0.107 C 
HETATM    7  C15         0      13.889 114.650   0.017  1.00  0.00     0.049 C 
HETATM    8  C16         0      12.562 114.453  -0.345  1.00  0.00     0.093 C 
HETATM    9  C18         0      12.113 115.254  -1.387  1.00  0.00     0.048 C 
HETATM   10  C19         0      13.012 115.824  -2.278  1.00  0.00     0.096 C 
HETATM   11  C21         0      14.354 115.609  -2.118  1.00  0.00     0.084 C 
ENDROOT
BRANCH  10  12
HETATM   12  O20         0      12.563 116.240  -3.527  1.00  0.00    -0.359 OA
HETATM   13  H20         0      11.726 116.687  -3.573  1.00  0.00     0.218 HD
ENDBRANCH  10  12
BRANCH   4  14
HETATM   14  C5          0      18.301 114.604  -1.445  1.00  0.00     0.025 C 
HETATM   15  C6          0      18.916 114.443  -0.212  1.00  0.00     0.004 C 
HETATM   16  C7          0      19.600 113.254   0.017  1.00  0.00     0.026 C 
HETATM   17  C8          0      19.782 112.311  -0.989  1.00  0.00     0.112 C 
HETATM   18  C10         0      19.705 112.819  -2.279  1.00  0.00     0.112 C 
HETATM   19  C12         0      18.945 113.962  -2.495  1.00  0.00     0.028 C 
BRANCH  17  20
HETATM   20  O9          0      19.819 110.960  -0.696  1.00  0.00    -0.357 OA
HETATM   21  H9          0      19.256 110.314  -1.109  1.00  0.00     0.218 HD
ENDBRANCH  17  20
BRANCH  18  22
HETATM   22  O11         0      20.065 111.966  -3.313  1.00  0.00    -0.357 OA
HETATM   23  H11         0      19.810 111.054  -3.226  1.00  0.00     0.218 HD
ENDBRANCH  18  22
ENDBRANCH   4  14
BRANCH   8  24
HETATM   24  O17         0      11.854 113.319   0.070  1.00  0.00    -0.359 OA
HETATM   25  H17         0      12.131 112.804   0.818  1.00  0.00     0.218 HD
ENDBRANCH   8  24
TORSDOF 5
ENDMDL
MODEL 4
REMARK VINA RESULT:      -0.2      4.618      6.502
REMARK  5 active torsions:
REMARK  status: ('A' for Active; 'I' for Inactive)
REMARK    1  A    between atoms: C4_4  and  C5_5 
REMARK    2  A    between atoms: C8_8  and  O9_9 
REMARK    3  A    between atoms: C10_11  and  O11_12 
REMARK    4  A    between atoms: C16_18  and  O17_19 
REMARK    5  A    between atoms: C19_22  and  O20_23 
ROOT
HETATM    1  O1          0      13.668 117.269  -2.036  1.00  0.00    -0.286 OA
HETATM    2  C2          0      14.113 116.340  -1.309  1.00  0.00     0.201 C 
HETATM    3  C3          0      15.424 116.297  -0.865  1.00  0.00     0.067 C 
HETATM    4  C4          0      15.917 115.210  -0.151  1.00  0.00     0.103 C 
HETATM    5  O13         0      15.100 114.208   0.123  1.00  0.00    -0.307 OA
HETATM    6  C14         0      13.858 114.181  -0.307  1.00  0.00     0.107 C 
HETATM    7  C15         0      13.134 113.000  -0.376  1.00  0.00     0.049 C 
HETATM    8  C16         0      11.926 112.933  -1.061  1.00  0.00     0.093 C 
HETATM    9  C18         0      11.255 114.143  -1.187  1.00  0.00     0.048 C 
HETATM   10  C19         0      11.941 115.345  -1.077  1.00  0.00     0.096 C 
HETATM   11  C21         0      13.286 115.339  -0.824  1.00  0.00     0.084 C 
ENDROOT
BRANCH  10  12
HETATM   12  O20         0      11.385 116.498  -1.622  1.00  0.00    -0.359 OA
HETATM   13  H20         0      10.544 116.425  -2.056  1.00  0.00     0.218 HD
ENDBRANCH  10  12
BRANCH   4  14
HETATM   14  C5          0      17.353 114.944  -0.244  1.00  0.00     0.025 C 
HETATM   15  C6          0      17.898 113.683  -0.050  1.00  0.00     0.004 C 
HETATM   16  C7          0      18.963 113.308  -0.864  1.00  0.00     0.026 C 
HETATM   17  C8          0      19.554 114.203  -1.749  1.00  0.00     0.112 C 
HETATM   18  C10         0      19.380 115.542  -1.423  1.00  0.00     0.112 C 
HETATM   19  C12         0      18.261 115.900  -0.680  1.00  0.00     0.028 C 
BRANCH  17  20
HETATM   20  O9          0      20.078 113.768  -2.953  1.00  0.00    -0.357 OA
HETATM   21  H9          0      19.919 114.199  -3.785  1.00  0.00     0.218 HD
ENDBRANCH  17  20
BRANCH  18  22
HETATM   22  O11         0      20.103 116.468  -2.161  1.00  0.00    -0.357 OA
HETATM   23  H11         0      19.607 117.140  -2.613  1.00  0.00     0.218 HD
ENDBRANCH  18  22
ENDBRANCH   4  14
BRANCH   8  24
HETATM   24  O17         0      11.591 111.821  -1.842  1.00  0.00    -0.359 OA
HETATM   25  H17         0      10.976 111.164  -1.537  1.00  0.00     0.218 HD
ENDBRANCH   8  24
TORSDOF 5
ENDMDL
MODEL 5
REMARK VINA RESULT:      -0.2      2.221      2.830
REMARK  5 active torsions:
REMARK  status: ('A' for Active; 'I' for Inactive)
REMARK    1  A    between atoms: C4_4  and  C5_5 
REMARK    2  A    between atoms: C8_8  and  O9_9 
REMARK    3  A    between atoms: C10_11  and  O11_12 
REMARK    4  A    between atoms: C16_18  and  O17_19 
REMARK    5  A    between atoms: C19_22  and  O20_23 
ROOT
HETATM    1  O1          0      19.746 117.805  -1.456  1.00  0.00    -0.286 OA
HETATM    2  C2          0      19.842 117.126  -2.515  1.00  0.00     0.201 C 
HETATM    3  C3          0      20.125 117.691  -3.746  1.00  0.00     0.067 C 
HETATM    4  C4          0      20.123 116.935  -4.913  1.00  0.00     0.103 C 
HETATM    5  O13         0      19.864 115.642  -4.831  1.00  0.00    -0.307 OA
HETATM    6  C14         0      19.552 115.063  -3.692  1.00  0.00     0.107 C 
HETATM    7  C15         0      18.902 113.837  -3.650  1.00  0.00     0.049 C 
HETATM    8  C16         0      18.351 113.353  -2.469  1.00  0.00     0.093 C 
HETATM    9  C18         0      18.924 113.853  -1.306  1.00  0.00     0.048 C 
HETATM   10  C19         0      19.622 115.054  -1.322  1.00  0.00     0.096 C 
HETATM   11  C21         0      19.761 115.742  -2.497  1.00  0.00     0.084 C 
ENDROOT
BRANCH  10  12
HETATM   12  O20         0      19.804 115.751  -0.132  1.00  0.00    -0.359 OA
HETATM   13  H20         0      19.031 116.029   0.344  1.00  0.00     0.218 HD
ENDBRANCH  10  12
BRANCH   4  14
HETATM   14  C5          0      19.828 117.635  -6.164  1.00  0.00     0.025 C 
HETATM   15  C6          0      19.116 117.052  -7.202  1.00  0.00     0.004 C 
HETATM   16  C7          0      18.223 117.857  -7.903  1.00  0.00     0.026 C 
HETATM   17  C8          0      18.138 119.226  -7.671  1.00  0.00     0.112 C 
HETATM   18  C10         0      19.278 119.791  -7.114  1.00  0.00     0.112 C 
HETATM   19  C12         0      20.108 118.983  -6.347  1.00  0.00     0.028 C 
BRANCH  17  20
HETATM   20  O9          0      16.932 119.892  -7.796  1.00  0.00    -0.357 OA
HETATM   21  H9          0      16.463 119.986  -8.617  1.00  0.00     0.218 HD
ENDBRANCH  17  20
BRANCH  18  22
HETATM   22  O11         0      19.318 121.176  -7.037  1.00  0.00    -0.357 OA
HETATM   23  H11         0      18.972 121.573  -6.246  1.00  0.00     0.218 HD
ENDBRANCH  18  22
ENDBRANCH   4  14
BRANCH   8  24
HETATM   24  O17         0      17.117 112.694  -2.457  1.00  0.00    -0.359 OA
HETATM   25  H17         0      16.883 112.060  -3.125  1.00  0.00     0.218 HD
ENDBRANCH   8  24
TORSDOF 5
ENDMDL
MODEL 6
REMARK VINA RESULT:      -0.2      4.323      6.695
REMARK  5 active torsions:
REMARK  status: ('A' for Active; 'I' for Inactive)
REMARK    1  A    between atoms: C4_4  and  C5_5 
REMARK    2  A    between atoms: C8_8  and  O9_9 
REMARK    3  A    between atoms: C10_11  and  O11_12 
REMARK    4  A    between atoms: C16_18  and  O17_19 
REMARK    5  A    between atoms: C19_22  and  O20_23 
ROOT
HETATM    1  O1          0      13.006 114.575  -1.322  1.00  0.00    -0.286 OA
HETATM    2  C2          0      13.921 113.718  -1.178  1.00  0.00     0.201 C 
HETATM    3  C3          0      15.134 114.009  -0.577  1.00  0.00     0.067 C 
HETATM    4  C4          0      16.162 113.075  -0.523  1.00  0.00     0.103 C 
HETATM    5  O13         0      15.960 111.877  -1.042  1.00  0.00    -0.307 OA
HETATM    6  C14         0      14.841 111.561  -1.656  1.00  0.00     0.107 C 
HETATM    7  C15         0      14.765 110.487  -2.532  1.00  0.00     0.049 C 
HETATM    8  C16         0      13.667 110.311  -3.365  1.00  0.00     0.093 C 
HETATM    9  C18         0      12.491 110.901  -2.918  1.00  0.00     0.048 C 
HETATM   10  C19         0      12.528 111.947  -2.006  1.00  0.00     0.096 C 
HETATM   11  C21         0      13.731 112.390  -1.531  1.00  0.00     0.084 C 
ENDROOT
BRANCH  10  12
HETATM   12  O20         0      11.431 112.797  -1.901  1.00  0.00    -0.359 OA
HETATM   13  H20         0      10.853 112.688  -1.156  1.00  0.00     0.218 HD
ENDBRANCH  10  12
BRANCH   4  14
HETATM   14  C5          0      17.531 113.589  -0.451  1.00  0.00     0.025 C 
HETATM   15  C6          0      18.618 112.911  -0.982  1.00  0.00     0.004 C 
HETATM   16  C7          0      19.611 113.667  -1.597  1.00  0.00     0.026 C 
HETATM   17  C8          0      19.593 115.058  -1.567  1.00  0.00     0.112 C 
HETATM   18  C10         0      18.867 115.606  -0.519  1.00  0.00     0.112 C 
HETATM   19  C12         0      17.824 114.863   0.021  1.00  0.00     0.028 C 
BRANCH  17  20
HETATM   20  O9          0      20.088 115.796  -2.628  1.00  0.00    -0.357 OA
HETATM   21  H9          0      20.568 115.418  -3.356  1.00  0.00     0.218 HD
ENDBRANCH  17  20
BRANCH  18  22
HETATM   22  O11         0      18.970 116.977  -0.331  1.00  0.00    -0.357 OA
HETATM   23  H11         0      19.281 117.273   0.516  1.00  0.00     0.218 HD
ENDBRANCH  18  22
ENDBRANCH   4  14
BRANCH   8  24
HETATM   24  O17         0      13.817 109.879  -4.688  1.00  0.00    -0.359 OA
HETATM   25  H17         0      13.163 110.065  -5.351  1.00  0.00     0.218 HD
ENDBRANCH   8  24
TORSDOF 5
ENDMDL
MODEL 7
REMARK VINA RESULT:      -0.2      3.490      6.721
REMARK  5 active torsions:
REMARK  status: ('A' for Active; 'I' for Inactive)
REMARK    1  A    between atoms: C4_4  and  C5_5 
REMARK    2  A    between atoms: C8_8  and  O9_9 
REMARK    3  A    between atoms: C10_11  and  O11_12 
REMARK    4  A    between atoms: C16_18  and  O17_19 
REMARK    5  A    between atoms: C19_22  and  O20_23 
ROOT
HETATM    1  O1          0      16.549 118.117  -6.250  1.00  0.00    -0.286 OA
HETATM    2  C2          0      17.484 118.460  -5.476  1.00  0.00     0.201 C 
HETATM    3  C3          0      18.426 117.568  -4.995  1.00  0.00     0.067 C 
HETATM    4  C4          0      19.384 117.951  -4.063  1.00  0.00     0.103 C 
HETATM    5  O13         0      19.400 119.206  -3.648  1.00  0.00    -0.307 OA
HETATM    6  C14         0      18.505 120.084  -4.045  1.00  0.00     0.107 C 
HETATM    7  C15         0      18.264 121.253  -3.337  1.00  0.00     0.049 C 
HETATM    8  C16         0      17.157 122.047  -3.609  1.00  0.00     0.093 C 
HETATM    9  C18         0      16.646 121.920  -4.896  1.00  0.00     0.048 C 
HETATM   10  C19         0      16.906 120.784  -5.650  1.00  0.00     0.096 C 
HETATM   11  C21         0      17.686 119.787  -5.128  1.00  0.00     0.084 C 
ENDROOT
BRANCH  10  12
HETATM   12  O20         0      16.069 120.468  -6.715  1.00  0.00    -0.359 OA
HETATM   13  H20         0      15.623 119.630  -6.697  1.00  0.00     0.218 HD
ENDBRANCH  10  12
BRANCH   4  14
HETATM   14  C5          0      19.914 116.911  -3.180  1.00  0.00     0.025 C 
HETATM   15  C6          0      20.125 117.110  -1.823  1.00  0.00     0.004 C 
HETATM   16  C7          0      19.836 116.055  -0.964  1.00  0.00     0.026 C 
HETATM   17  C8          0      19.478 114.800  -1.444  1.00  0.00     0.112 C 
HETATM   18  C10         0      19.905 114.532  -2.738  1.00  0.00     0.112 C 
HETATM   19  C12         0      20.104 115.601  -3.603  1.00  0.00     0.028 C 
BRANCH  17  20
HETATM   20  O9          0      18.592 114.000  -0.746  1.00  0.00    -0.357 OA
HETATM   21  H9          0      18.418 113.091  -0.963  1.00  0.00     0.218 HD
ENDBRANCH  17  20
BRANCH  18  22
HETATM   22  O11         0      19.742 113.232  -3.197  1.00  0.00    -0.357 OA
HETATM   23  H11         0      19.088 112.700  -2.758  1.00  0.00     0.218 HD
ENDBRANCH  18  22
ENDBRANCH   4  14
BRANCH   8  24
HETATM   24  O17         0      16.423 122.652  -2.583  1.00  0.00    -0.359 OA
HETATM   25  H17         0      16.661 122.544  -1.669  1.00  0.00     0.218 HD
ENDBRANCH   8  24
TORSDOF 5
ENDMDL
MODEL 8
REMARK VINA RESULT:      -0.1      4.854      6.703
REMARK  5 active torsions:
REMARK  status: ('A' for Active; 'I' for Inactive)
REMARK    1  A    between atoms: C4_4  and  C5_5 
REMARK    2  A    between atoms: C8_8  and  O9_9 
REMARK    3  A    between atoms: C10_11  and  O11_12 
REMARK    4  A    between atoms: C16_18  and  O17_19 
REMARK    5  A    between atoms: C19_22  and  O20_23 
ROOT
HETATM    1  O1          0      13.144 117.378  -0.640  1.00  0.00    -0.286 OA
HETATM    2  C2          0      13.704 116.295  -0.964  1.00  0.00     0.201 C 
HETATM    3  C3          0      14.970 115.946  -0.529  1.00  0.00     0.067 C 
HETATM    4  C4          0      15.605 114.795  -0.983  1.00  0.00     0.103 C 
HETATM    5  O13         0      14.968 114.013  -1.836  1.00  0.00    -0.307 OA
HETATM    6  C14         0      13.780 114.318  -2.310  1.00  0.00     0.107 C 
HETATM    7  C15         0      13.287 113.742  -3.472  1.00  0.00     0.049 C 
HETATM    8  C16         0      12.156 114.246  -4.104  1.00  0.00     0.093 C 
HETATM    9  C18         0      11.287 114.949  -3.279  1.00  0.00     0.048 C 
HETATM   10  C19         0      11.736 115.499  -2.086  1.00  0.00     0.096 C 
HETATM   11  C21         0      13.042 115.333  -1.711  1.00  0.00     0.084 C 
ENDROOT
BRANCH  10  12
HETATM   12  O20         0      11.016 116.536  -1.501  1.00  0.00    -0.359 OA
HETATM   13  H20         0      10.661 117.208  -2.071  1.00  0.00     0.218 HD
ENDBRANCH  10  12
BRANCH   4  14
HETATM   14  C5          0      17.069 114.795  -0.985  1.00  0.00     0.025 C 
HETATM   15  C6          0      17.820 113.953  -1.793  1.00  0.00     0.004 C 
HETATM   16  C7          0      18.983 114.468  -2.357  1.00  0.00     0.026 C 
HETATM   17  C8          0      19.457 115.732  -2.023  1.00  0.00     0.112 C 
HETATM   18  C10         0      19.024 116.208  -0.793  1.00  0.00     0.112 C 
HETATM   19  C12         0      17.815 115.740  -0.292  1.00  0.00     0.028 C 
BRANCH  17  20
HETATM   20  O9          0      20.125 116.508  -2.955  1.00  0.00    -0.357 OA
HETATM   21  H9          0      19.718 117.215  -3.442  1.00  0.00     0.218 HD
ENDBRANCH  17  20
BRANCH  18  22
HETATM   22  O11         0      19.613 117.375  -0.327  1.00  0.00    -0.357 OA
HETATM   23  H11         0      19.401 118.178  -0.789  1.00  0.00     0.218 HD
ENDBRANCH  18  22
ENDBRANCH   4  14
BRANCH   8  24
HETATM   24  O17         0      12.077 114.330  -5.499  1.00  0.00    -0.359 OA
HETATM   25  H17         0      11.338 114.740  -5.933  1.00  0.00     0.218 HD
ENDBRANCH   8  24
TORSDOF 5
ENDMDL
MODEL 9
REMARK VINA RESULT:      -0.1      2.387      6.925
REMARK  5 active torsions:
REMARK  status: ('A' for Active; 'I' for Inactive)
REMARK    1  A    between atoms: C4_4  and  C5_5 
REMARK    2  A    between atoms: C8_8  and  O9_9 
REMARK    3  A    between atoms: C10_11  and  O11_12 
REMARK    4  A    between atoms: C16_18  and  O17_19 
REMARK    5  A    between atoms: C19_22  and  O20_23 
ROOT
HETATM    1  O1          0      14.580 115.604  -5.378  1.00  0.00    -0.286 OA
HETATM    2  C2          0      15.835 115.636  -5.499  1.00  0.00     0.201 C 
HETATM    3  C3          0      16.695 115.133  -4.537  1.00  0.00     0.067 C 
HETATM    4  C4          0      18.074 115.274  -4.647  1.00  0.00     0.103 C 
HETATM    5  O13         0      18.567 115.886  -5.709  1.00  0.00    -0.307 OA
HETATM    6  C14         0      17.794 116.414  -6.633  1.00  0.00     0.107 C 
HETATM    7  C15         0      18.262 117.380  -7.513  1.00  0.00     0.049 C 
HETATM    8  C16         0      17.391 118.114  -8.309  1.00  0.00     0.093 C 
HETATM    9  C18         0      16.174 117.496  -8.571  1.00  0.00     0.048 C 
HETATM   10  C19         0      15.698 116.493  -7.737  1.00  0.00     0.096 C 
HETATM   11  C21         0      16.440 116.098  -6.658  1.00  0.00     0.084 C 
ENDROOT
BRANCH  10  12
HETATM   12  O20         0      14.338 116.197  -7.738  1.00  0.00    -0.359 OA
HETATM   13  H20         0      13.761 116.754  -7.229  1.00  0.00     0.218 HD
ENDBRANCH  10  12
BRANCH   4  14
HETATM   14  C5          0      18.847 115.287  -3.404  1.00  0.00     0.025 C 
HETATM   15  C6          0      19.943 116.115  -3.209  1.00  0.00     0.004 C 
HETATM   16  C7          0      20.108 116.678  -1.947  1.00  0.00     0.026 C 
HETATM   17  C8          0      19.291 116.326  -0.878  1.00  0.00     0.112 C 
HETATM   18  C10         0      18.683 115.083  -0.999  1.00  0.00     0.112 C 
HETATM   19  C12         0      18.452 114.582  -2.274  1.00  0.00     0.028 C 
BRANCH  17  20
HETATM   20  O9          0      18.968 117.248   0.101  1.00  0.00    -0.357 OA
HETATM   21  H9          0      18.546 117.021   0.922  1.00  0.00     0.218 HD
ENDBRANCH  17  20
BRANCH  18  22
HETATM   22  O11         0      18.012 114.601   0.116  1.00  0.00    -0.357 OA
HETATM   23  H11         0      17.314 113.976  -0.039  1.00  0.00     0.218 HD
ENDBRANCH  18  22
ENDBRANCH   4  14
BRANCH   8  24
HETATM   24  O17         0      17.586 119.480  -8.536  1.00  0.00    -0.359 OA
HETATM   25  H17         0      17.027 120.137  -8.137  1.00  0.00     0.218 HD
ENDBRANCH   8  24
TORSDOF 5
ENDMDL
