MODEL 1
REMARK VINA RESULT:      -6.3      0.000      0.000
REMARK  5 active torsions:
REMARK  status: ('A' for Active; 'I' for Inactive)
REMARK    1  A    between atoms: C4_4  and  C5_5 
REMARK    2  A    between atoms: C8_8  and  O9_9 
REMARK    3  A    between atoms: C10_11  and  O11_12 
REMARK    4  A    between atoms: C16_18  and  O17_19 
REMARK    5  A    between atoms: C19_22  and  O20_23 
ROOT
HETATM    1  O1          0      62.914   7.829  24.565  1.00  0.00    -0.286 OA
HETATM    2  C2          0      62.199   6.940  24.027  1.00  0.00     0.201 C 
HETATM    3  C3          0      60.819   6.921  24.133  1.00  0.00     0.067 C 
HETATM    4  C4          0      60.063   5.874  23.617  1.00  0.00     0.103 C 
HETATM    5  O13         0      60.685   4.889  22.994  1.00  0.00    -0.307 OA
HETATM    6  C14         0      61.996   4.840  22.897  1.00  0.00     0.107 C 
HETATM    7  C15         0      62.664   3.657  22.617  1.00  0.00     0.049 C 
HETATM    8  C16         0      64.042   3.554  22.767  1.00  0.00     0.093 C 
HETATM    9  C18         0      64.734   4.756  22.680  1.00  0.00     0.048 C 
HETATM   10  C19         0      64.085   5.962  22.909  1.00  0.00     0.096 C 
HETATM   11  C21         0      62.749   5.968  23.206  1.00  0.00     0.084 C 
ENDROOT
BRANCH  10  12
HETATM   12  O20         0      64.834   7.084  23.248  1.00  0.00    -0.359 OA
HETATM   13  H20         0      64.530   7.620  23.971  1.00  0.00     0.218 HD
ENDBRANCH  10  12
BRANCH   4  14
HETATM   14  C5          0      58.773   5.602  24.254  1.00  0.00     0.025 C 
HETATM   15  C6          0      58.661   5.102  25.543  1.00  0.00     0.004 C 
HETATM   16  C7          0      57.629   5.592  26.337  1.00  0.00     0.026 C 
HETATM   17  C8          0      56.659   6.448  25.826  1.00  0.00     0.112 C 
HETATM   18  C10         0      56.489   6.375  24.450  1.00  0.00     0.112 C 
HETATM   19  C12         0      57.565   5.964  23.672  1.00  0.00     0.028 C 
BRANCH  17  20
HETATM   20  O9          0      56.086   7.425  26.620  1.00  0.00    -0.357 OA
HETATM   21  H9          0      56.508   8.250  26.829  1.00  0.00     0.218 HD
ENDBRANCH  17  20
BRANCH  18  22
HETATM   22  O11         0      55.411   7.065  23.913  1.00  0.00    -0.357 OA
HETATM   23  H11         0      55.601   7.692  23.224  1.00  0.00     0.218 HD
ENDBRANCH  18  22
ENDBRANCH   4  14
BRANCH   8  24
HETATM   24  O17         0      64.634   2.401  23.296  1.00  0.00    -0.359 OA
HETATM   25  H17         0      65.293   2.447  23.978  1.00  0.00     0.218 HD
ENDBRANCH   8  24
TORSDOF 5
ENDMDL
MODEL 2
REMARK VINA RESULT:      -6.0      1.614      7.229
REMARK  5 active torsions:
REMARK  status: ('A' for Active; 'I' for Inactive)
REMARK    1  A    between atoms: C4_4  and  C5_5 
REMARK    2  A    between atoms: C8_8  and  O9_9 
REMARK    3  A    between atoms: C10_11  and  O11_12 
REMARK    4  A    between atoms: C16_18  and  O17_19 
REMARK    5  A    between atoms: C19_22  and  O20_23 
ROOT
HETATM    1  O1          0      57.208   6.541  27.360  1.00  0.00    -0.286 OA
HETATM    2  C2          0      57.343   6.342  26.121  1.00  0.00     0.201 C 
HETATM    3  C3          0      58.534   5.923  25.553  1.00  0.00     0.067 C 
HETATM    4  C4          0      58.684   5.811  24.176  1.00  0.00     0.103 C 
HETATM    5  O13         0      57.653   6.094  23.400  1.00  0.00    -0.307 OA
HETATM    6  C14         0      56.512   6.532  23.885  1.00  0.00     0.107 C 
HETATM    7  C15         0      55.588   7.199  23.093  1.00  0.00     0.049 C 
HETATM    8  C16         0      54.513   7.878  23.654  1.00  0.00     0.093 C 
HETATM    9  C18         0      54.123   7.425  24.908  1.00  0.00     0.048 C 
HETATM   10  C19         0      55.007   6.714  25.708  1.00  0.00     0.096 C 
HETATM   11  C21         0      56.268   6.442  25.251  1.00  0.00     0.084 C 
ENDROOT
BRANCH  10  12
HETATM   12  O20         0      54.782   6.649  27.080  1.00  0.00    -0.359 OA
HETATM   13  H20         0      54.695   5.791  27.476  1.00  0.00     0.218 HD
ENDBRANCH  10  12
BRANCH   4  14
HETATM   14  C5          0      60.036   5.963  23.635  1.00  0.00     0.025 C 
HETATM   15  C6          0      60.818   7.084  23.870  1.00  0.00     0.004 C 
HETATM   16  C7          0      62.181   6.889  24.072  1.00  0.00     0.026 C 
HETATM   17  C8          0      62.770   5.639  23.912  1.00  0.00     0.112 C 
HETATM   18  C10         0      62.068   4.768  23.090  1.00  0.00     0.112 C 
HETATM   19  C12         0      60.693   4.934  22.973  1.00  0.00     0.028 C 
BRANCH  17  20
HETATM   20  O9          0      63.849   5.259  24.691  1.00  0.00    -0.357 OA
HETATM   21  H9          0      64.737   5.563  24.546  1.00  0.00     0.218 HD
ENDBRANCH  17  20
BRANCH  18  22
HETATM   22  O11         0      62.700   3.582  22.745  1.00  0.00    -0.357 OA
HETATM   23  H11         0      62.952   3.478  21.835  1.00  0.00     0.218 HD
ENDBRANCH  18  22
ENDBRANCH   4  14
BRANCH   8  24
HETATM   24  O17         0      54.091   9.115  23.154  1.00  0.00    -0.359 OA
HETATM   25  H17         0      53.188   9.400  23.225  1.00  0.00     0.218 HD
ENDBRANCH   8  24
TORSDOF 5
ENDMDL
MODEL 3
REMARK VINA RESULT:      -5.7      1.752      7.154
REMARK  5 active torsions:
REMARK  status: ('A' for Active; 'I' for Inactive)
REMARK    1  A    between atoms: C4_4  and  C5_5 
REMARK    2  A    between atoms: C8_8  and  O9_9 
REMARK    3  A    between atoms: C10_11  and  O11_12 
REMARK    4  A    between atoms: C16_18  and  O17_19 
REMARK    5  A    between atoms: C19_22  and  O20_23 
ROOT
HETATM    1  O1          0      57.961   5.758  28.035  1.00  0.00    -0.286 OA
HETATM    2  C2          0      57.912   5.656  26.778  1.00  0.00     0.201 C 
HETATM    3  C3          0      59.006   5.294  26.012  1.00  0.00     0.067 C 
HETATM    4  C4          0      58.953   5.289  24.622  1.00  0.00     0.103 C 
HETATM    5  O13         0      57.819   5.621  24.030  1.00  0.00    -0.307 OA
HETATM    6  C14         0      56.763   6.009  24.709  1.00  0.00     0.107 C 
HETATM    7  C15         0      55.734   6.725  24.115  1.00  0.00     0.049 C 
HETATM    8  C16         0      54.753   7.348  24.877  1.00  0.00     0.093 C 
HETATM    9  C18         0      54.550   6.796  26.137  1.00  0.00     0.048 C 
HETATM   10  C19         0      55.541   6.035  26.741  1.00  0.00     0.096 C 
HETATM   11  C21         0      56.721   5.812  26.085  1.00  0.00     0.084 C 
ENDROOT
BRANCH  10  12
HETATM   12  O20         0      55.520   5.863  28.122  1.00  0.00    -0.359 OA
HETATM   13  H20         0      54.816   6.272  28.610  1.00  0.00     0.218 HD
ENDBRANCH  10  12
BRANCH   4  14
HETATM   14  C5          0      60.211   5.496  23.903  1.00  0.00     0.025 C 
HETATM   15  C6          0      60.368   6.468  22.926  1.00  0.00     0.004 C 
HETATM   16  C7          0      61.583   7.143  22.878  1.00  0.00     0.026 C 
HETATM   17  C8          0      62.655   6.774  23.683  1.00  0.00     0.112 C 
HETATM   18  C10         0      62.620   5.460  24.129  1.00  0.00     0.112 C 
HETATM   19  C12         0      61.383   4.836  24.249  1.00  0.00     0.028 C 
BRANCH  17  20
HETATM   20  O9          0      63.547   7.722  24.154  1.00  0.00    -0.357 OA
HETATM   21  H9          0      63.294   8.597  24.423  1.00  0.00     0.218 HD
ENDBRANCH  17  20
BRANCH  18  22
HETATM   22  O11         0      63.752   4.985  24.776  1.00  0.00    -0.357 OA
HETATM   23  H11         0      64.446   4.637  24.229  1.00  0.00     0.218 HD
ENDBRANCH  18  22
ENDBRANCH   4  14
BRANCH   8  24
HETATM   24  O17         0      54.264   8.615  24.542  1.00  0.00    -0.359 OA
HETATM   25  H17         0      53.366   8.745  24.260  1.00  0.00     0.218 HD
ENDBRANCH   8  24
TORSDOF 5
ENDMDL
MODEL 4
REMARK VINA RESULT:      -5.5      1.728      2.888
REMARK  5 active torsions:
REMARK  status: ('A' for Active; 'I' for Inactive)
REMARK    1  A    between atoms: C4_4  and  C5_5 
REMARK    2  A    between atoms: C8_8  and  O9_9 
REMARK    3  A    between atoms: C10_11  and  O11_12 
REMARK    4  A    between atoms: C16_18  and  O17_19 
REMARK    5  A    between atoms: C19_22  and  O20_23 
ROOT
HETATM    1  O1          0      60.321   5.130  20.399  1.00  0.00    -0.286 OA
HETATM    2  C2          0      60.381   5.157  21.659  1.00  0.00     0.201 C 
HETATM    3  C3          0      59.255   5.197  22.464  1.00  0.00     0.067 C 
HETATM    4  C4          0      59.350   5.330  23.844  1.00  0.00     0.103 C 
HETATM    5  O13         0      60.549   5.398  24.394  1.00  0.00    -0.307 OA
HETATM    6  C14         0      61.649   5.402  23.674  1.00  0.00     0.107 C 
HETATM    7  C15         0      62.854   5.866  24.182  1.00  0.00     0.049 C 
HETATM    8  C16         0      63.943   6.106  23.352  1.00  0.00     0.093 C 
HETATM    9  C18         0      63.945   5.385  22.164  1.00  0.00     0.048 C 
HETATM   10  C19         0      62.764   4.867  21.651  1.00  0.00     0.096 C 
HETATM   11  C21         0      61.590   5.052  22.329  1.00  0.00     0.084 C 
ENDROOT
BRANCH  10  12
HETATM   12  O20         0      62.693   4.545  20.299  1.00  0.00    -0.359 OA
HETATM   13  H20         0      62.678   5.259  19.672  1.00  0.00     0.218 HD
ENDBRANCH  10  12
BRANCH   4  14
HETATM   14  C5          0      58.221   5.954  24.536  1.00  0.00     0.025 C 
HETATM   15  C6          0      56.965   6.084  23.961  1.00  0.00     0.004 C 
HETATM   16  C7          0      55.857   5.899  24.782  1.00  0.00     0.026 C 
HETATM   17  C8          0      55.989   5.723  26.156  1.00  0.00     0.112 C 
HETATM   18  C10         0      57.163   6.230  26.695  1.00  0.00     0.112 C 
HETATM   19  C12         0      58.280   6.325  25.873  1.00  0.00     0.028 C 
BRANCH  17  20
HETATM   20  O9          0      55.106   4.920  26.855  1.00  0.00    -0.357 OA
HETATM   21  H9          0      54.186   5.125  26.974  1.00  0.00     0.218 HD
ENDBRANCH  17  20
BRANCH  18  22
HETATM   22  O11         0      57.261   6.252  28.079  1.00  0.00    -0.357 OA
HETATM   23  H11         0      56.616   5.750  28.564  1.00  0.00     0.218 HD
ENDBRANCH  18  22
ENDBRANCH   4  14
BRANCH   8  24
HETATM   24  O17         0      64.772   7.217  23.541  1.00  0.00    -0.359 OA
HETATM   25  H17         0      65.221   7.634  22.815  1.00  0.00     0.218 HD
ENDBRANCH   8  24
TORSDOF 5
ENDMDL
MODEL 5
REMARK VINA RESULT:      -5.4      2.574      4.404
REMARK  5 active torsions:
REMARK  status: ('A' for Active; 'I' for Inactive)
REMARK    1  A    between atoms: C4_4  and  C5_5 
REMARK    2  A    between atoms: C8_8  and  O9_9 
REMARK    3  A    between atoms: C10_11  and  O11_12 
REMARK    4  A    between atoms: C16_18  and  O17_19 
REMARK    5  A    between atoms: C19_22  and  O20_23 
ROOT
HETATM    1  O1          0      58.280   5.472  19.876  1.00  0.00    -0.286 OA
HETATM    2  C2          0      58.099   5.588  21.119  1.00  0.00     0.201 C 
HETATM    3  C3          0      56.840   5.643  21.692  1.00  0.00     0.067 C 
HETATM    4  C4          0      56.669   5.873  23.053  1.00  0.00     0.103 C 
HETATM    5  O13         0      57.741   6.022  23.811  1.00  0.00    -0.307 OA
HETATM    6  C14         0      58.957   6.016  23.312  1.00  0.00     0.107 C 
HETATM    7  C15         0      60.033   6.557  24.001  1.00  0.00     0.049 C 
HETATM    8  C16         0      61.253   6.779  23.374  1.00  0.00     0.093 C 
HETATM    9  C18         0      61.497   5.980  22.264  1.00  0.00     0.048 C 
HETATM   10  C19         0      60.447   5.384  21.579  1.00  0.00     0.096 C 
HETATM   11  C21         0      59.162   5.573  22.009  1.00  0.00     0.084 C 
ENDROOT
BRANCH  10  12
HETATM   12  O20         0      60.640   4.969  20.265  1.00  0.00    -0.359 OA
HETATM   13  H20         0      61.472   5.168  19.853  1.00  0.00     0.218 HD
ENDBRANCH  10  12
BRANCH   4  14
HETATM   14  C5          0      55.415   6.502  23.473  1.00  0.00     0.025 C 
HETATM   15  C6          0      55.245   7.078  24.723  1.00  0.00     0.004 C 
HETATM   16  C7          0      54.498   8.250  24.797  1.00  0.00     0.026 C 
HETATM   17  C8          0      53.830   8.759  23.689  1.00  0.00     0.112 C 
HETATM   18  C10         0      53.539   7.823  22.706  1.00  0.00     0.112 C 
HETATM   19  C12         0      54.354   6.702  22.600  1.00  0.00     0.028 C 
BRANCH  17  20
HETATM   20  O9          0      53.676  10.124  23.520  1.00  0.00    -0.357 OA
HETATM   21  H9          0      54.297  10.671  23.052  1.00  0.00     0.218 HD
ENDBRANCH  17  20
BRANCH  18  22
HETATM   22  O11         0      52.712   8.235  21.671  1.00  0.00    -0.357 OA
HETATM   23  H11         0      52.974   7.996  20.789  1.00  0.00     0.218 HD
ENDBRANCH  18  22
ENDBRANCH   4  14
BRANCH   8  24
HETATM   24  O17         0      62.007   7.930  23.631  1.00  0.00    -0.359 OA
HETATM   25  H17         0      62.701   8.213  23.048  1.00  0.00     0.218 HD
ENDBRANCH   8  24
TORSDOF 5
ENDMDL
MODEL 6
REMARK VINA RESULT:      -5.4      2.035      6.771
REMARK  5 active torsions:
REMARK  status: ('A' for Active; 'I' for Inactive)
REMARK    1  A    between atoms: C4_4  and  C5_5 
REMARK    2  A    between atoms: C8_8  and  O9_9 
REMARK    3  A    between atoms: C10_11  and  O11_12 
REMARK    4  A    between atoms: C16_18  and  O17_19 
REMARK    5  A    between atoms: C19_22  and  O20_23 
ROOT
HETATM    1  O1          0      58.029   2.814  24.144  1.00  0.00    -0.286 OA
HETATM    2  C2          0      58.332   4.029  24.298  1.00  0.00     0.201 C 
HETATM    3  C3          0      59.232   4.688  23.478  1.00  0.00     0.067 C 
HETATM    4  C4          0      59.626   5.997  23.732  1.00  0.00     0.103 C 
HETATM    5  O13         0      59.107   6.625  24.772  1.00  0.00    -0.307 OA
HETATM    6  C14         0      58.277   6.034  25.603  1.00  0.00     0.107 C 
HETATM    7  C15         0      58.048   6.526  26.880  1.00  0.00     0.049 C 
HETATM    8  C16         0      57.379   5.770  27.835  1.00  0.00     0.093 C 
HETATM    9  C18         0      56.526   4.800  27.323  1.00  0.00     0.048 C 
HETATM   10  C19         0      56.698   4.319  26.033  1.00  0.00     0.096 C 
HETATM   11  C21         0      57.705   4.817  25.252  1.00  0.00     0.084 C 
ENDROOT
BRANCH  10  12
HETATM   12  O20         0      56.153   3.086  25.688  1.00  0.00    -0.359 OA
HETATM   13  H20         0      56.747   2.399  25.410  1.00  0.00     0.218 HD
ENDBRANCH  10  12
BRANCH   4  14
HETATM   14  C5          0      60.947   6.405  23.249  1.00  0.00     0.025 C 
HETATM   15  C6          0      61.662   7.453  23.810  1.00  0.00     0.004 C 
HETATM   16  C7          0      63.040   7.303  23.925  1.00  0.00     0.026 C 
HETATM   17  C8          0      63.704   6.209  23.380  1.00  0.00     0.112 C 
HETATM   18  C10         0      63.032   5.585  22.336  1.00  0.00     0.112 C 
HETATM   19  C12         0      61.646   5.680  22.293  1.00  0.00     0.028 C 
BRANCH  17  20
HETATM   20  O9          0      64.830   5.687  23.990  1.00  0.00    -0.357 OA
HETATM   21  H9          0      64.899   4.788  24.291  1.00  0.00     0.218 HD
ENDBRANCH  17  20
BRANCH  18  22
HETATM   22  O11         0      63.728   4.612  21.634  1.00  0.00    -0.357 OA
HETATM   23  H11         0      64.666   4.737  21.540  1.00  0.00     0.218 HD
ENDBRANCH  18  22
ENDBRANCH   4  14
BRANCH   8  24
HETATM   24  O17         0      57.786   5.760  29.174  1.00  0.00    -0.359 OA
HETATM   25  H17         0      57.596   5.027  29.748  1.00  0.00     0.218 HD
ENDBRANCH   8  24
TORSDOF 5
ENDMDL
MODEL 7
REMARK VINA RESULT:      -5.4      2.963      6.993
REMARK  5 active torsions:
REMARK  status: ('A' for Active; 'I' for Inactive)
REMARK    1  A    between atoms: C4_4  and  C5_5 
REMARK    2  A    between atoms: C8_8  and  O9_9 
REMARK    3  A    between atoms: C10_11  and  O11_12 
REMARK    4  A    between atoms: C16_18  and  O17_19 
REMARK    5  A    between atoms: C19_22  and  O20_23 
ROOT
HETATM    1  O1          0      59.880   1.409  27.360  1.00  0.00    -0.286 OA
HETATM    2  C2          0      59.500   2.512  26.880  1.00  0.00     0.201 C 
HETATM    3  C3          0      59.983   3.017  25.685  1.00  0.00     0.067 C 
HETATM    4  C4          0      59.625   4.280  25.229  1.00  0.00     0.103 C 
HETATM    5  O13         0      58.787   5.002  25.953  1.00  0.00    -0.307 OA
HETATM    6  C14         0      58.328   4.586  27.113  1.00  0.00     0.107 C 
HETATM    7  C15         0      57.791   5.463  28.044  1.00  0.00     0.049 C 
HETATM    8  C16         0      57.546   5.066  29.353  1.00  0.00     0.093 C 
HETATM    9  C18         0      57.355   3.700  29.525  1.00  0.00     0.048 C 
HETATM   10  C19         0      57.838   2.796  28.589  1.00  0.00     0.096 C 
HETATM   11  C21         0      58.493   3.254  27.478  1.00  0.00     0.084 C 
ENDROOT
BRANCH  10  12
HETATM   12  O20         0      58.034   1.470  28.962  1.00  0.00    -0.359 OA
HETATM   13  H20         0      57.516   0.804  28.527  1.00  0.00     0.218 HD
ENDBRANCH  10  12
BRANCH   4  14
HETATM   14  C5          0      60.573   4.970  24.353  1.00  0.00     0.025 C 
HETATM   15  C6          0      60.264   6.148  23.689  1.00  0.00     0.004 C 
HETATM   16  C7          0      61.263   7.111  23.584  1.00  0.00     0.026 C 
HETATM   17  C8          0      62.564   6.860  24.005  1.00  0.00     0.112 C 
HETATM   18  C10         0      62.911   5.517  24.049  1.00  0.00     0.112 C 
HETATM   19  C12         0      61.902   4.580  24.240  1.00  0.00     0.028 C 
BRANCH  17  20
HETATM   20  O9          0      63.346   7.873  24.531  1.00  0.00    -0.357 OA
HETATM   21  H9          0      63.143   8.797  24.443  1.00  0.00     0.218 HD
ENDBRANCH  17  20
BRANCH  18  22
HETATM   22  O11         0      64.247   5.219  24.278  1.00  0.00    -0.357 OA
HETATM   23  H11         0      64.495   5.020  25.173  1.00  0.00     0.218 HD
ENDBRANCH  18  22
ENDBRANCH   4  14
BRANCH   8  24
HETATM   24  O17         0      57.808   5.915  30.434  1.00  0.00    -0.359 OA
HETATM   25  H17         0      58.575   6.475  30.454  1.00  0.00     0.218 HD
ENDBRANCH   8  24
TORSDOF 5
ENDMDL
MODEL 8
REMARK VINA RESULT:      -5.1      2.000      7.129
REMARK  5 active torsions:
REMARK  status: ('A' for Active; 'I' for Inactive)
REMARK    1  A    between atoms: C4_4  and  C5_5 
REMARK    2  A    between atoms: C8_8  and  O9_9 
REMARK    3  A    between atoms: C10_11  and  O11_12 
REMARK    4  A    between atoms: C16_18  and  O17_19 
REMARK    5  A    between atoms: C19_22  and  O20_23 
ROOT
HETATM    1  O1          0      55.398   6.990  26.099  1.00  0.00    -0.286 OA
HETATM    2  C2          0      56.108   6.560  25.149  1.00  0.00     0.201 C 
HETATM    3  C3          0      57.359   5.998  25.341  1.00  0.00     0.067 C 
HETATM    4  C4          0      58.163   5.627  24.270  1.00  0.00     0.103 C 
HETATM    5  O13         0      57.706   5.800  23.043  1.00  0.00    -0.307 OA
HETATM    6  C14         0      56.542   6.363  22.803  1.00  0.00     0.107 C 
HETATM    7  C15         0      56.233   6.906  21.564  1.00  0.00     0.049 C 
HETATM    8  C16         0      55.119   7.717  21.389  1.00  0.00     0.093 C 
HETATM    9  C18         0      54.098   7.520  22.311  1.00  0.00     0.048 C 
HETATM   10  C19         0      54.363   6.937  23.543  1.00  0.00     0.096 C 
HETATM   11  C21         0      55.637   6.537  23.845  1.00  0.00     0.084 C 
ENDROOT
BRANCH  10  12
HETATM   12  O20         0      53.475   7.136  24.595  1.00  0.00    -0.359 OA
HETATM   13  H20         0      52.692   7.645  24.426  1.00  0.00     0.218 HD
ENDBRANCH  10  12
BRANCH   4  14
HETATM   14  C5          0      59.611   5.625  24.489  1.00  0.00     0.025 C 
HETATM   15  C6          0      60.347   4.458  24.638  1.00  0.00     0.004 C 
HETATM   16  C7          0      61.611   4.416  24.059  1.00  0.00     0.026 C 
HETATM   17  C8          0      62.181   5.539  23.468  1.00  0.00     0.112 C 
HETATM   18  C10         0      61.675   6.751  23.918  1.00  0.00     0.112 C 
HETATM   19  C12         0      60.377   6.781  24.414  1.00  0.00     0.028 C 
BRANCH  17  20
HETATM   20  O9          0      63.023   5.415  22.377  1.00  0.00    -0.357 OA
HETATM   21  H9          0      62.743   5.542  21.478  1.00  0.00     0.218 HD
ENDBRANCH  17  20
BRANCH  18  22
HETATM   22  O11         0      62.334   7.899  23.505  1.00  0.00    -0.357 OA
HETATM   23  H11         0      63.235   8.004  23.788  1.00  0.00     0.218 HD
ENDBRANCH  18  22
ENDBRANCH   4  14
BRANCH   8  24
HETATM   24  O17         0      55.165   8.855  20.576  1.00  0.00    -0.359 OA
HETATM   25  H17         0      55.301   8.792  19.638  1.00  0.00     0.218 HD
ENDBRANCH   8  24
TORSDOF 5
ENDMDL
MODEL 9
REMARK VINA RESULT:      -5.1      8.424     10.833
REMARK  5 active torsions:
REMARK  status: ('A' for Active; 'I' for Inactive)
REMARK    1  A    between atoms: C4_4  and  C5_5 
REMARK    2  A    between atoms: C8_8  and  O9_9 
REMARK    3  A    between atoms: C10_11  and  O11_12 
REMARK    4  A    between atoms: C16_18  and  O17_19 
REMARK    5  A    between atoms: C19_22  and  O20_23 
ROOT
HETATM    1  O1          0      57.515   6.059  34.121  1.00  0.00    -0.286 OA
HETATM    2  C2          0      58.533   5.996  33.379  1.00  0.00     0.201 C 
HETATM    3  C3          0      59.060   4.798  32.928  1.00  0.00     0.067 C 
HETATM    4  C4          0      60.242   4.752  32.197  1.00  0.00     0.103 C 
HETATM    5  O13         0      60.858   5.886  31.913  1.00  0.00    -0.307 OA
HETATM    6  C14         0      60.420   7.047  32.348  1.00  0.00     0.107 C 
HETATM    7  C15         0      61.242   8.163  32.405  1.00  0.00     0.049 C 
HETATM    8  C16         0      60.859   9.307  33.094  1.00  0.00     0.093 C 
HETATM    9  C18         0      59.487   9.472  33.241  1.00  0.00     0.048 C 
HETATM   10  C19         0      58.631   8.384  33.144  1.00  0.00     0.096 C 
HETATM   11  C21         0      59.140   7.140  32.885  1.00  0.00     0.084 C 
ENDROOT
BRANCH  10  12
HETATM   12  O20         0      57.362   8.464  33.708  1.00  0.00    -0.359 OA
HETATM   13  H20         0      57.019   9.325  33.912  1.00  0.00     0.218 HD
ENDBRANCH  10  12
BRANCH   4  14
HETATM   14  C5          0      61.032   3.522  32.278  1.00  0.00     0.025 C 
HETATM   15  C6          0      61.388   2.782  31.160  1.00  0.00     0.004 C 
HETATM   16  C7          0      62.657   2.210  31.144  1.00  0.00     0.026 C 
HETATM   17  C8          0      63.493   2.257  32.254  1.00  0.00     0.112 C 
HETATM   18  C10         0      62.838   2.435  33.466  1.00  0.00     0.112 C 
HETATM   19  C12         0      61.610   3.085  33.463  1.00  0.00     0.028 C 
BRANCH  17  20
HETATM   20  O9          0      64.866   2.333  32.105  1.00  0.00    -0.357 OA
HETATM   21  H9          0      65.352   3.150  32.097  1.00  0.00     0.218 HD
ENDBRANCH  17  20
BRANCH  18  22
HETATM   22  O11         0      63.600   2.300  34.617  1.00  0.00    -0.357 OA
HETATM   23  H11         0      63.183   2.534  35.439  1.00  0.00     0.218 HD
ENDBRANCH  18  22
ENDBRANCH   4  14
BRANCH   8  24
HETATM   24  O17         0      61.774  10.037  33.861  1.00  0.00    -0.359 OA
HETATM   25  H17         0      61.549  10.879  34.238  1.00  0.00     0.218 HD
ENDBRANCH   8  24
TORSDOF 5
ENDMDL
