MODEL 1
REMARK VINA RESULT:      -0.0      0.000      0.000
REMARK  5 active torsions:
REMARK  status: ('A' for Active; 'I' for Inactive)
REMARK    1  A    between atoms: C4_4  and  C5_5 
REMARK    2  A    between atoms: C8_8  and  O9_9 
REMARK    3  A    between atoms: C10_11  and  O11_12 
REMARK    4  A    between atoms: C16_18  and  O17_19 
REMARK    5  A    between atoms: C19_22  and  O20_23 
ROOT
HETATM    1  O1          0      10.346  -3.684 -14.614  1.00  0.00    -0.286 OA
HETATM    2  C2          0      10.581  -2.598 -14.016  1.00  0.00     0.201 C 
HETATM    3  C3          0       9.864  -2.180 -12.908  1.00  0.00     0.067 C 
HETATM    4  C4          0      10.076  -0.933 -12.332  1.00  0.00     0.103 C 
HETATM    5  O13         0      11.000  -0.143 -12.849  1.00  0.00    -0.307 OA
HETATM    6  C14         0      11.683  -0.475 -13.923  1.00  0.00     0.107 C 
HETATM    7  C15         0      12.342   0.472 -14.692  1.00  0.00     0.049 C 
HETATM    8  C16         0      12.842   0.159 -15.950  1.00  0.00     0.093 C 
HETATM    9  C18         0      13.122  -1.187 -16.152  1.00  0.00     0.048 C 
HETATM   10  C19         0      12.516  -2.159 -15.369  1.00  0.00     0.096 C 
HETATM   11  C21         0      11.647  -1.789 -14.379  1.00  0.00     0.084 C 
ENDROOT
BRANCH  10  12
HETATM   12  O20         0      12.451  -3.467 -15.838  1.00  0.00    -0.359 OA
HETATM   13  H20         0      12.906  -4.140 -15.345  1.00  0.00     0.218 HD
ENDBRANCH  10  12
BRANCH   4  14
HETATM   14  C5          0       8.952  -0.327 -11.614  1.00  0.00     0.025 C 
HETATM   15  C6          0       8.805   1.044 -11.467  1.00  0.00     0.004 C 
HETATM   16  C7          0       7.519   1.567 -11.549  1.00  0.00     0.026 C 
HETATM   17  C8          0       6.401   0.745 -11.639  1.00  0.00     0.112 C 
HETATM   18  C10         0       6.587  -0.542 -11.150  1.00  0.00     0.112 C 
HETATM   19  C12         0       7.872  -1.072 -11.159  1.00  0.00     0.028 C 
BRANCH  17  20
HETATM   20  O9          0       5.286   1.140 -12.355  1.00  0.00    -0.357 OA
HETATM   21  H9          0       5.274   1.244 -13.299  1.00  0.00     0.218 HD
ENDBRANCH  17  20
BRANCH  18  22
HETATM   22  O11         0       5.459  -1.342 -11.041  1.00  0.00    -0.357 OA
HETATM   23  H11         0       5.556  -2.161 -10.569  1.00  0.00     0.218 HD
ENDBRANCH  18  22
ENDBRANCH   4  14
BRANCH   8  24
HETATM   24  O17         0      12.746   1.059 -17.018  1.00  0.00    -0.359 OA
HETATM   25  H17         0      13.010   0.819 -17.898  1.00  0.00     0.218 HD
ENDBRANCH   8  24
TORSDOF 5
ENDMDL
MODEL 2
REMARK VINA RESULT:      -0.0      7.870      9.503
REMARK  5 active torsions:
REMARK  status: ('A' for Active; 'I' for Inactive)
REMARK    1  A    between atoms: C4_4  and  C5_5 
REMARK    2  A    between atoms: C8_8  and  O9_9 
REMARK    3  A    between atoms: C10_11  and  O11_12 
REMARK    4  A    between atoms: C16_18  and  O17_19 
REMARK    5  A    between atoms: C19_22  and  O20_23 
ROOT
HETATM    1  O1          0      11.569  -2.613  -4.735  1.00  0.00    -0.286 OA
HETATM    2  C2          0      11.368  -3.365  -5.727  1.00  0.00     0.201 C 
HETATM    3  C3          0      10.694  -4.570  -5.631  1.00  0.00     0.067 C 
HETATM    4  C4          0      10.575  -5.428  -6.719  1.00  0.00     0.103 C 
HETATM    5  O13         0      11.105  -5.064  -7.874  1.00  0.00    -0.307 OA
HETATM    6  C14         0      11.787  -3.948  -8.010  1.00  0.00     0.107 C 
HETATM    7  C15         0      12.665  -3.752  -9.067  1.00  0.00     0.049 C 
HETATM    8  C16         0      13.564  -2.693  -9.071  1.00  0.00     0.093 C 
HETATM    9  C18         0      13.191  -1.603  -8.293  1.00  0.00     0.048 C 
HETATM   10  C19         0      12.279  -1.755  -7.257  1.00  0.00     0.096 C 
HETATM   11  C21         0      11.731  -2.984  -7.010  1.00  0.00     0.084 C 
ENDROOT
BRANCH  10  12
HETATM   12  O20         0      12.243  -0.807  -6.239  1.00  0.00    -0.359 OA
HETATM   13  H20         0      12.803  -0.943  -5.484  1.00  0.00     0.218 HD
ENDBRANCH  10  12
BRANCH   4  14
HETATM   14  C5          0      10.419  -6.855  -6.433  1.00  0.00     0.025 C 
HETATM   15  C6          0      10.819  -7.847  -7.317  1.00  0.00     0.004 C 
HETATM   16  C7          0      11.391  -8.996  -6.781  1.00  0.00     0.026 C 
HETATM   17  C8          0      11.443  -9.212  -5.408  1.00  0.00     0.112 C 
HETATM   18  C10         0      10.492  -8.515  -4.675  1.00  0.00     0.112 C 
HETATM   19  C12         0       9.999  -7.325  -5.196  1.00  0.00     0.028 C 
BRANCH  17  20
HETATM   20  O9          0      12.500  -9.900  -4.838  1.00  0.00    -0.357 OA
HETATM   21  H9          0      12.395 -10.669  -4.291  1.00  0.00     0.218 HD
ENDBRANCH  17  20
BRANCH  18  22
HETATM   22  O11         0      10.376  -8.836  -3.330  1.00  0.00    -0.357 OA
HETATM   23  H11         0      10.042  -9.701  -3.121  1.00  0.00     0.218 HD
ENDBRANCH  18  22
ENDBRANCH   4  14
BRANCH   8  24
HETATM   24  O17         0      14.874  -2.850  -9.536  1.00  0.00    -0.359 OA
HETATM   25  H17         0      15.080  -3.426 -10.263  1.00  0.00     0.218 HD
ENDBRANCH   8  24
TORSDOF 5
ENDMDL
MODEL 3
REMARK VINA RESULT:       0.0      7.541      9.727
REMARK  5 active torsions:
REMARK  status: ('A' for Active; 'I' for Inactive)
REMARK    1  A    between atoms: C4_4  and  C5_5 
REMARK    2  A    between atoms: C8_8  and  O9_9 
REMARK    3  A    between atoms: C10_11  and  O11_12 
REMARK    4  A    between atoms: C16_18  and  O17_19 
REMARK    5  A    between atoms: C19_22  and  O20_23 
ROOT
HETATM    1  O1          0       7.674  -0.843  -7.396  1.00  0.00    -0.286 OA
HETATM    2  C2          0       8.321  -0.305  -6.456  1.00  0.00     0.201 C 
HETATM    3  C3          0       8.622  -0.966  -5.277  1.00  0.00     0.067 C 
HETATM    4  C4          0       9.246  -0.318  -4.217  1.00  0.00     0.103 C 
HETATM    5  O13         0       9.574   0.954  -4.356  1.00  0.00    -0.307 OA
HETATM    6  C14         0       9.278   1.639  -5.439  1.00  0.00     0.107 C 
HETATM    7  C15         0       9.250   3.026  -5.442  1.00  0.00     0.049 C 
HETATM    8  C16         0       8.695   3.734  -6.502  1.00  0.00     0.093 C 
HETATM    9  C18         0       8.678   3.056  -7.715  1.00  0.00     0.048 C 
HETATM   10  C19         0       8.752   1.671  -7.750  1.00  0.00     0.096 C 
HETATM   11  C21         0       8.860   0.966  -6.582  1.00  0.00     0.084 C 
ENDROOT
BRANCH  10  12
HETATM   12  O20         0       8.305   0.994  -8.881  1.00  0.00    -0.359 OA
HETATM   13  H20         0       8.814   0.253  -9.187  1.00  0.00     0.218 HD
ENDBRANCH  10  12
BRANCH   4  14
HETATM   14  C5          0       8.993  -0.838  -2.872  1.00  0.00     0.025 C 
HETATM   15  C6          0       9.067  -0.049  -1.734  1.00  0.00     0.004 C 
HETATM   16  C7          0       8.131  -0.274  -0.730  1.00  0.00     0.026 C 
HETATM   17  C8          0       7.235  -1.336  -0.794  1.00  0.00     0.112 C 
HETATM   18  C10         0       7.643  -2.391  -1.599  1.00  0.00     0.112 C 
HETATM   19  C12         0       8.514  -2.123  -2.649  1.00  0.00     0.028 C 
BRANCH  17  20
HETATM   20  O9          0       5.963  -1.224  -0.261  1.00  0.00    -0.357 OA
HETATM   21  H9          0       5.279  -0.683  -0.637  1.00  0.00     0.218 HD
ENDBRANCH  17  20
BRANCH  18  22
HETATM   22  O11         0       6.882  -3.550  -1.550  1.00  0.00    -0.357 OA
HETATM   23  H11         0       7.099  -4.179  -0.872  1.00  0.00     0.218 HD
ENDBRANCH  18  22
ENDBRANCH   4  14
BRANCH   8  24
HETATM   24  O17         0       7.921   4.880  -6.288  1.00  0.00    -0.359 OA
HETATM   25  H17         0       7.000   4.824  -6.062  1.00  0.00     0.218 HD
ENDBRANCH   8  24
TORSDOF 5
ENDMDL
MODEL 4
REMARK VINA RESULT:       0.0      7.056      9.897
REMARK  5 active torsions:
REMARK  status: ('A' for Active; 'I' for Inactive)
REMARK    1  A    between atoms: C4_4  and  C5_5 
REMARK    2  A    between atoms: C8_8  and  O9_9 
REMARK    3  A    between atoms: C10_11  and  O11_12 
REMARK    4  A    between atoms: C16_18  and  O17_19 
REMARK    5  A    between atoms: C19_22  and  O20_23 
ROOT
HETATM    1  O1          0      10.084  -5.804  -9.384  1.00  0.00    -0.286 OA
HETATM    2  C2          0      10.684  -5.061  -8.560  1.00  0.00     0.201 C 
HETATM    3  C3          0      11.840  -4.369  -8.877  1.00  0.00     0.067 C 
HETATM    4  C4          0      12.538  -3.640  -7.920  1.00  0.00     0.103 C 
HETATM    5  O13         0      12.066  -3.596  -6.687  1.00  0.00    -0.307 OA
HETATM    6  C14         0      10.994  -4.265  -6.324  1.00  0.00     0.107 C 
HETATM    7  C15         0      10.725  -4.549  -4.993  1.00  0.00     0.049 C 
HETATM    8  C16         0       9.741  -5.464  -4.635  1.00  0.00     0.093 C 
HETATM    9  C18         0       8.738  -5.647  -5.579  1.00  0.00     0.048 C 
HETATM   10  C19         0       8.958  -5.328  -6.913  1.00  0.00     0.096 C 
HETATM   11  C21         0      10.166  -4.814  -7.298  1.00  0.00     0.084 C 
ENDROOT
BRANCH  10  12
HETATM   12  O20         0       8.151  -5.901  -7.891  1.00  0.00    -0.359 OA
HETATM   13  H20         0       7.447  -5.375  -8.252  1.00  0.00     0.218 HD
ENDBRANCH  10  12
BRANCH   4  14
HETATM   14  C5          0      13.975  -3.460  -8.132  1.00  0.00     0.025 C 
HETATM   15  C6          0      14.870  -3.262  -7.090  1.00  0.00     0.004 C 
HETATM   16  C7          0      16.117  -3.871  -7.187  1.00  0.00     0.026 C 
HETATM   17  C8          0      16.513  -4.543  -8.338  1.00  0.00     0.112 C 
HETATM   18  C10         0      15.851  -4.153  -9.494  1.00  0.00     0.112 C 
HETATM   19  C12         0      14.571  -3.625  -9.376  1.00  0.00     0.028 C 
BRANCH  17  20
HETATM   20  O9          0      17.343  -5.647  -8.264  1.00  0.00    -0.357 OA
HETATM   21  H9          0      17.494  -6.245  -8.987  1.00  0.00     0.218 HD
ENDBRANCH  17  20
BRANCH  18  22
HETATM   22  O11         0      16.336  -4.652 -10.695  1.00  0.00    -0.357 OA
HETATM   23  H11         0      17.206  -4.374 -10.956  1.00  0.00     0.218 HD
ENDBRANCH  18  22
ENDBRANCH   4  14
BRANCH   8  24
HETATM   24  O17         0       9.931  -6.362  -3.579  1.00  0.00    -0.359 OA
HETATM   25  H17         0      10.798  -6.582  -3.261  1.00  0.00     0.218 HD
ENDBRANCH   8  24
TORSDOF 5
ENDMDL
MODEL 5
REMARK VINA RESULT:       0.0      9.404     11.689
REMARK  5 active torsions:
REMARK  status: ('A' for Active; 'I' for Inactive)
REMARK    1  A    between atoms: C4_4  and  C5_5 
REMARK    2  A    between atoms: C8_8  and  O9_9 
REMARK    3  A    between atoms: C10_11  and  O11_12 
REMARK    4  A    between atoms: C16_18  and  O17_19 
REMARK    5  A    between atoms: C19_22  and  O20_23 
ROOT
HETATM    1  O1          0      12.227  -7.563  -8.973  1.00  0.00    -0.286 OA
HETATM    2  C2          0      12.448  -6.899  -7.923  1.00  0.00     0.201 C 
HETATM    3  C3          0      13.561  -6.090  -7.767  1.00  0.00     0.067 C 
HETATM    4  C4          0      13.833  -5.450  -6.563  1.00  0.00     0.103 C 
HETATM    5  O13         0      12.992  -5.607  -5.556  1.00  0.00    -0.307 OA
HETATM    6  C14         0      11.941  -6.393  -5.640  1.00  0.00     0.107 C 
HETATM    7  C15         0      11.296  -6.874  -4.509  1.00  0.00     0.049 C 
HETATM    8  C16         0      10.358  -7.895  -4.593  1.00  0.00     0.093 C 
HETATM    9  C18         0       9.733  -8.018  -5.828  1.00  0.00     0.048 C 
HETATM   10  C19         0      10.328  -7.507  -6.973  1.00  0.00     0.096 C 
HETATM   11  C21         0      11.531  -6.862  -6.883  1.00  0.00     0.084 C 
ENDROOT
BRANCH  10  12
HETATM   12  O20         0       9.943  -7.998  -8.217  1.00  0.00    -0.359 OA
HETATM   13  H20         0       9.337  -7.479  -8.732  1.00  0.00     0.218 HD
ENDBRANCH  10  12
BRANCH   4  14
HETATM   14  C5          0      15.234  -5.142  -6.270  1.00  0.00     0.025 C 
HETATM   15  C6          0      15.723  -5.025  -4.977  1.00  0.00     0.004 C 
HETATM   16  C7          0      16.996  -5.526  -4.722  1.00  0.00     0.026 C 
HETATM   17  C8          0      17.809  -6.006  -5.742  1.00  0.00     0.112 C 
HETATM   18  C10         0      17.510  -5.510  -7.004  1.00  0.00     0.112 C 
HETATM   19  C12         0      16.208  -5.095  -7.259  1.00  0.00     0.028 C 
BRANCH  17  20
HETATM   20  O9          0      18.690  -7.049  -5.516  1.00  0.00    -0.357 OA
HETATM   21  H9          0      19.300  -7.076  -4.788  1.00  0.00     0.218 HD
ENDBRANCH  17  20
BRANCH  18  22
HETATM   22  O11         0      18.403  -5.806  -8.024  1.00  0.00    -0.357 OA
HETATM   23  H11         0      19.275  -5.435  -7.954  1.00  0.00     0.218 HD
ENDBRANCH  18  22
ENDBRANCH   4  14
BRANCH   8  24
HETATM   24  O17         0      10.300  -8.912  -3.634  1.00  0.00    -0.359 OA
HETATM   25  H17         0       9.735  -9.668  -3.742  1.00  0.00     0.218 HD
ENDBRANCH   8  24
TORSDOF 5
ENDMDL
MODEL 6
REMARK VINA RESULT:       0.0      3.932      5.135
REMARK  5 active torsions:
REMARK  status: ('A' for Active; 'I' for Inactive)
REMARK    1  A    between atoms: C4_4  and  C5_5 
REMARK    2  A    between atoms: C8_8  and  O9_9 
REMARK    3  A    between atoms: C10_11  and  O11_12 
REMARK    4  A    between atoms: C16_18  and  O17_19 
REMARK    5  A    between atoms: C19_22  and  O20_23 
ROOT
HETATM    1  O1          0       7.746  -0.458 -12.473  1.00  0.00    -0.286 OA
HETATM    2  C2          0       8.618   0.385 -12.818  1.00  0.00     0.201 C 
HETATM    3  C3          0       9.652   0.779 -11.985  1.00  0.00     0.067 C 
HETATM    4  C4          0      10.539   1.785 -12.351  1.00  0.00     0.103 C 
HETATM    5  O13         0      10.396   2.359 -13.532  1.00  0.00    -0.307 OA
HETATM    6  C14         0       9.410   2.049 -14.346  1.00  0.00     0.107 C 
HETATM    7  C15         0       9.018   2.893 -15.374  1.00  0.00     0.049 C 
HETATM    8  C16         0       7.829   2.688 -16.063  1.00  0.00     0.093 C 
HETATM    9  C18         0       7.361   1.379 -16.050  1.00  0.00     0.048 C 
HETATM   10  C19         0       7.770   0.494 -15.061  1.00  0.00     0.096 C 
HETATM   11  C21         0       8.653   0.908 -14.102  1.00  0.00     0.084 C 
ENDROOT
BRANCH  10  12
HETATM   12  O20         0       6.996  -0.631 -14.794  1.00  0.00    -0.359 OA
HETATM   13  H20         0       6.583  -0.695 -13.942  1.00  0.00     0.218 HD
ENDBRANCH  10  12
BRANCH   4  14
HETATM   14  C5          0      11.173   2.544 -11.271  1.00  0.00     0.025 C 
HETATM   15  C6          0      11.618   3.848 -11.429  1.00  0.00     0.004 C 
HETATM   16  C7          0      11.441   4.723 -10.362  1.00  0.00     0.026 C 
HETATM   17  C8          0      10.962   4.286  -9.131  1.00  0.00     0.112 C 
HETATM   18  C10         0      11.153   2.933  -8.883  1.00  0.00     0.112 C 
HETATM   19  C12         0      11.241   2.068  -9.968  1.00  0.00     0.028 C 
BRANCH  17  20
HETATM   20  O9          0      10.179   5.109  -8.342  1.00  0.00    -0.357 OA
HETATM   21  H9          0      10.007   6.022  -8.540  1.00  0.00     0.218 HD
ENDBRANCH  17  20
BRANCH  18  22
HETATM   22  O11         0      10.867   2.483  -7.602  1.00  0.00    -0.357 OA
HETATM   23  H11         0      11.587   2.108  -7.107  1.00  0.00     0.218 HD
ENDBRANCH  18  22
ENDBRANCH   4  14
BRANCH   8  24
HETATM   24  O17         0       7.009   3.758 -16.438  1.00  0.00    -0.359 OA
HETATM   25  H17         0       6.229   3.629 -16.964  1.00  0.00     0.218 HD
ENDBRANCH   8  24
TORSDOF 5
ENDMDL
MODEL 7
REMARK VINA RESULT:       0.0      4.957      7.967
REMARK  5 active torsions:
REMARK  status: ('A' for Active; 'I' for Inactive)
REMARK    1  A    between atoms: C4_4  and  C5_5 
REMARK    2  A    between atoms: C8_8  and  O9_9 
REMARK    3  A    between atoms: C10_11  and  O11_12 
REMARK    4  A    between atoms: C16_18  and  O17_19 
REMARK    5  A    between atoms: C19_22  and  O20_23 
ROOT
HETATM    1  O1          0      10.147   2.209  -6.474  1.00  0.00    -0.286 OA
HETATM    2  C2          0      10.728   1.658  -7.449  1.00  0.00     0.201 C 
HETATM    3  C3          0      12.044   1.924  -7.786  1.00  0.00     0.067 C 
HETATM    4  C4          0      12.628   1.382  -8.926  1.00  0.00     0.103 C 
HETATM    5  O13         0      11.907   0.579  -9.688  1.00  0.00    -0.307 OA
HETATM    6  C14         0      10.643   0.323  -9.434  1.00  0.00     0.107 C 
HETATM    7  C15         0       9.787  -0.171 -10.408  1.00  0.00     0.049 C 
HETATM    8  C16         0       8.411  -0.199 -10.213  1.00  0.00     0.093 C 
HETATM    9  C18         0       8.007  -0.226  -8.884  1.00  0.00     0.048 C 
HETATM   10  C19         0       8.856   0.217  -7.879  1.00  0.00     0.096 C 
HETATM   11  C21         0      10.107   0.670  -8.198  1.00  0.00     0.084 C 
ENDROOT
BRANCH  10  12
HETATM   12  O20         0       8.319   0.595  -6.652  1.00  0.00    -0.359 OA
HETATM   13  H20         0       7.855   1.422  -6.605  1.00  0.00     0.218 HD
ENDBRANCH  10  12
BRANCH   4  14
HETATM   14  C5          0      13.729   2.131  -9.535  1.00  0.00     0.025 C 
HETATM   15  C6          0      14.040   2.047 -10.884  1.00  0.00     0.004 C 
HETATM   16  C7          0      14.437   3.215 -11.528  1.00  0.00     0.026 C 
HETATM   17  C8          0      14.649   4.398 -10.828  1.00  0.00     0.112 C 
HETATM   18  C10         0      14.930   4.231  -9.479  1.00  0.00     0.112 C 
HETATM   19  C12         0      14.448   3.095  -8.839  1.00  0.00     0.028 C 
BRANCH  17  20
HETATM   20  O9          0      14.382   5.624 -11.412  1.00  0.00    -0.357 OA
HETATM   21  H9          0      14.571   5.828 -12.320  1.00  0.00     0.218 HD
ENDBRANCH  17  20
BRANCH  18  22
HETATM   22  O11         0      15.334   5.358  -8.777  1.00  0.00    -0.357 OA
HETATM   23  H11         0      15.621   6.104  -9.290  1.00  0.00     0.218 HD
ENDBRANCH  18  22
ENDBRANCH   4  14
BRANCH   8  24
HETATM   24  O17         0       7.522   0.117 -11.247  1.00  0.00    -0.359 OA
HETATM   25  H17         0       7.220   1.006 -11.390  1.00  0.00     0.218 HD
ENDBRANCH   8  24
TORSDOF 5
ENDMDL
MODEL 8
REMARK VINA RESULT:       0.0      7.161     10.072
REMARK  5 active torsions:
REMARK  status: ('A' for Active; 'I' for Inactive)
REMARK    1  A    between atoms: C4_4  and  C5_5 
REMARK    2  A    between atoms: C8_8  and  O9_9 
REMARK    3  A    between atoms: C10_11  and  O11_12 
REMARK    4  A    between atoms: C16_18  and  O17_19 
REMARK    5  A    between atoms: C19_22  and  O20_23 
ROOT
HETATM    1  O1          0       3.701   2.793  -5.140  1.00  0.00    -0.286 OA
HETATM    2  C2          0       3.742   1.935  -6.064  1.00  0.00     0.201 C 
HETATM    3  C3          0       2.727   1.019  -6.283  1.00  0.00     0.067 C 
HETATM    4  C4          0       2.842   0.019  -7.241  1.00  0.00     0.103 C 
HETATM    5  O13         0       3.943  -0.039  -7.969  1.00  0.00    -0.307 OA
HETATM    6  C14         0       4.952   0.781  -7.776  1.00  0.00     0.107 C 
HETATM    7  C15         0       6.229   0.490  -8.234  1.00  0.00     0.049 C 
HETATM    8  C16         0       7.332   1.224  -7.813  1.00  0.00     0.093 C 
HETATM    9  C18         0       7.048   2.515  -7.384  1.00  0.00     0.048 C 
HETATM   10  C19         0       5.769   2.853  -6.964  1.00  0.00     0.096 C 
HETATM   11  C21         0       4.776   1.913  -6.988  1.00  0.00     0.084 C 
ENDROOT
BRANCH  10  12
HETATM   12  O20         0       5.594   3.967  -6.149  1.00  0.00    -0.359 OA
HETATM   13  H20         0       4.715   4.167  -5.851  1.00  0.00     0.218 HD
ENDBRANCH  10  12
BRANCH   4  14
HETATM   14  C5          0       2.077  -1.210  -7.021  1.00  0.00     0.025 C 
HETATM   15  C6          0       2.466  -2.440  -7.531  1.00  0.00     0.004 C 
HETATM   16  C7          0       2.269  -3.561  -6.732  1.00  0.00     0.026 C 
HETATM   17  C8          0       1.587  -3.484  -5.522  1.00  0.00     0.112 C 
HETATM   18  C10         0       0.719  -2.405  -5.415  1.00  0.00     0.112 C 
HETATM   19  C12         0       0.987  -1.265  -6.162  1.00  0.00     0.028 C 
BRANCH  17  20
HETATM   20  O9          0       1.928  -4.304  -4.462  1.00  0.00    -0.357 OA
HETATM   21  H9          0       2.512  -5.050  -4.538  1.00  0.00     0.218 HD
ENDBRANCH  17  20
BRANCH  18  22
HETATM   22  O11         0      -0.124  -2.385  -4.312  1.00  0.00    -0.357 OA
HETATM   23  H11         0      -0.247  -1.547  -3.881  1.00  0.00     0.218 HD
ENDBRANCH  18  22
ENDBRANCH   4  14
BRANCH   8  24
HETATM   24  O17         0       8.554   0.605  -7.528  1.00  0.00    -0.359 OA
HETATM   25  H17         0       8.614  -0.127  -6.926  1.00  0.00     0.218 HD
ENDBRANCH   8  24
TORSDOF 5
ENDMDL
MODEL 9
REMARK VINA RESULT:       0.0      7.850      9.459
REMARK  5 active torsions:
REMARK  status: ('A' for Active; 'I' for Inactive)
REMARK    1  A    between atoms: C4_4  and  C5_5 
REMARK    2  A    between atoms: C8_8  and  O9_9 
REMARK    3  A    between atoms: C10_11  and  O11_12 
REMARK    4  A    between atoms: C16_18  and  O17_19 
REMARK    5  A    between atoms: C19_22  and  O20_23 
ROOT
HETATM    1  O1          0       9.202  -6.294  -8.750  1.00  0.00    -0.286 OA
HETATM    2  C2          0       8.022  -6.486  -8.347  1.00  0.00     0.201 C 
HETATM    3  C3          0       6.951  -6.644  -9.209  1.00  0.00     0.067 C 
HETATM    4  C4          0       5.647  -6.753  -8.739  1.00  0.00     0.103 C 
HETATM    5  O13         0       5.438  -6.723  -7.435  1.00  0.00    -0.307 OA
HETATM    6  C14         0       6.415  -6.537  -6.574  1.00  0.00     0.107 C 
HETATM    7  C15         0       6.174  -6.111  -5.276  1.00  0.00     0.049 C 
HETATM    8  C16         0       7.208  -5.674  -4.457  1.00  0.00     0.093 C 
HETATM    9  C18         0       8.464  -6.173  -4.780  1.00  0.00     0.048 C 
HETATM   10  C19         0       8.726  -6.651  -6.057  1.00  0.00     0.096 C 
HETATM   11  C21         0       7.734  -6.647  -7.000  1.00  0.00     0.084 C 
ENDROOT
BRANCH  10  12
HETATM   12  O20         0      10.044  -6.732  -6.497  1.00  0.00    -0.359 OA
HETATM   13  H20         0      10.460  -5.936  -6.805  1.00  0.00     0.218 HD
ENDBRANCH  10  12
BRANCH   4  14
HETATM   14  C5          0       4.574  -6.318  -9.635  1.00  0.00     0.025 C 
HETATM   15  C6          0       3.349  -5.858  -9.173  1.00  0.00     0.004 C 
HETATM   16  C7          0       2.760  -4.798  -9.855  1.00  0.00     0.026 C 
HETATM   17  C8          0       3.301  -4.298 -11.034  1.00  0.00     0.112 C 
HETATM   18  C10         0       4.110  -5.190 -11.725  1.00  0.00     0.112 C 
HETATM   19  C12         0       4.755  -6.190 -11.006  1.00  0.00     0.028 C 
BRANCH  17  20
HETATM   20  O9          0       3.196  -2.954 -11.348  1.00  0.00    -0.357 OA
HETATM   21  H9          0       3.866  -2.467 -11.814  1.00  0.00     0.218 HD
ENDBRANCH  17  20
BRANCH  18  22
HETATM   22  O11         0       4.521  -4.812 -12.995  1.00  0.00    -0.357 OA
HETATM   23  H11         0       4.568  -3.879 -13.172  1.00  0.00     0.218 HD
ENDBRANCH  18  22
ENDBRANCH   4  14
BRANCH   8  24
HETATM   24  O17         0       7.050  -4.573  -3.607  1.00  0.00    -0.359 OA
HETATM   25  H17         0       6.281  -4.472  -3.059  1.00  0.00     0.218 HD
ENDBRANCH   8  24
TORSDOF 5
ENDMDL
