MODEL 1
REMARK VINA RESULT:      -7.1      0.000      0.000
REMARK  5 active torsions:
REMARK  status: ('A' for Active; 'I' for Inactive)
REMARK    1  A    between atoms: C4_4  and  C5_5 
REMARK    2  A    between atoms: C8_8  and  O9_9 
REMARK    3  A    between atoms: C10_11  and  O11_12 
REMARK    4  A    between atoms: C16_18  and  O17_19 
REMARK    5  A    between atoms: C19_22  and  O20_23 
ROOT
HETATM    1  O1          0      61.539  54.903  19.967  1.00  0.00    -0.286 OA
HETATM    2  C2          0      62.410  55.514  19.289  1.00  0.00     0.201 C 
HETATM    3  C3          0      63.570  54.908  18.837  1.00  0.00     0.067 C 
HETATM    4  C4          0      64.561  55.629  18.181  1.00  0.00     0.103 C 
HETATM    5  O13         0      64.373  56.920  17.971  1.00  0.00    -0.307 OA
HETATM    6  C14         0      63.308  57.552  18.413  1.00  0.00     0.107 C 
HETATM    7  C15         0      63.283  58.932  18.555  1.00  0.00     0.049 C 
HETATM    8  C16         0      62.263  59.567  19.253  1.00  0.00     0.093 C 
HETATM    9  C18         0      61.068  58.862  19.317  1.00  0.00     0.048 C 
HETATM   10  C19         0      61.050  57.486  19.133  1.00  0.00     0.096 C 
HETATM   11  C21         0      62.216  56.821  18.869  1.00  0.00     0.084 C 
ENDROOT
BRANCH  10  12
HETATM   12  O20         0      59.974  56.748  19.617  1.00  0.00    -0.359 OA
HETATM   13  H20         0      59.125  57.172  19.654  1.00  0.00     0.218 HD
ENDBRANCH  10  12
BRANCH   4  14
HETATM   14  C5          0      65.932  55.123  18.276  1.00  0.00     0.025 C 
HETATM   15  C6          0      66.432  54.516  19.418  1.00  0.00     0.004 C 
HETATM   16  C7          0      67.286  53.430  19.250  1.00  0.00     0.026 C 
HETATM   17  C8          0      67.735  53.043  17.992  1.00  0.00     0.112 C 
HETATM   18  C10         0      67.707  54.047  17.033  1.00  0.00     0.112 C 
HETATM   19  C12         0      66.785  55.076  17.181  1.00  0.00     0.028 C 
BRANCH  17  20
HETATM   20  O9          0      67.978  51.712  17.705  1.00  0.00    -0.357 OA
HETATM   21  H9          0      67.466  50.994  18.059  1.00  0.00     0.218 HD
ENDBRANCH  17  20
BRANCH  18  22
HETATM   22  O11         0      68.317  53.771  15.817  1.00  0.00    -0.357 OA
HETATM   23  H11         0      68.429  52.855  15.590  1.00  0.00     0.218 HD
ENDBRANCH  18  22
ENDBRANCH   4  14
BRANCH   8  24
HETATM   24  O17         0      62.523  60.652  20.098  1.00  0.00    -0.359 OA
HETATM   25  H17         0      62.507  61.547  19.780  1.00  0.00     0.218 HD
ENDBRANCH   8  24
TORSDOF 5
ENDMDL
MODEL 2
REMARK VINA RESULT:      -6.9      1.629      2.014
REMARK  5 active torsions:
REMARK  status: ('A' for Active; 'I' for Inactive)
REMARK    1  A    between atoms: C4_4  and  C5_5 
REMARK    2  A    between atoms: C8_8  and  O9_9 
REMARK    3  A    between atoms: C10_11  and  O11_12 
REMARK    4  A    between atoms: C16_18  and  O17_19 
REMARK    5  A    between atoms: C19_22  and  O20_23 
ROOT
HETATM    1  O1          0      61.328  55.150  19.613  1.00  0.00    -0.286 OA
HETATM    2  C2          0      62.172  55.973  19.163  1.00  0.00     0.201 C 
HETATM    3  C3          0      63.386  55.584  18.622  1.00  0.00     0.067 C 
HETATM    4  C4          0      64.340  56.515  18.228  1.00  0.00     0.103 C 
HETATM    5  O13         0      64.063  57.801  18.357  1.00  0.00    -0.307 OA
HETATM    6  C14         0      62.942  58.224  18.898  1.00  0.00     0.107 C 
HETATM    7  C15         0      62.812  59.512  19.398  1.00  0.00     0.049 C 
HETATM    8  C16         0      61.728  59.872  20.189  1.00  0.00     0.093 C 
HETATM    9  C18         0      60.586  59.101  20.008  1.00  0.00     0.048 C 
HETATM   10  C19         0      60.675  57.826  19.467  1.00  0.00     0.096 C 
HETATM   11  C21         0      61.894  57.330  19.093  1.00  0.00     0.084 C 
ENDROOT
BRANCH  10  12
HETATM   12  O20         0      59.643  56.919  19.688  1.00  0.00    -0.359 OA
HETATM   13  H20         0      59.862  55.997  19.733  1.00  0.00     0.218 HD
ENDBRANCH  10  12
BRANCH   4  14
HETATM   14  C5          0      65.740  56.090  18.251  1.00  0.00     0.025 C 
HETATM   15  C6          0      66.799  56.986  18.235  1.00  0.00     0.004 C 
HETATM   16  C7          0      67.911  56.684  19.015  1.00  0.00     0.026 C 
HETATM   17  C8          0      68.026  55.469  19.682  1.00  0.00     0.112 C 
HETATM   18  C10         0      67.267  54.438  19.144  1.00  0.00     0.112 C 
HETATM   19  C12         0      66.113  54.765  18.441  1.00  0.00     0.028 C 
BRANCH  17  20
HETATM   20  O9          0      68.680  55.387  20.898  1.00  0.00    -0.357 OA
HETATM   21  H9          0      68.942  54.568  21.303  1.00  0.00     0.218 HD
ENDBRANCH  17  20
BRANCH  18  22
HETATM   22  O11         0      67.486  53.166  19.651  1.00  0.00    -0.357 OA
HETATM   23  H11         0      66.892  52.864  20.328  1.00  0.00     0.218 HD
ENDBRANCH  18  22
ENDBRANCH   4  14
BRANCH   8  24
HETATM   24  O17         0      61.883  60.707  21.302  1.00  0.00    -0.359 OA
HETATM   25  H17         0      61.836  60.370  22.189  1.00  0.00     0.218 HD
ENDBRANCH   8  24
TORSDOF 5
ENDMDL
MODEL 3
REMARK VINA RESULT:      -6.9      2.455      3.605
REMARK  5 active torsions:
REMARK  status: ('A' for Active; 'I' for Inactive)
REMARK    1  A    between atoms: C4_4  and  C5_5 
REMARK    2  A    between atoms: C8_8  and  O9_9 
REMARK    3  A    between atoms: C10_11  and  O11_12 
REMARK    4  A    between atoms: C16_18  and  O17_19 
REMARK    5  A    between atoms: C19_22  and  O20_23 
ROOT
HETATM    1  O1          0      62.397  59.851  18.155  1.00  0.00    -0.286 OA
HETATM    2  C2          0      62.484  58.593  18.161  1.00  0.00     0.201 C 
HETATM    3  C3          0      63.621  57.921  18.578  1.00  0.00     0.067 C 
HETATM    4  C4          0      63.728  56.539  18.479  1.00  0.00     0.103 C 
HETATM    5  O13         0      62.707  55.857  17.991  1.00  0.00    -0.307 OA
HETATM    6  C14         0      61.620  56.448  17.545  1.00  0.00     0.107 C 
HETATM    7  C15         0      60.739  55.806  16.687  1.00  0.00     0.049 C 
HETATM    8  C16         0      59.740  56.508  16.022  1.00  0.00     0.093 C 
HETATM    9  C18         0      59.342  57.688  16.638  1.00  0.00     0.048 C 
HETATM   10  C19         0      60.180  58.331  17.539  1.00  0.00     0.096 C 
HETATM   11  C21         0      61.402  57.790  17.835  1.00  0.00     0.084 C 
ENDROOT
BRANCH  10  12
HETATM   12  O20         0      59.984  59.683  17.805  1.00  0.00    -0.359 OA
HETATM   13  H20         0      60.701  60.280  17.632  1.00  0.00     0.218 HD
ENDBRANCH  10  12
BRANCH   4  14
HETATM   14  C5          0      65.075  55.979  18.352  1.00  0.00     0.025 C 
HETATM   15  C6          0      66.172  56.738  17.973  1.00  0.00     0.004 C 
HETATM   16  C7          0      67.386  56.474  18.599  1.00  0.00     0.026 C 
HETATM   17  C8          0      67.538  55.404  19.474  1.00  0.00     0.112 C 
HETATM   18  C10         0      66.621  54.376  19.297  1.00  0.00     0.112 C 
HETATM   19  C12         0      65.383  54.683  18.747  1.00  0.00     0.028 C 
BRANCH  17  20
HETATM   20  O9          0      68.401  55.487  20.552  1.00  0.00    -0.357 OA
HETATM   21  H9          0      68.113  55.570  21.454  1.00  0.00     0.218 HD
ENDBRANCH  17  20
BRANCH  18  22
HETATM   22  O11         0      66.842  53.207  20.012  1.00  0.00    -0.357 OA
HETATM   23  H11         0      67.404  53.270  20.776  1.00  0.00     0.218 HD
ENDBRANCH  18  22
ENDBRANCH   4  14
BRANCH   8  24
HETATM   24  O17         0      59.414  56.227  14.691  1.00  0.00    -0.359 OA
HETATM   25  H17         0      59.362  55.335  14.367  1.00  0.00     0.218 HD
ENDBRANCH   8  24
TORSDOF 5
ENDMDL
MODEL 4
REMARK VINA RESULT:      -6.8      1.628      2.852
REMARK  5 active torsions:
REMARK  status: ('A' for Active; 'I' for Inactive)
REMARK    1  A    between atoms: C4_4  and  C5_5 
REMARK    2  A    between atoms: C8_8  and  O9_9 
REMARK    3  A    between atoms: C10_11  and  O11_12 
REMARK    4  A    between atoms: C16_18  and  O17_19 
REMARK    5  A    between atoms: C19_22  and  O20_23 
ROOT
HETATM    1  O1          0      64.902  59.329  17.910  1.00  0.00    -0.286 OA
HETATM    2  C2          0      64.662  58.107  18.112  1.00  0.00     0.201 C 
HETATM    3  C3          0      65.661  57.161  18.264  1.00  0.00     0.067 C 
HETATM    4  C4          0      65.370  55.807  18.383  1.00  0.00     0.103 C 
HETATM    5  O13         0      64.105  55.426  18.370  1.00  0.00    -0.307 OA
HETATM    6  C14         0      63.120  56.279  18.191  1.00  0.00     0.107 C 
HETATM    7  C15         0      61.860  55.865  17.782  1.00  0.00     0.049 C 
HETATM    8  C16         0      60.906  56.779  17.351  1.00  0.00     0.093 C 
HETATM    9  C18         0      61.065  58.069  17.840  1.00  0.00     0.048 C 
HETATM   10  C19         0      62.301  58.501  18.302  1.00  0.00     0.096 C 
HETATM   11  C21         0      63.367  57.643  18.291  1.00  0.00     0.084 C 
ENDROOT
BRANCH  10  12
HETATM   12  O20         0      62.563  59.866  18.372  1.00  0.00    -0.359 OA
HETATM   13  H20         0      61.943  60.414  18.838  1.00  0.00     0.218 HD
ENDBRANCH  10  12
BRANCH   4  14
HETATM   14  C5          0      66.395  54.860  17.942  1.00  0.00     0.025 C 
HETATM   15  C6          0      66.561  53.608  18.517  1.00  0.00     0.004 C 
HETATM   16  C7          0      66.881  52.548  17.675  1.00  0.00     0.026 C 
HETATM   17  C8          0      67.159  52.747  16.327  1.00  0.00     0.112 C 
HETATM   18  C10         0      67.584  54.029  16.005  1.00  0.00     0.112 C 
HETATM   19  C12         0      67.179  55.082  16.816  1.00  0.00     0.028 C 
BRANCH  17  20
HETATM   20  O9          0      66.825  51.789  15.385  1.00  0.00    -0.357 OA
HETATM   21  H9          0      67.186  51.763  14.507  1.00  0.00     0.218 HD
ENDBRANCH  17  20
BRANCH  18  22
HETATM   22  O11         0      68.053  54.230  14.715  1.00  0.00    -0.357 OA
HETATM   23  H11         0      68.479  55.061  14.536  1.00  0.00     0.218 HD
ENDBRANCH  18  22
ENDBRANCH   4  14
BRANCH   8  24
HETATM   24  O17         0      60.072  56.503  16.261  1.00  0.00    -0.359 OA
HETATM   25  H17         0      59.774  55.621  16.071  1.00  0.00     0.218 HD
ENDBRANCH   8  24
TORSDOF 5
ENDMDL
MODEL 5
REMARK VINA RESULT:      -6.7      2.233      6.952
REMARK  5 active torsions:
REMARK  status: ('A' for Active; 'I' for Inactive)
REMARK    1  A    between atoms: C4_4  and  C5_5 
REMARK    2  A    between atoms: C8_8  and  O9_9 
REMARK    3  A    between atoms: C10_11  and  O11_12 
REMARK    4  A    between atoms: C16_18  and  O17_19 
REMARK    5  A    between atoms: C19_22  and  O20_23 
ROOT
HETATM    1  O1          0      66.991  58.953  18.803  1.00  0.00    -0.286 OA
HETATM    2  C2          0      66.013  58.199  18.545  1.00  0.00     0.201 C 
HETATM    3  C3          0      64.764  58.684  18.196  1.00  0.00     0.067 C 
HETATM    4  C4          0      63.677  57.836  18.018  1.00  0.00     0.103 C 
HETATM    5  O13         0      63.855  56.535  18.168  1.00  0.00    -0.307 OA
HETATM    6  C14         0      65.011  56.026  18.535  1.00  0.00     0.107 C 
HETATM    7  C15         0      65.110  54.751  19.075  1.00  0.00     0.049 C 
HETATM    8  C16         0      66.277  54.317  19.691  1.00  0.00     0.093 C 
HETATM    9  C18         0      67.435  54.967  19.280  1.00  0.00     0.048 C 
HETATM   10  C19         0      67.368  56.223  18.693  1.00  0.00     0.096 C 
HETATM   11  C21         0      66.152  56.820  18.504  1.00  0.00     0.084 C 
ENDROOT
BRANCH  10  12
HETATM   12  O20         0      68.500  57.033  18.689  1.00  0.00    -0.359 OA
HETATM   13  H20         0      68.442  57.877  18.259  1.00  0.00     0.218 HD
ENDBRANCH  10  12
BRANCH   4  14
HETATM   14  C5          0      62.345  58.396  18.253  1.00  0.00     0.025 C 
HETATM   15  C6          0      61.754  59.314  17.397  1.00  0.00     0.004 C 
HETATM   16  C7          0      60.386  59.198  17.171  1.00  0.00     0.026 C 
HETATM   17  C8          0      59.606  58.285  17.873  1.00  0.00     0.112 C 
HETATM   18  C10         0      60.133  57.891  19.096  1.00  0.00     0.112 C 
HETATM   19  C12         0      61.512  57.937  19.266  1.00  0.00     0.028 C 
BRANCH  17  20
HETATM   20  O9          0      58.512  57.682  17.278  1.00  0.00    -0.357 OA
HETATM   21  H9          0      58.411  56.741  17.190  1.00  0.00     0.218 HD
ENDBRANCH  17  20
BRANCH  18  22
HETATM   22  O11         0      59.313  57.133  19.919  1.00  0.00    -0.357 OA
HETATM   23  H11         0      58.607  56.655  19.500  1.00  0.00     0.218 HD
ENDBRANCH  18  22
ENDBRANCH   4  14
BRANCH   8  24
HETATM   24  O17         0      66.242  53.544  20.857  1.00  0.00    -0.359 OA
HETATM   25  H17         0      65.811  52.698  20.882  1.00  0.00     0.218 HD
ENDBRANCH   8  24
TORSDOF 5
ENDMDL
MODEL 6
REMARK VINA RESULT:      -6.5      2.346      6.894
REMARK  5 active torsions:
REMARK  status: ('A' for Active; 'I' for Inactive)
REMARK    1  A    between atoms: C4_4  and  C5_5 
REMARK    2  A    between atoms: C8_8  and  O9_9 
REMARK    3  A    between atoms: C10_11  and  O11_12 
REMARK    4  A    between atoms: C16_18  and  O17_19 
REMARK    5  A    between atoms: C19_22  and  O20_23 
ROOT
HETATM    1  O1          0      65.676  59.236  19.171  1.00  0.00    -0.286 OA
HETATM    2  C2          0      65.030  58.241  18.743  1.00  0.00     0.201 C 
HETATM    3  C3          0      63.712  58.323  18.328  1.00  0.00     0.067 C 
HETATM    4  C4          0      62.992  57.193  17.958  1.00  0.00     0.103 C 
HETATM    5  O13         0      63.597  56.018  17.987  1.00  0.00    -0.307 OA
HETATM    6  C14         0      64.834  55.879  18.408  1.00  0.00     0.107 C 
HETATM    7  C15         0      65.333  54.651  18.818  1.00  0.00     0.049 C 
HETATM    8  C16         0      66.543  54.553  19.496  1.00  0.00     0.093 C 
HETATM    9  C18         0      67.429  55.599  19.268  1.00  0.00     0.048 C 
HETATM   10  C19         0      66.969  56.827  18.813  1.00  0.00     0.096 C 
HETATM   11  C21         0      65.635  57.005  18.570  1.00  0.00     0.084 C 
ENDROOT
BRANCH  10  12
HETATM   12  O20         0      67.755  57.960  19.002  1.00  0.00    -0.359 OA
HETATM   13  H20         0      68.659  57.836  19.264  1.00  0.00     0.218 HD
ENDBRANCH  10  12
BRANCH   4  14
HETATM   14  C5          0      61.538  57.242  18.120  1.00  0.00     0.025 C 
HETATM   15  C6          0      60.920  57.923  19.158  1.00  0.00     0.004 C 
HETATM   16  C7          0      59.739  58.601  18.872  1.00  0.00     0.026 C 
HETATM   17  C8          0      59.121  58.496  17.631  1.00  0.00     0.112 C 
HETATM   18  C10         0      59.441  57.348  16.919  1.00  0.00     0.112 C 
HETATM   19  C12         0      60.665  56.738  17.164  1.00  0.00     0.028 C 
BRANCH  17  20
HETATM   20  O9          0      58.423  59.564  17.094  1.00  0.00    -0.357 OA
HETATM   21  H9          0      57.922  59.516  16.288  1.00  0.00     0.218 HD
ENDBRANCH  17  20
BRANCH  18  22
HETATM   22  O11         0      58.711  57.101  15.764  1.00  0.00    -0.357 OA
HETATM   23  H11         0      59.100  57.377  14.942  1.00  0.00     0.218 HD
ENDBRANCH  18  22
ENDBRANCH   4  14
BRANCH   8  24
HETATM   24  O17         0      66.710  53.666  20.565  1.00  0.00    -0.359 OA
HETATM   25  H17         0      66.037  53.039  20.804  1.00  0.00     0.218 HD
ENDBRANCH   8  24
TORSDOF 5
ENDMDL
MODEL 7
REMARK VINA RESULT:      -6.3      4.737      6.442
REMARK  5 active torsions:
REMARK  status: ('A' for Active; 'I' for Inactive)
REMARK    1  A    between atoms: C4_4  and  C5_5 
REMARK    2  A    between atoms: C8_8  and  O9_9 
REMARK    3  A    between atoms: C10_11  and  O11_12 
REMARK    4  A    between atoms: C16_18  and  O17_19 
REMARK    5  A    between atoms: C19_22  and  O20_23 
ROOT
HETATM    1  O1          0      57.122  58.053  22.005  1.00  0.00    -0.286 OA
HETATM    2  C2          0      58.251  58.452  21.608  1.00  0.00     0.201 C 
HETATM    3  C3          0      58.666  58.343  20.292  1.00  0.00     0.067 C 
HETATM    4  C4          0      59.953  58.697  19.902  1.00  0.00     0.103 C 
HETATM    5  O13         0      60.786  59.167  20.813  1.00  0.00    -0.307 OA
HETATM    6  C14         0      60.455  59.256  22.083  1.00  0.00     0.107 C 
HETATM    7  C15         0      61.412  59.358  23.082  1.00  0.00     0.049 C 
HETATM    8  C16         0      61.078  59.196  24.421  1.00  0.00     0.093 C 
HETATM    9  C18         0      59.749  59.461  24.731  1.00  0.00     0.048 C 
HETATM   10  C19         0      58.772  59.414  23.745  1.00  0.00     0.096 C 
HETATM   11  C21         0      59.122  59.120  22.456  1.00  0.00     0.084 C 
ENDROOT
BRANCH  10  12
HETATM   12  O20         0      57.441  59.246  24.115  1.00  0.00    -0.359 OA
HETATM   13  H20         0      57.214  58.478  24.625  1.00  0.00     0.218 HD
ENDBRANCH  10  12
BRANCH   4  14
HETATM   14  C5          0      60.504  58.025  18.723  1.00  0.00     0.025 C 
HETATM   15  C6          0      61.432  56.998  18.808  1.00  0.00     0.004 C 
HETATM   16  C7          0      61.312  55.945  17.906  1.00  0.00     0.026 C 
HETATM   17  C8          0      60.387  55.975  16.869  1.00  0.00     0.112 C 
HETATM   18  C10         0      59.978  57.248  16.493  1.00  0.00     0.112 C 
HETATM   19  C12         0      60.028  58.264  17.440  1.00  0.00     0.028 C 
BRANCH  17  20
HETATM   20  O9          0      59.787  54.812  16.420  1.00  0.00    -0.357 OA
HETATM   21  H9          0      60.259  54.102  16.000  1.00  0.00     0.218 HD
ENDBRANCH  17  20
BRANCH  18  22
HETATM   22  O11         0      59.204  57.346  15.345  1.00  0.00    -0.357 OA
HETATM   23  H11         0      58.507  56.709  15.240  1.00  0.00     0.218 HD
ENDBRANCH  18  22
ENDBRANCH   4  14
BRANCH   8  24
HETATM   24  O17         0      61.914  58.502  25.303  1.00  0.00    -0.359 OA
HETATM   25  H17         0      62.134  58.849  26.159  1.00  0.00     0.218 HD
ENDBRANCH   8  24
TORSDOF 5
ENDMDL
MODEL 8
REMARK VINA RESULT:      -6.2      4.463      6.067
REMARK  5 active torsions:
REMARK  status: ('A' for Active; 'I' for Inactive)
REMARK    1  A    between atoms: C4_4  and  C5_5 
REMARK    2  A    between atoms: C8_8  and  O9_9 
REMARK    3  A    between atoms: C10_11  and  O11_12 
REMARK    4  A    between atoms: C16_18  and  O17_19 
REMARK    5  A    between atoms: C19_22  and  O20_23 
ROOT
HETATM    1  O1          0      59.889  58.129  23.147  1.00  0.00    -0.286 OA
HETATM    2  C2          0      60.592  58.695  22.266  1.00  0.00     0.201 C 
HETATM    3  C3          0      60.405  58.490  20.910  1.00  0.00     0.067 C 
HETATM    4  C4          0      61.259  59.046  19.964  1.00  0.00     0.103 C 
HETATM    5  O13         0      62.259  59.803  20.379  1.00  0.00    -0.307 OA
HETATM    6  C14         0      62.505  59.999  21.656  1.00  0.00     0.107 C 
HETATM    7  C15         0      63.742  60.438  22.103  1.00  0.00     0.049 C 
HETATM    8  C16         0      64.077  60.399  23.452  1.00  0.00     0.093 C 
HETATM    9  C18         0      62.997  60.423  24.326  1.00  0.00     0.048 C 
HETATM   10  C19         0      61.735  60.035  23.898  1.00  0.00     0.096 C 
HETATM   11  C21         0      61.549  59.642  22.601  1.00  0.00     0.084 C 
ENDROOT
BRANCH  10  12
HETATM   12  O20         0      60.787  59.647  24.840  1.00  0.00    -0.359 OA
HETATM   13  H20         0      60.272  58.870  24.659  1.00  0.00     0.218 HD
ENDBRANCH  10  12
BRANCH   4  14
HETATM   14  C5          0      61.389  58.345  18.685  1.00  0.00     0.025 C 
HETATM   15  C6          0      62.252  57.275  18.498  1.00  0.00     0.004 C 
HETATM   16  C7          0      61.815  56.226  17.697  1.00  0.00     0.026 C 
HETATM   17  C8          0      60.616  56.295  16.995  1.00  0.00     0.112 C 
HETATM   18  C10         0      60.166  57.584  16.741  1.00  0.00     0.112 C 
HETATM   19  C12         0      60.550  58.600  17.608  1.00  0.00     0.028 C 
BRANCH  17  20
HETATM   20  O9          0      59.857  55.159  16.775  1.00  0.00    -0.357 OA
HETATM   21  H9          0      60.167  54.276  16.941  1.00  0.00     0.218 HD
ENDBRANCH  17  20
BRANCH  18  22
HETATM   22  O11         0      59.081  57.713  15.886  1.00  0.00    -0.357 OA
HETATM   23  H11         0      58.866  56.961  15.346  1.00  0.00     0.218 HD
ENDBRANCH  18  22
ENDBRANCH   4  14
BRANCH   8  24
HETATM   24  O17         0      65.358  60.026  23.875  1.00  0.00    -0.359 OA
HETATM   25  H17         0      65.494  59.305  24.478  1.00  0.00     0.218 HD
ENDBRANCH   8  24
TORSDOF 5
ENDMDL
MODEL 9
REMARK VINA RESULT:      -6.2      4.381      9.333
REMARK  5 active torsions:
REMARK  status: ('A' for Active; 'I' for Inactive)
REMARK    1  A    between atoms: C4_4  and  C5_5 
REMARK    2  A    between atoms: C8_8  and  O9_9 
REMARK    3  A    between atoms: C10_11  and  O11_12 
REMARK    4  A    between atoms: C16_18  and  O17_19 
REMARK    5  A    between atoms: C19_22  and  O20_23 
ROOT
HETATM    1  O1          0      61.137  57.723  20.817  1.00  0.00    -0.286 OA
HETATM    2  C2          0      60.351  58.130  19.918  1.00  0.00     0.201 C 
HETATM    3  C3          0      59.359  59.066  20.156  1.00  0.00     0.067 C 
HETATM    4  C4          0      58.441  59.420  19.174  1.00  0.00     0.103 C 
HETATM    5  O13         0      58.539  58.859  17.982  1.00  0.00    -0.307 OA
HETATM    6  C14         0      59.437  57.937  17.715  1.00  0.00     0.107 C 
HETATM    7  C15         0      59.301  57.073  16.637  1.00  0.00     0.049 C 
HETATM    8  C16         0      60.108  55.949  16.507  1.00  0.00     0.093 C 
HETATM    9  C18         0      61.333  56.027  17.157  1.00  0.00     0.048 C 
HETATM   10  C19         0      61.519  56.914  18.209  1.00  0.00     0.096 C 
HETATM   11  C21         0      60.491  57.730  18.598  1.00  0.00     0.084 C 
ENDROOT
BRANCH  10  12
HETATM   12  O20         0      62.553  56.691  19.112  1.00  0.00    -0.359 OA
HETATM   13  H20         0      62.329  56.348  19.969  1.00  0.00     0.218 HD
ENDBRANCH  10  12
BRANCH   4  14
HETATM   14  C5          0      57.133  59.901  19.622  1.00  0.00     0.025 C 
HETATM   15  C6          0      56.435  60.905  18.966  1.00  0.00     0.004 C 
HETATM   16  C7          0      55.054  60.774  18.872  1.00  0.00     0.026 C 
HETATM   17  C8          0      54.372  59.752  19.523  1.00  0.00     0.112 C 
HETATM   18  C10         0      55.037  59.217  20.618  1.00  0.00     0.112 C 
HETATM   19  C12         0      56.425  59.286  20.646  1.00  0.00     0.028 C 
BRANCH  17  20
HETATM   20  O9          0      53.230  59.198  18.972  1.00  0.00    -0.357 OA
HETATM   21  H9          0      52.530  59.709  18.582  1.00  0.00     0.218 HD
ENDBRANCH  17  20
BRANCH  18  22
HETATM   22  O11         0      54.326  58.330  21.414  1.00  0.00    -0.357 OA
HETATM   23  H11         0      53.844  58.700  22.145  1.00  0.00     0.218 HD
ENDBRANCH  18  22
ENDBRANCH   4  14
BRANCH   8  24
HETATM   24  O17         0      59.591  54.730  16.054  1.00  0.00    -0.359 OA
HETATM   25  H17         0      58.832  54.328  16.460  1.00  0.00     0.218 HD
ENDBRANCH   8  24
TORSDOF 5
ENDMDL
