MODEL 1
REMARK VINA RESULT:      -6.7      0.000      0.000
REMARK  5 active torsions:
REMARK  status: ('A' for Active; 'I' for Inactive)
REMARK    1  A    between atoms: C4_4  and  C5_5 
REMARK    2  A    between atoms: C8_8  and  O9_9 
REMARK    3  A    between atoms: C10_11  and  O11_12 
REMARK    4  A    between atoms: C16_18  and  O17_19 
REMARK    5  A    between atoms: C19_22  and  O20_23 
ROOT
HETATM    1  O1          0      74.937  34.888  15.660  1.00  0.00    -0.286 OA
HETATM    2  C2          0      74.420  35.999  15.360  1.00  0.00     0.201 C 
HETATM    3  C3          0      74.691  37.165  16.056  1.00  0.00     0.067 C 
HETATM    4  C4          0      74.029  38.354  15.770  1.00  0.00     0.103 C 
HETATM    5  O13         0      73.138  38.366  14.795  1.00  0.00    -0.307 OA
HETATM    6  C14         0      72.816  37.279  14.129  1.00  0.00     0.107 C 
HETATM    7  C15         0      71.635  37.187  13.407  1.00  0.00     0.049 C 
HETATM    8  C16         0      71.180  35.968  12.920  1.00  0.00     0.093 C 
HETATM    9  C18         0      72.167  35.009  12.724  1.00  0.00     0.048 C 
HETATM   10  C19         0      73.379  35.096  13.395  1.00  0.00     0.096 C 
HETATM   11  C21         0      73.611  36.144  14.244  1.00  0.00     0.084 C 
ENDROOT
BRANCH  10  12
HETATM   12  O20         0      74.161  33.954  13.538  1.00  0.00    -0.359 OA
HETATM   13  H20         0      73.986  33.220  12.963  1.00  0.00     0.218 HD
ENDBRANCH  10  12
BRANCH   4  14
HETATM   14  C5          0      73.898  39.326  16.858  1.00  0.00     0.025 C 
HETATM   15  C6          0      73.611  38.957  18.164  1.00  0.00     0.004 C 
HETATM   16  C7          0      74.249  39.655  19.185  1.00  0.00     0.026 C 
HETATM   17  C8          0      75.041  40.768  18.924  1.00  0.00     0.112 C 
HETATM   18  C10         0      74.757  41.413  17.728  1.00  0.00     0.112 C 
HETATM   19  C12         0      74.198  40.672  16.694  1.00  0.00     0.028 C 
BRANCH  17  20
HETATM   20  O9          0      76.147  41.051  19.706  1.00  0.00    -0.357 OA
HETATM   21  H9          0      76.275  40.707  20.583  1.00  0.00     0.218 HD
ENDBRANCH  17  20
BRANCH  18  22
HETATM   22  O11         0      75.383  42.632  17.507  1.00  0.00    -0.357 OA
HETATM   23  H11         0      74.825  43.399  17.456  1.00  0.00     0.218 HD
ENDBRANCH  18  22
ENDBRANCH   4  14
BRANCH   8  24
HETATM   24  O17         0      69.822  35.630  12.954  1.00  0.00    -0.359 OA
HETATM   25  H17         0      69.534  34.726  12.998  1.00  0.00     0.218 HD
ENDBRANCH   8  24
TORSDOF 5
ENDMDL
MODEL 2
REMARK VINA RESULT:      -6.3      1.502      6.802
REMARK  5 active torsions:
REMARK  status: ('A' for Active; 'I' for Inactive)
REMARK    1  A    between atoms: C4_4  and  C5_5 
REMARK    2  A    between atoms: C8_8  and  O9_9 
REMARK    3  A    between atoms: C10_11  and  O11_12 
REMARK    4  A    between atoms: C16_18  and  O17_19 
REMARK    5  A    between atoms: C19_22  and  O20_23 
ROOT
HETATM    1  O1          0      73.722  37.778  18.371  1.00  0.00    -0.286 OA
HETATM    2  C2          0      73.625  38.278  17.217  1.00  0.00     0.201 C 
HETATM    3  C3          0      73.092  37.588  16.142  1.00  0.00     0.067 C 
HETATM    4  C4          0      73.091  38.125  14.859  1.00  0.00     0.103 C 
HETATM    5  O13         0      73.596  39.332  14.676  1.00  0.00    -0.307 OA
HETATM    6  C14         0      74.149  40.015  15.655  1.00  0.00     0.107 C 
HETATM    7  C15         0      75.017  41.069  15.412  1.00  0.00     0.049 C 
HETATM    8  C16         0      75.790  41.617  16.429  1.00  0.00     0.093 C 
HETATM    9  C18         0      75.281  41.445  17.710  1.00  0.00     0.048 C 
HETATM   10  C19         0      74.375  40.428  17.979  1.00  0.00     0.096 C 
HETATM   11  C21         0      73.965  39.600  16.970  1.00  0.00     0.084 C 
ENDROOT
BRANCH  10  12
HETATM   12  O20         0      74.212  39.990  19.289  1.00  0.00    -0.359 OA
HETATM   13  H20         0      74.501  39.111  19.504  1.00  0.00     0.218 HD
ENDBRANCH  10  12
BRANCH   4  14
HETATM   14  C5          0      73.093  37.183  13.739  1.00  0.00     0.025 C 
HETATM   15  C6          0      74.260  36.709  13.157  1.00  0.00     0.004 C 
HETATM   16  C7          0      74.286  35.376  12.757  1.00  0.00     0.026 C 
HETATM   17  C8          0      73.149  34.577  12.809  1.00  0.00     0.112 C 
HETATM   18  C10         0      71.949  35.275  12.788  1.00  0.00     0.112 C 
HETATM   19  C12         0      71.933  36.577  13.273  1.00  0.00     0.028 C 
BRANCH  17  20
HETATM   20  O9          0      73.246  33.223  13.074  1.00  0.00    -0.357 OA
HETATM   21  H9          0      72.751  32.557  12.610  1.00  0.00     0.218 HD
ENDBRANCH  17  20
BRANCH  18  22
HETATM   22  O11         0      70.789  34.526  12.647  1.00  0.00    -0.357 OA
HETATM   23  H11         0      70.889  33.631  12.344  1.00  0.00     0.218 HD
ENDBRANCH  18  22
ENDBRANCH   4  14
BRANCH   8  24
HETATM   24  O17         0      77.118  42.001  16.209  1.00  0.00    -0.359 OA
HETATM   25  H17         0      77.359  42.909  16.076  1.00  0.00     0.218 HD
ENDBRANCH   8  24
TORSDOF 5
ENDMDL
MODEL 3
REMARK VINA RESULT:      -6.3      1.638      6.525
REMARK  5 active torsions:
REMARK  status: ('A' for Active; 'I' for Inactive)
REMARK    1  A    between atoms: C4_4  and  C5_5 
REMARK    2  A    between atoms: C8_8  and  O9_9 
REMARK    3  A    between atoms: C10_11  and  O11_12 
REMARK    4  A    between atoms: C16_18  and  O17_19 
REMARK    5  A    between atoms: C19_22  and  O20_23 
ROOT
HETATM    1  O1          0      77.344  36.949  16.623  1.00  0.00    -0.286 OA
HETATM    2  C2          0      76.090  37.091  16.626  1.00  0.00     0.201 C 
HETATM    3  C3          0      75.265  36.486  15.693  1.00  0.00     0.067 C 
HETATM    4  C4          0      73.898  36.741  15.656  1.00  0.00     0.103 C 
HETATM    5  O13         0      73.382  37.566  16.550  1.00  0.00    -0.307 OA
HETATM    6  C14         0      74.126  38.195  17.433  1.00  0.00     0.107 C 
HETATM    7  C15         0      73.677  39.332  18.089  1.00  0.00     0.049 C 
HETATM    8  C16         0      74.546  40.133  18.821  1.00  0.00     0.093 C 
HETATM    9  C18         0      75.684  39.488  19.291  1.00  0.00     0.048 C 
HETATM   10  C19         0      76.134  38.322  18.687  1.00  0.00     0.096 C 
HETATM   11  C21         0      75.443  37.793  17.631  1.00  0.00     0.084 C 
ENDROOT
BRANCH  10  12
HETATM   12  O20         0      77.460  37.935  18.857  1.00  0.00    -0.359 OA
HETATM   13  H20         0      78.128  38.419  18.389  1.00  0.00     0.218 HD
ENDBRANCH  10  12
BRANCH   4  14
HETATM   14  C5          0      73.223  36.586  14.366  1.00  0.00     0.025 C 
HETATM   15  C6          0      73.583  35.618  13.440  1.00  0.00     0.004 C 
HETATM   16  C7          0      72.563  34.996  12.728  1.00  0.00     0.026 C 
HETATM   17  C8          0      71.241  35.414  12.833  1.00  0.00     0.112 C 
HETATM   18  C10         0      71.079  36.727  13.254  1.00  0.00     0.112 C 
HETATM   19  C12         0      72.076  37.297  14.036  1.00  0.00     0.028 C 
BRANCH  17  20
HETATM   20  O9          0      70.200  34.508  12.726  1.00  0.00    -0.357 OA
HETATM   21  H9          0      69.625  34.278  13.446  1.00  0.00     0.218 HD
ENDBRANCH  17  20
BRANCH  18  22
HETATM   22  O11         0      69.796  37.253  13.195  1.00  0.00    -0.357 OA
HETATM   23  H11         0      69.715  38.159  12.921  1.00  0.00     0.218 HD
ENDBRANCH  18  22
ENDBRANCH   4  14
BRANCH   8  24
HETATM   24  O17         0      74.451  41.528  18.791  1.00  0.00    -0.359 OA
HETATM   25  H17         0      75.223  42.081  18.765  1.00  0.00     0.218 HD
ENDBRANCH   8  24
TORSDOF 5
ENDMDL
MODEL 4
REMARK VINA RESULT:      -6.1      1.512      3.238
REMARK  5 active torsions:
REMARK  status: ('A' for Active; 'I' for Inactive)
REMARK    1  A    between atoms: C4_4  and  C5_5 
REMARK    2  A    between atoms: C8_8  and  O9_9 
REMARK    3  A    between atoms: C10_11  and  O11_12 
REMARK    4  A    between atoms: C16_18  and  O17_19 
REMARK    5  A    between atoms: C19_22  and  O20_23 
ROOT
HETATM    1  O1          0      71.441  37.218  12.608  1.00  0.00    -0.286 OA
HETATM    2  C2          0      72.266  37.138  13.559  1.00  0.00     0.201 C 
HETATM    3  C3          0      72.658  38.236  14.307  1.00  0.00     0.067 C 
HETATM    4  C4          0      73.645  38.139  15.281  1.00  0.00     0.103 C 
HETATM    5  O13         0      74.202  36.962  15.505  1.00  0.00    -0.307 OA
HETATM    6  C14         0      73.894  35.897  14.799  1.00  0.00     0.107 C 
HETATM    7  C15         0      74.728  34.789  14.744  1.00  0.00     0.049 C 
HETATM    8  C16         0      74.529  33.781  13.808  1.00  0.00     0.093 C 
HETATM    9  C18         0      73.228  33.669  13.334  1.00  0.00     0.048 C 
HETATM   10  C19         0      72.352  34.744  13.415  1.00  0.00     0.096 C 
HETATM   11  C21         0      72.768  35.917  13.982  1.00  0.00     0.084 C 
ENDROOT
BRANCH  10  12
HETATM   12  O20         0      71.243  34.782  12.576  1.00  0.00    -0.359 OA
HETATM   13  H20         0      70.431  34.407  12.895  1.00  0.00     0.218 HD
ENDBRANCH  10  12
BRANCH   4  14
HETATM   14  C5          0      74.411  39.350  15.582  1.00  0.00     0.025 C 
HETATM   15  C6          0      74.951  40.162  14.595  1.00  0.00     0.004 C 
HETATM   16  C7          0      74.920  41.537  14.803  1.00  0.00     0.026 C 
HETATM   17  C8          0      74.488  42.083  16.007  1.00  0.00     0.112 C 
HETATM   18  C10         0      74.581  41.228  17.098  1.00  0.00     0.112 C 
HETATM   19  C12         0      74.525  39.858  16.869  1.00  0.00     0.028 C 
BRANCH  17  20
HETATM   20  O9          0      73.831  43.300  16.039  1.00  0.00    -0.357 OA
HETATM   21  H9          0      73.928  43.935  16.739  1.00  0.00     0.218 HD
ENDBRANCH  17  20
BRANCH  18  22
HETATM   22  O11         0      74.344  41.778  18.349  1.00  0.00    -0.357 OA
HETATM   23  H11         0      74.262  41.172  19.077  1.00  0.00     0.218 HD
ENDBRANCH  18  22
ENDBRANCH   4  14
BRANCH   8  24
HETATM   24  O17         0      75.606  33.170  13.156  1.00  0.00    -0.359 OA
HETATM   25  H17         0      76.409  32.953  13.614  1.00  0.00     0.218 HD
ENDBRANCH   8  24
TORSDOF 5
ENDMDL
MODEL 5
REMARK VINA RESULT:      -5.7      1.953      2.322
REMARK  5 active torsions:
REMARK  status: ('A' for Active; 'I' for Inactive)
REMARK    1  A    between atoms: C4_4  and  C5_5 
REMARK    2  A    between atoms: C8_8  and  O9_9 
REMARK    3  A    between atoms: C10_11  and  O11_12 
REMARK    4  A    between atoms: C16_18  and  O17_19 
REMARK    5  A    between atoms: C19_22  and  O20_23 
ROOT
HETATM    1  O1          0      75.355  36.469  12.463  1.00  0.00    -0.286 OA
HETATM    2  C2          0      74.584  36.943  13.343  1.00  0.00     0.201 C 
HETATM    3  C3          0      75.036  37.400  14.569  1.00  0.00     0.067 C 
HETATM    4  C4          0      74.156  37.822  15.558  1.00  0.00     0.103 C 
HETATM    5  O13         0      72.859  37.801  15.306  1.00  0.00    -0.307 OA
HETATM    6  C14         0      72.375  37.341  14.172  1.00  0.00     0.107 C 
HETATM    7  C15         0      71.051  36.945  14.050  1.00  0.00     0.049 C 
HETATM    8  C16         0      70.611  36.230  12.943  1.00  0.00     0.093 C 
HETATM    9  C18         0      71.372  36.401  11.793  1.00  0.00     0.048 C 
HETATM   10  C19         0      72.686  36.841  11.876  1.00  0.00     0.096 C 
HETATM   11  C21         0      73.231  37.125  13.098  1.00  0.00     0.084 C 
ENDROOT
BRANCH  10  12
HETATM   12  O20         0      73.553  36.598  10.815  1.00  0.00    -0.359 OA
HETATM   13  H20         0      74.009  35.765  10.795  1.00  0.00     0.218 HD
ENDBRANCH  10  12
BRANCH   4  14
HETATM   14  C5          0      74.605  37.708  16.947  1.00  0.00     0.025 C 
HETATM   15  C6          0      75.892  37.323  17.292  1.00  0.00     0.004 C 
HETATM   16  C7          0      76.485  37.957  18.379  1.00  0.00     0.026 C 
HETATM   17  C8          0      75.777  38.847  19.180  1.00  0.00     0.112 C 
HETATM   18  C10         0      74.399  38.680  19.153  1.00  0.00     0.112 C 
HETATM   19  C12         0      73.823  38.121  18.019  1.00  0.00     0.028 C 
BRANCH  17  20
HETATM   20  O9          0      76.409  39.927  19.770  1.00  0.00    -0.357 OA
HETATM   21  H9          0      76.473  40.786  19.367  1.00  0.00     0.218 HD
ENDBRANCH  17  20
BRANCH  18  22
HETATM   22  O11         0      73.660  39.411  20.072  1.00  0.00    -0.357 OA
HETATM   23  H11         0      73.155  40.142  19.735  1.00  0.00     0.218 HD
ENDBRANCH  18  22
ENDBRANCH   4  14
BRANCH   8  24
HETATM   24  O17         0      69.698  35.177  13.071  1.00  0.00    -0.359 OA
HETATM   25  H17         0      69.903  34.299  12.772  1.00  0.00     0.218 HD
ENDBRANCH   8  24
TORSDOF 5
ENDMDL
MODEL 6
REMARK VINA RESULT:      -5.7      9.594     10.948
REMARK  5 active torsions:
REMARK  status: ('A' for Active; 'I' for Inactive)
REMARK    1  A    between atoms: C4_4  and  C5_5 
REMARK    2  A    between atoms: C8_8  and  O9_9 
REMARK    3  A    between atoms: C10_11  and  O11_12 
REMARK    4  A    between atoms: C16_18  and  O17_19 
REMARK    5  A    between atoms: C19_22  and  O20_23 
ROOT
HETATM    1  O1          0      69.138  38.197   6.582  1.00  0.00    -0.286 OA
HETATM    2  C2          0      70.007  39.011   6.165  1.00  0.00     0.201 C 
HETATM    3  C3          0      70.319  40.183   6.833  1.00  0.00     0.067 C 
HETATM    4  C4          0      71.205  41.113   6.299  1.00  0.00     0.103 C 
HETATM    5  O13         0      71.773  40.852   5.135  1.00  0.00    -0.307 OA
HETATM    6  C14         0      71.484  39.772   4.442  1.00  0.00     0.107 C 
HETATM    7  C15         0      71.750  39.683   3.083  1.00  0.00     0.049 C 
HETATM    8  C16         0      71.219  38.657   2.310  1.00  0.00     0.093 C 
HETATM    9  C18         0      70.892  37.502   3.010  1.00  0.00     0.048 C 
HETATM   10  C19         0      70.665  37.548   4.379  1.00  0.00     0.096 C 
HETATM   11  C21         0      70.780  38.736   5.047  1.00  0.00     0.084 C 
ENDROOT
BRANCH  10  12
HETATM   12  O20         0      69.935  36.529   4.982  1.00  0.00    -0.359 OA
HETATM   13  H20         0      69.471  36.729   5.786  1.00  0.00     0.218 HD
ENDBRANCH  10  12
BRANCH   4  14
HETATM   14  C5          0      71.034  42.509   6.703  1.00  0.00     0.025 C 
HETATM   15  C6          0      70.003  43.308   6.230  1.00  0.00     0.004 C 
HETATM   16  C7          0      69.415  44.198   7.124  1.00  0.00     0.026 C 
HETATM   17  C8          0      69.921  44.385   8.406  1.00  0.00     0.112 C 
HETATM   18  C10         0      71.260  44.050   8.555  1.00  0.00     0.112 C 
HETATM   19  C12         0      71.801  43.094   7.702  1.00  0.00     0.028 C 
BRANCH  17  20
HETATM   20  O9          0      69.080  44.677   9.465  1.00  0.00    -0.357 OA
HETATM   21  H9          0      69.380  44.811  10.356  1.00  0.00     0.218 HD
ENDBRANCH  17  20
BRANCH  18  22
HETATM   22  O11         0      71.864  44.392   9.757  1.00  0.00    -0.357 OA
HETATM   23  H11         0      72.621  44.964   9.710  1.00  0.00     0.218 HD
ENDBRANCH  18  22
ENDBRANCH   4  14
BRANCH   8  24
HETATM   24  O17         0      70.742  38.893   1.016  1.00  0.00    -0.359 OA
HETATM   25  H17         0      71.316  39.184   0.317  1.00  0.00     0.218 HD
ENDBRANCH   8  24
TORSDOF 5
ENDMDL
MODEL 7
REMARK VINA RESULT:      -5.6     12.912     14.904
REMARK  5 active torsions:
REMARK  status: ('A' for Active; 'I' for Inactive)
REMARK    1  A    between atoms: C4_4  and  C5_5 
REMARK    2  A    between atoms: C8_8  and  O9_9 
REMARK    3  A    between atoms: C10_11  and  O11_12 
REMARK    4  A    between atoms: C16_18  and  O17_19 
REMARK    5  A    between atoms: C19_22  and  O20_23 
ROOT
HETATM    1  O1          0      66.505  46.043   2.956  1.00  0.00    -0.286 OA
HETATM    2  C2          0      67.139  46.411   3.983  1.00  0.00     0.201 C 
HETATM    3  C3          0      68.033  45.589   4.648  1.00  0.00     0.067 C 
HETATM    4  C4          0      68.640  45.983   5.835  1.00  0.00     0.103 C 
HETATM    5  O13         0      68.365  47.180   6.322  1.00  0.00    -0.307 OA
HETATM    6  C14         0      67.495  47.984   5.751  1.00  0.00     0.107 C 
HETATM    7  C15         0      66.909  49.036   6.441  1.00  0.00     0.049 C 
HETATM    8  C16         0      65.815  49.718   5.924  1.00  0.00     0.093 C 
HETATM    9  C18         0      65.693  49.668   4.540  1.00  0.00     0.048 C 
HETATM   10  C19         0      66.305  48.656   3.814  1.00  0.00     0.096 C 
HETATM   11  C21         0      67.049  47.709   4.463  1.00  0.00     0.084 C 
ENDROOT
BRANCH  10  12
HETATM   12  O20         0      65.839  48.358   2.537  1.00  0.00    -0.359 OA
HETATM   13  H20         0      64.902  48.263   2.416  1.00  0.00     0.218 HD
ENDBRANCH  10  12
BRANCH   4  14
HETATM   14  C5          0      69.055  44.925   6.758  1.00  0.00     0.025 C 
HETATM   15  C6          0      69.130  43.590   6.386  1.00  0.00     0.004 C 
HETATM   16  C7          0      70.184  42.838   6.896  1.00  0.00     0.026 C 
HETATM   17  C8          0      71.056  43.355   7.848  1.00  0.00     0.112 C 
HETATM   18  C10         0      70.542  44.406   8.595  1.00  0.00     0.112 C 
HETATM   19  C12         0      69.549  45.196   8.027  1.00  0.00     0.028 C 
BRANCH  17  20
HETATM   20  O9          0      72.386  42.972   7.873  1.00  0.00    -0.357 OA
HETATM   21  H9          0      73.095  43.506   7.534  1.00  0.00     0.218 HD
ENDBRANCH  17  20
BRANCH  18  22
HETATM   22  O11         0      71.295  44.834   9.679  1.00  0.00    -0.357 OA
HETATM   23  H11         0      72.004  45.439   9.498  1.00  0.00     0.218 HD
ENDBRANCH  18  22
ENDBRANCH   4  14
BRANCH   8  24
HETATM   24  O17         0      64.754  50.122   6.742  1.00  0.00    -0.359 OA
HETATM   25  H17         0      64.849  50.827   7.370  1.00  0.00     0.218 HD
ENDBRANCH   8  24
TORSDOF 5
ENDMDL
MODEL 8
REMARK VINA RESULT:      -5.5      1.835      2.727
REMARK  5 active torsions:
REMARK  status: ('A' for Active; 'I' for Inactive)
REMARK    1  A    between atoms: C4_4  and  C5_5 
REMARK    2  A    between atoms: C8_8  and  O9_9 
REMARK    3  A    between atoms: C10_11  and  O11_12 
REMARK    4  A    between atoms: C16_18  and  O17_19 
REMARK    5  A    between atoms: C19_22  and  O20_23 
ROOT
HETATM    1  O1          0      71.349  37.095  15.433  1.00  0.00    -0.286 OA
HETATM    2  C2          0      72.605  37.094  15.325  1.00  0.00     0.201 C 
HETATM    3  C3          0      73.441  37.657  16.274  1.00  0.00     0.067 C 
HETATM    4  C4          0      74.816  37.733  16.081  1.00  0.00     0.103 C 
HETATM    5  O13         0      75.329  37.236  14.970  1.00  0.00    -0.307 OA
HETATM    6  C14         0      74.577  36.725  14.020  1.00  0.00     0.107 C 
HETATM    7  C15         0      75.042  36.575  12.721  1.00  0.00     0.049 C 
HETATM    8  C16         0      74.176  36.278  11.675  1.00  0.00     0.093 C 
HETATM    9  C18         0      73.002  35.636  12.049  1.00  0.00     0.048 C 
HETATM   10  C19         0      72.533  35.727  13.353  1.00  0.00     0.096 C 
HETATM   11  C21         0      73.242  36.439  14.281  1.00  0.00     0.084 C 
ENDROOT
BRANCH  10  12
HETATM   12  O20         0      71.190  35.472  13.612  1.00  0.00    -0.359 OA
HETATM   13  H20         0      70.872  34.587  13.483  1.00  0.00     0.218 HD
ENDBRANCH  10  12
BRANCH   4  14
HETATM   14  C5          0      75.529  38.813  16.765  1.00  0.00     0.025 C 
HETATM   15  C6          0      76.555  39.533  16.169  1.00  0.00     0.004 C 
HETATM   16  C7          0      76.624  40.897  16.434  1.00  0.00     0.026 C 
HETATM   17  C8          0      75.786  41.503  17.365  1.00  0.00     0.112 C 
HETATM   18  C10         0      75.271  40.644  18.326  1.00  0.00     0.112 C 
HETATM   19  C12         0      75.133  39.299  18.005  1.00  0.00     0.028 C 
BRANCH  17  20
HETATM   20  O9          0      75.355  42.806  17.188  1.00  0.00    -0.357 OA
HETATM   21  H9          0      75.008  43.141  16.370  1.00  0.00     0.218 HD
ENDBRANCH  17  20
BRANCH  18  22
HETATM   22  O11         0      74.585  41.224  19.384  1.00  0.00    -0.357 OA
HETATM   23  H11         0      74.561  42.173  19.412  1.00  0.00     0.218 HD
ENDBRANCH  18  22
ENDBRANCH   4  14
BRANCH   8  24
HETATM   24  O17         0      74.320  36.875  10.418  1.00  0.00    -0.359 OA
HETATM   25  H17         0      74.045  36.436   9.622  1.00  0.00     0.218 HD
ENDBRANCH   8  24
TORSDOF 5
ENDMDL
MODEL 9
REMARK VINA RESULT:      -5.5      3.803      8.362
REMARK  5 active torsions:
REMARK  status: ('A' for Active; 'I' for Inactive)
REMARK    1  A    between atoms: C4_4  and  C5_5 
REMARK    2  A    between atoms: C8_8  and  O9_9 
REMARK    3  A    between atoms: C10_11  and  O11_12 
REMARK    4  A    between atoms: C16_18  and  O17_19 
REMARK    5  A    between atoms: C19_22  and  O20_23 
ROOT
HETATM    1  O1          0      75.681  34.745  14.644  1.00  0.00    -0.286 OA
HETATM    2  C2          0      74.733  34.257  13.968  1.00  0.00     0.201 C 
HETATM    3  C3          0      74.874  33.120  13.191  1.00  0.00     0.067 C 
HETATM    4  C4          0      73.844  32.663  12.376  1.00  0.00     0.103 C 
HETATM    5  O13         0      72.701  33.325  12.366  1.00  0.00    -0.307 OA
HETATM    6  C14         0      72.527  34.431  13.057  1.00  0.00     0.107 C 
HETATM    7  C15         0      71.515  35.330  12.755  1.00  0.00     0.049 C 
HETATM    8  C16         0      71.490  36.603  13.311  1.00  0.00     0.093 C 
HETATM    9  C18         0      72.164  36.728  14.520  1.00  0.00     0.048 C 
HETATM   10  C19         0      73.151  35.819  14.875  1.00  0.00     0.096 C 
HETATM   11  C21         0      73.451  34.781  14.036  1.00  0.00     0.084 C 
ENDROOT
BRANCH  10  12
HETATM   12  O20         0      74.096  36.178  15.831  1.00  0.00    -0.359 OA
HETATM   13  H20         0      74.636  36.940  15.659  1.00  0.00     0.218 HD
ENDBRANCH  10  12
BRANCH   4  14
HETATM   14  C5          0      74.221  31.889  11.192  1.00  0.00     0.025 C 
HETATM   15  C6          0      73.770  30.597  10.963  1.00  0.00     0.004 C 
HETATM   16  C7          0      73.456  30.246   9.654  1.00  0.00     0.026 C 
HETATM   17  C8          0      73.707  31.103   8.589  1.00  0.00     0.112 C 
HETATM   18  C10         0      74.697  32.047   8.825  1.00  0.00     0.112 C 
HETATM   19  C12         0      74.933  32.443  10.136  1.00  0.00     0.028 C 
BRANCH  17  20
HETATM   20  O9          0      72.874  31.124   7.484  1.00  0.00    -0.357 OA
HETATM   21  H9          0      71.941  31.299   7.529  1.00  0.00     0.218 HD
ENDBRANCH  17  20
BRANCH  18  22
HETATM   22  O11         0      75.118  32.801   7.739  1.00  0.00    -0.357 OA
HETATM   23  H11         0      75.996  33.164   7.782  1.00  0.00     0.218 HD
ENDBRANCH  18  22
ENDBRANCH   4  14
BRANCH   8  24
HETATM   24  O17         0      71.118  37.722  12.557  1.00  0.00    -0.359 OA
HETATM   25  H17         0      70.507  38.368  12.891  1.00  0.00     0.218 HD
ENDBRANCH   8  24
TORSDOF 5
ENDMDL
