MODEL 1
REMARK VINA RESULT:      -8.0      0.000      0.000
REMARK  5 active torsions:
REMARK  status: ('A' for Active; 'I' for Inactive)
REMARK    1  A    between atoms: C4_4  and  C5_5 
REMARK    2  A    between atoms: C8_8  and  O9_9 
REMARK    3  A    between atoms: C10_11  and  O11_12 
REMARK    4  A    between atoms: C16_18  and  O17_19 
REMARK    5  A    between atoms: C19_22  and  O20_23 
ROOT
HETATM    1  O1          0      44.003  36.157  13.427  1.00  0.00    -0.286 OA
HETATM    2  C2          0      42.867  36.666  13.220  1.00  0.00     0.201 C 
HETATM    3  C3          0      41.728  35.905  13.024  1.00  0.00     0.067 C 
HETATM    4  C4          0      40.509  36.488  12.695  1.00  0.00     0.103 C 
HETATM    5  O13         0      40.443  37.803  12.589  1.00  0.00    -0.307 OA
HETATM    6  C14         0      41.502  38.570  12.728  1.00  0.00     0.107 C 
HETATM    7  C15         0      41.535  39.867  12.237  1.00  0.00     0.049 C 
HETATM    8  C16         0      42.726  40.578  12.158  1.00  0.00     0.093 C 
HETATM    9  C18         0      43.716  40.168  13.043  1.00  0.00     0.048 C 
HETATM   10  C19         0      43.687  38.892  13.590  1.00  0.00     0.096 C 
HETATM   11  C21         0      42.668  38.038  13.268  1.00  0.00     0.084 C 
ENDROOT
BRANCH  10  12
HETATM   12  O20         0      44.860  38.345  14.102  1.00  0.00    -0.359 OA
HETATM   13  H20         0      44.841  37.998  14.985  1.00  0.00     0.218 HD
ENDBRANCH  10  12
BRANCH   4  14
HETATM   14  C5          0      39.558  35.671  11.938  1.00  0.00     0.025 C 
HETATM   15  C6          0      38.189  35.717  12.154  1.00  0.00     0.004 C 
HETATM   16  C7          0      37.358  35.629  11.042  1.00  0.00     0.026 C 
HETATM   17  C8          0      37.863  35.369   9.773  1.00  0.00     0.112 C 
HETATM   18  C10         0      39.094  34.728   9.759  1.00  0.00     0.112 C 
HETATM   19  C12         0      39.941  34.902  10.847  1.00  0.00     0.028 C 
BRANCH  17  20
HETATM   20  O9          0      37.265  35.908   8.648  1.00  0.00    -0.357 OA
HETATM   21  H9          0      37.683  35.947   7.795  1.00  0.00     0.218 HD
ENDBRANCH  17  20
BRANCH  18  22
HETATM   22  O11         0      39.554  34.276   8.530  1.00  0.00    -0.357 OA
HETATM   23  H11         0      39.865  33.379   8.490  1.00  0.00     0.218 HD
ENDBRANCH  18  22
ENDBRANCH   4  14
BRANCH   8  24
HETATM   24  O17         0      43.015  41.397  11.060  1.00  0.00    -0.359 OA
HETATM   25  H17         0      43.877  41.776  10.933  1.00  0.00     0.218 HD
ENDBRANCH   8  24
TORSDOF 5
ENDMDL
MODEL 2
REMARK VINA RESULT:      -8.0      2.878      7.689
REMARK  5 active torsions:
REMARK  status: ('A' for Active; 'I' for Inactive)
REMARK    1  A    between atoms: C4_4  and  C5_5 
REMARK    2  A    between atoms: C8_8  and  O9_9 
REMARK    3  A    between atoms: C10_11  and  O11_12 
REMARK    4  A    between atoms: C16_18  and  O17_19 
REMARK    5  A    between atoms: C19_22  and  O20_23 
ROOT
HETATM    1  O1          0      44.757  36.440  14.820  1.00  0.00    -0.286 OA
HETATM    2  C2          0      44.286  37.501  14.326  1.00  0.00     0.201 C 
HETATM    3  C3          0      44.865  38.743  14.525  1.00  0.00     0.067 C 
HETATM    4  C4          0      44.270  39.908  14.056  1.00  0.00     0.103 C 
HETATM    5  O13         0      43.134  39.816  13.388  1.00  0.00    -0.307 OA
HETATM    6  C14         0      42.522  38.666  13.204  1.00  0.00     0.107 C 
HETATM    7  C15         0      41.176  38.599  12.874  1.00  0.00     0.049 C 
HETATM    8  C16         0      40.479  37.398  12.931  1.00  0.00     0.093 C 
HETATM    9  C18         0      41.262  36.258  12.803  1.00  0.00     0.048 C 
HETATM   10  C19         0      42.621  36.301  13.080  1.00  0.00     0.096 C 
HETATM   11  C21         0      43.199  37.480  13.466  1.00  0.00     0.084 C 
ENDROOT
BRANCH  10  12
HETATM   12  O20         0      43.294  35.119  13.374  1.00  0.00    -0.359 OA
HETATM   13  H20         0      44.102  35.177  13.869  1.00  0.00     0.218 HD
ENDBRANCH  10  12
BRANCH   4  14
HETATM   14  C5          0      44.566  41.148  14.776  1.00  0.00     0.025 C 
HETATM   15  C6          0      43.644  41.776  15.602  1.00  0.00     0.004 C 
HETATM   16  C7          0      44.120  42.356  16.774  1.00  0.00     0.026 C 
HETATM   17  C8          0      45.481  42.429  17.052  1.00  0.00     0.112 C 
HETATM   18  C10         0      46.304  42.367  15.936  1.00  0.00     0.112 C 
HETATM   19  C12         0      45.837  41.707  14.806  1.00  0.00     0.028 C 
BRANCH  17  20
HETATM   20  O9          0      45.943  42.352  18.354  1.00  0.00    -0.357 OA
HETATM   21  H9          0      45.984  41.545  18.853  1.00  0.00     0.218 HD
ENDBRANCH  17  20
BRANCH  18  22
HETATM   22  O11         0      47.653  42.624  16.136  1.00  0.00    -0.357 OA
HETATM   23  H11         0      47.882  43.166  16.882  1.00  0.00     0.218 HD
ENDBRANCH  18  22
ENDBRANCH   4  14
BRANCH   8  24
HETATM   24  O17         0      39.166  37.340  13.414  1.00  0.00    -0.359 OA
HETATM   25  H17         0      38.453  37.787  12.975  1.00  0.00     0.218 HD
ENDBRANCH   8  24
TORSDOF 5
ENDMDL
MODEL 3
REMARK VINA RESULT:      -7.7      9.841     11.628
REMARK  5 active torsions:
REMARK  status: ('A' for Active; 'I' for Inactive)
REMARK    1  A    between atoms: C4_4  and  C5_5 
REMARK    2  A    between atoms: C8_8  and  O9_9 
REMARK    3  A    between atoms: C10_11  and  O11_12 
REMARK    4  A    between atoms: C16_18  and  O17_19 
REMARK    5  A    between atoms: C19_22  and  O20_23 
ROOT
HETATM    1  O1          0      46.760  43.614  15.262  1.00  0.00    -0.286 OA
HETATM    2  C2          0      46.320  43.635  16.444  1.00  0.00     0.201 C 
HETATM    3  C3          0      45.036  44.043  16.760  1.00  0.00     0.067 C 
HETATM    4  C4          0      44.609  44.154  18.078  1.00  0.00     0.103 C 
HETATM    5  O13         0      45.452  43.839  19.046  1.00  0.00    -0.307 OA
HETATM    6  C14         0      46.694  43.482  18.803  1.00  0.00     0.107 C 
HETATM    7  C15         0      47.676  43.540  19.781  1.00  0.00     0.049 C 
HETATM    8  C16         0      49.022  43.409  19.461  1.00  0.00     0.093 C 
HETATM    9  C18         0      49.281  42.712  18.286  1.00  0.00     0.048 C 
HETATM   10  C19         0      48.305  42.595  17.307  1.00  0.00     0.096 C 
HETATM   11  C21         0      47.072  43.154  17.505  1.00  0.00     0.084 C 
ENDROOT
BRANCH  10  12
HETATM   12  O20         0      48.684  42.298  16.001  1.00  0.00    -0.359 OA
HETATM   13  H20         0      48.755  41.384  15.755  1.00  0.00     0.218 HD
ENDBRANCH  10  12
BRANCH   4  14
HETATM   14  C5          0      43.541  45.115  18.359  1.00  0.00     0.025 C 
HETATM   15  C6          0      43.300  45.622  19.627  1.00  0.00     0.004 C 
HETATM   16  C7          0      42.936  46.961  19.727  1.00  0.00     0.026 C 
HETATM   17  C8          0      42.689  47.736  18.599  1.00  0.00     0.112 C 
HETATM   18  C10         0      42.338  47.015  17.466  1.00  0.00     0.112 C 
HETATM   19  C12         0      42.787  45.705  17.352  1.00  0.00     0.028 C 
BRANCH  17  20
HETATM   20  O9          0      42.985  49.088  18.589  1.00  0.00    -0.357 OA
HETATM   21  H9          0      42.479  49.743  19.055  1.00  0.00     0.218 HD
ENDBRANCH  17  20
BRANCH  18  22
HETATM   22  O11         0      41.899  47.743  16.369  1.00  0.00    -0.357 OA
HETATM   23  H11         0      41.857  48.687  16.468  1.00  0.00     0.218 HD
ENDBRANCH  18  22
ENDBRANCH   4  14
BRANCH   8  24
HETATM   24  O17         0      49.999  44.197  20.079  1.00  0.00    -0.359 OA
HETATM   25  H17         0      50.423  44.915  19.624  1.00  0.00     0.218 HD
ENDBRANCH   8  24
TORSDOF 5
ENDMDL
MODEL 4
REMARK VINA RESULT:      -7.6      3.303      7.217
REMARK  5 active torsions:
REMARK  status: ('A' for Active; 'I' for Inactive)
REMARK    1  A    between atoms: C4_4  and  C5_5 
REMARK    2  A    between atoms: C8_8  and  O9_9 
REMARK    3  A    between atoms: C10_11  and  O11_12 
REMARK    4  A    between atoms: C16_18  and  O17_19 
REMARK    5  A    between atoms: C19_22  and  O20_23 
ROOT
HETATM    1  O1          0      41.367  33.512  12.253  1.00  0.00    -0.286 OA
HETATM    2  C2          0      42.206  34.046  13.030  1.00  0.00     0.201 C 
HETATM    3  C3          0      42.323  35.417  13.180  1.00  0.00     0.067 C 
HETATM    4  C4          0      43.323  35.981  13.965  1.00  0.00     0.103 C 
HETATM    5  O13         0      44.164  35.179  14.594  1.00  0.00    -0.307 OA
HETATM    6  C14         0      44.120  33.872  14.455  1.00  0.00     0.107 C 
HETATM    7  C15         0      45.205  33.067  14.770  1.00  0.00     0.049 C 
HETATM    8  C16         0      45.248  31.731  14.387  1.00  0.00     0.093 C 
HETATM    9  C18         0      44.007  31.140  14.181  1.00  0.00     0.048 C 
HETATM   10  C19         0      42.891  31.920  13.910  1.00  0.00     0.096 C 
HETATM   11  C21         0      43.009  33.282  13.863  1.00  0.00     0.084 C 
ENDROOT
BRANCH  10  12
HETATM   12  O20         0      41.790  31.338  13.289  1.00  0.00    -0.359 OA
HETATM   13  H20         0      41.951  30.685  12.618  1.00  0.00     0.218 HD
ENDBRANCH  10  12
BRANCH   4  14
HETATM   14  C5          0      43.764  37.333  13.617  1.00  0.00     0.025 C 
HETATM   15  C6          0      43.144  38.099  12.641  1.00  0.00     0.004 C 
HETATM   16  C7          0      43.012  39.463  12.879  1.00  0.00     0.026 C 
HETATM   17  C8          0      43.595  40.070  13.987  1.00  0.00     0.112 C 
HETATM   18  C10         0      44.677  39.383  14.521  1.00  0.00     0.112 C 
HETATM   19  C12         0      44.740  38.006  14.340  1.00  0.00     0.028 C 
BRANCH  17  20
HETATM   20  O9          0      42.990  41.150  14.604  1.00  0.00    -0.357 OA
HETATM   21  H9          0      42.710  41.151  15.512  1.00  0.00     0.218 HD
ENDBRANCH  17  20
BRANCH  18  22
HETATM   22  O11         0      45.411  40.033  15.503  1.00  0.00    -0.357 OA
HETATM   23  H11         0      45.371  39.671  16.381  1.00  0.00     0.218 HD
ENDBRANCH  18  22
ENDBRANCH   4  14
BRANCH   8  24
HETATM   24  O17         0      46.430  31.143  13.923  1.00  0.00    -0.359 OA
HETATM   25  H17         0      46.432  30.291  13.503  1.00  0.00     0.218 HD
ENDBRANCH   8  24
TORSDOF 5
ENDMDL
MODEL 5
REMARK VINA RESULT:      -7.6      3.368      7.111
REMARK  5 active torsions:
REMARK  status: ('A' for Active; 'I' for Inactive)
REMARK    1  A    between atoms: C4_4  and  C5_5 
REMARK    2  A    between atoms: C8_8  and  O9_9 
REMARK    3  A    between atoms: C10_11  and  O11_12 
REMARK    4  A    between atoms: C16_18  and  O17_19 
REMARK    5  A    between atoms: C19_22  and  O20_23 
ROOT
HETATM    1  O1          0      45.216  33.520  16.027  1.00  0.00    -0.286 OA
HETATM    2  C2          0      44.653  34.219  15.142  1.00  0.00     0.201 C 
HETATM    3  C3          0      44.876  35.579  15.005  1.00  0.00     0.067 C 
HETATM    4  C4          0      44.165  36.345  14.088  1.00  0.00     0.103 C 
HETATM    5  O13         0      43.272  35.748  13.318  1.00  0.00    -0.307 OA
HETATM    6  C14         0      42.995  34.468  13.433  1.00  0.00     0.107 C 
HETATM    7  C15         0      41.818  33.928  12.936  1.00  0.00     0.049 C 
HETATM    8  C16         0      41.413  32.643  13.278  1.00  0.00     0.093 C 
HETATM    9  C18         0      42.438  31.787  13.662  1.00  0.00     0.048 C 
HETATM   10  C19         0      43.647  32.294  14.119  1.00  0.00     0.096 C 
HETATM   11  C21         0      43.836  33.648  14.177  1.00  0.00     0.084 C 
ENDROOT
BRANCH  10  12
HETATM   12  O20         0      44.475  31.486  14.891  1.00  0.00    -0.359 OA
HETATM   13  H20         0      45.218  31.891  15.321  1.00  0.00     0.218 HD
ENDBRANCH  10  12
BRANCH   4  14
HETATM   14  C5          0      43.995  37.767  14.392  1.00  0.00     0.025 C 
HETATM   15  C6          0      44.405  38.334  15.591  1.00  0.00     0.004 C 
HETATM   16  C7          0      44.960  39.608  15.545  1.00  0.00     0.026 C 
HETATM   17  C8          0      44.986  40.351  14.369  1.00  0.00     0.112 C 
HETATM   18  C10         0      44.026  39.988  13.433  1.00  0.00     0.112 C 
HETATM   19  C12         0      43.550  38.683  13.448  1.00  0.00     0.028 C 
BRANCH  17  20
HETATM   20  O9          0      46.028  41.221  14.103  1.00  0.00    -0.357 OA
HETATM   21  H9          0      46.770  41.003  13.550  1.00  0.00     0.218 HD
ENDBRANCH  17  20
BRANCH  18  22
HETATM   22  O11         0      43.884  40.814  12.327  1.00  0.00    -0.357 OA
HETATM   23  H11         0      44.591  41.424  12.152  1.00  0.00     0.218 HD
ENDBRANCH  18  22
ENDBRANCH   4  14
BRANCH   8  24
HETATM   24  O17         0      40.070  32.347  13.540  1.00  0.00    -0.359 OA
HETATM   25  H17         0      39.764  32.155  14.418  1.00  0.00     0.218 HD
ENDBRANCH   8  24
TORSDOF 5
ENDMDL
MODEL 6
REMARK VINA RESULT:      -7.5      5.082      6.945
REMARK  5 active torsions:
REMARK  status: ('A' for Active; 'I' for Inactive)
REMARK    1  A    between atoms: C4_4  and  C5_5 
REMARK    2  A    between atoms: C8_8  and  O9_9 
REMARK    3  A    between atoms: C10_11  and  O11_12 
REMARK    4  A    between atoms: C16_18  and  O17_19 
REMARK    5  A    between atoms: C19_22  and  O20_23 
ROOT
HETATM    1  O1          0      43.215  41.601  18.679  1.00  0.00    -0.286 OA
HETATM    2  C2          0      43.489  41.305  17.483  1.00  0.00     0.201 C 
HETATM    3  C3          0      43.101  40.112  16.898  1.00  0.00     0.067 C 
HETATM    4  C4          0      43.504  39.766  15.613  1.00  0.00     0.103 C 
HETATM    5  O13         0      44.259  40.612  14.935  1.00  0.00    -0.307 OA
HETATM    6  C14         0      44.686  41.741  15.457  1.00  0.00     0.107 C 
HETATM    7  C15         0      45.772  42.426  14.930  1.00  0.00     0.049 C 
HETATM    8  C16         0      46.374  43.467  15.625  1.00  0.00     0.093 C 
HETATM    9  C18         0      45.556  44.109  16.547  1.00  0.00     0.048 C 
HETATM   10  C19         0      44.435  43.471  17.059  1.00  0.00     0.096 C 
HETATM   11  C21         0      44.123  42.206  16.641  1.00  0.00     0.084 C 
ENDROOT
BRANCH  10  12
HETATM   12  O20         0      43.889  43.914  18.260  1.00  0.00    -0.359 OA
HETATM   13  H20         0      43.104  43.484  18.578  1.00  0.00     0.218 HD
ENDBRANCH  10  12
BRANCH   4  14
HETATM   14  C5          0      43.590  38.338  15.300  1.00  0.00     0.025 C 
HETATM   15  C6          0      43.399  37.837  14.020  1.00  0.00     0.004 C 
HETATM   16  C7          0      44.209  36.781  13.615  1.00  0.00     0.026 C 
HETATM   17  C8          0      45.086  36.155  14.494  1.00  0.00     0.112 C 
HETATM   18  C10         0      44.754  36.286  15.836  1.00  0.00     0.112 C 
HETATM   19  C12         0      44.016  37.397  16.227  1.00  0.00     0.028 C 
BRANCH  17  20
HETATM   20  O9          0      46.290  35.639  14.048  1.00  0.00    -0.357 OA
HETATM   21  H9          0      47.084  36.153  13.958  1.00  0.00     0.218 HD
ENDBRANCH  17  20
BRANCH  18  22
HETATM   22  O11         0      45.483  35.528  16.741  1.00  0.00    -0.357 OA
HETATM   23  H11         0      46.133  35.987  17.261  1.00  0.00     0.218 HD
ENDBRANCH  18  22
ENDBRANCH   4  14
BRANCH   8  24
HETATM   24  O17         0      47.764  43.626  15.640  1.00  0.00    -0.359 OA
HETATM   25  H17         0      48.245  43.887  14.863  1.00  0.00     0.218 HD
ENDBRANCH   8  24
TORSDOF 5
ENDMDL
MODEL 7
REMARK VINA RESULT:      -7.4      4.036      6.601
REMARK  5 active torsions:
REMARK  status: ('A' for Active; 'I' for Inactive)
REMARK    1  A    between atoms: C4_4  and  C5_5 
REMARK    2  A    between atoms: C8_8  and  O9_9 
REMARK    3  A    between atoms: C10_11  and  O11_12 
REMARK    4  A    between atoms: C16_18  and  O17_19 
REMARK    5  A    between atoms: C19_22  and  O20_23 
ROOT
HETATM    1  O1          0      39.216  33.709  12.522  1.00  0.00    -0.286 OA
HETATM    2  C2          0      40.451  33.874  12.719  1.00  0.00     0.201 C 
HETATM    3  C3          0      41.335  32.819  12.866  1.00  0.00     0.067 C 
HETATM    4  C4          0      42.672  33.028  13.185  1.00  0.00     0.103 C 
HETATM    5  O13         0      43.104  34.268  13.328  1.00  0.00    -0.307 OA
HETATM    6  C14         0      42.299  35.304  13.235  1.00  0.00     0.107 C 
HETATM    7  C15         0      42.636  36.541  13.765  1.00  0.00     0.049 C 
HETATM    8  C16         0      41.692  37.553  13.892  1.00  0.00     0.093 C 
HETATM    9  C18         0      40.616  37.465  13.017  1.00  0.00     0.048 C 
HETATM   10  C19         0      40.279  36.251  12.433  1.00  0.00     0.096 C 
HETATM   11  C21         0      41.024  35.136  12.706  1.00  0.00     0.084 C 
ENDROOT
BRANCH  10  12
HETATM   12  O20         0      38.994  36.071  11.932  1.00  0.00    -0.359 OA
HETATM   13  H20         0      38.303  36.628  12.268  1.00  0.00     0.218 HD
ENDBRANCH  10  12
BRANCH   4  14
HETATM   14  C5          0      43.368  31.953  13.895  1.00  0.00     0.025 C 
HETATM   15  C6          0      43.331  30.630  13.479  1.00  0.00     0.004 C 
HETATM   16  C7          0      44.497  29.882  13.605  1.00  0.00     0.026 C 
HETATM   17  C8          0      45.623  30.389  14.244  1.00  0.00     0.112 C 
HETATM   18  C10         0      45.366  31.412  15.147  1.00  0.00     0.112 C 
HETATM   19  C12         0      44.237  32.199  14.950  1.00  0.00     0.028 C 
BRANCH  17  20
HETATM   20  O9          0      46.894  30.029  13.834  1.00  0.00    -0.357 OA
HETATM   21  H9          0      47.546  30.649  13.527  1.00  0.00     0.218 HD
ENDBRANCH  17  20
BRANCH  18  22
HETATM   22  O11         0      46.421  31.823  15.949  1.00  0.00    -0.357 OA
HETATM   23  H11         0      47.152  32.247  15.513  1.00  0.00     0.218 HD
ENDBRANCH  18  22
ENDBRANCH   4  14
BRANCH   8  24
HETATM   24  O17         0      41.658  38.381  15.019  1.00  0.00    -0.359 OA
HETATM   25  H17         0      40.839  38.635  15.428  1.00  0.00     0.218 HD
ENDBRANCH   8  24
TORSDOF 5
ENDMDL
MODEL 8
REMARK VINA RESULT:      -7.4      3.775      7.025
REMARK  5 active torsions:
REMARK  status: ('A' for Active; 'I' for Inactive)
REMARK    1  A    between atoms: C4_4  and  C5_5 
REMARK    2  A    between atoms: C8_8  and  O9_9 
REMARK    3  A    between atoms: C10_11  and  O11_12 
REMARK    4  A    between atoms: C16_18  and  O17_19 
REMARK    5  A    between atoms: C19_22  and  O20_23 
ROOT
HETATM    1  O1          0      45.154  32.248  15.999  1.00  0.00    -0.286 OA
HETATM    2  C2          0      44.527  32.822  15.066  1.00  0.00     0.201 C 
HETATM    3  C3          0      44.579  34.189  14.857  1.00  0.00     0.067 C 
HETATM    4  C4          0      43.799  34.808  13.887  1.00  0.00     0.103 C 
HETATM    5  O13         0      43.006  34.062  13.138  1.00  0.00    -0.307 OA
HETATM    6  C14         0      42.891  32.765  13.320  1.00  0.00     0.107 C 
HETATM    7  C15         0      41.803  32.053  12.836  1.00  0.00     0.049 C 
HETATM    8  C16         0      41.557  30.747  13.242  1.00  0.00     0.093 C 
HETATM    9  C18         0      42.673  30.050  13.690  1.00  0.00     0.048 C 
HETATM   10  C19         0      43.797  30.732  14.137  1.00  0.00     0.096 C 
HETATM   11  C21         0      43.812  32.100  14.122  1.00  0.00     0.084 C 
ENDROOT
BRANCH  10  12
HETATM   12  O20         0      44.703  30.078  14.966  1.00  0.00    -0.359 OA
HETATM   13  H20         0      45.583  29.935  14.639  1.00  0.00     0.218 HD
ENDBRANCH  10  12
BRANCH   4  14
HETATM   14  C5          0      43.443  36.211  14.109  1.00  0.00     0.025 C 
HETATM   15  C6          0      44.362  37.163  14.527  1.00  0.00     0.004 C 
HETATM   16  C7          0      44.262  38.439  13.981  1.00  0.00     0.026 C 
HETATM   17  C8          0      43.205  38.796  13.150  1.00  0.00     0.112 C 
HETATM   18  C10         0      42.060  38.027  13.306  1.00  0.00     0.112 C 
HETATM   19  C12         0      42.197  36.725  13.773  1.00  0.00     0.028 C 
BRANCH  17  20
HETATM   20  O9          0      43.388  39.703  12.121  1.00  0.00    -0.357 OA
HETATM   21  H9          0      43.745  39.472  11.271  1.00  0.00     0.218 HD
ENDBRANCH  17  20
BRANCH  18  22
HETATM   22  O11         0      40.920  38.456  12.642  1.00  0.00    -0.357 OA
HETATM   23  H11         0      40.110  38.463  13.139  1.00  0.00     0.218 HD
ENDBRANCH  18  22
ENDBRANCH   4  14
BRANCH   8  24
HETATM   24  O17         0      40.257  30.296  13.499  1.00  0.00    -0.359 OA
HETATM   25  H17         0      39.580  30.881  13.817  1.00  0.00     0.218 HD
ENDBRANCH   8  24
TORSDOF 5
ENDMDL
MODEL 9
REMARK VINA RESULT:      -7.1      3.908      6.141
REMARK  5 active torsions:
REMARK  status: ('A' for Active; 'I' for Inactive)
REMARK    1  A    between atoms: C4_4  and  C5_5 
REMARK    2  A    between atoms: C8_8  and  O9_9 
REMARK    3  A    between atoms: C10_11  and  O11_12 
REMARK    4  A    between atoms: C16_18  and  O17_19 
REMARK    5  A    between atoms: C19_22  and  O20_23 
ROOT
HETATM    1  O1          0      45.201  39.775  18.596  1.00  0.00    -0.286 OA
HETATM    2  C2          0      44.851  40.282  17.495  1.00  0.00     0.201 C 
HETATM    3  C3          0      44.057  39.614  16.579  1.00  0.00     0.067 C 
HETATM    4  C4          0      43.772  40.155  15.330  1.00  0.00     0.103 C 
HETATM    5  O13         0      44.260  41.346  15.028  1.00  0.00    -0.307 OA
HETATM    6  C14         0      45.049  42.006  15.846  1.00  0.00     0.107 C 
HETATM    7  C15         0      45.870  43.032  15.401  1.00  0.00     0.049 C 
HETATM    8  C16         0      46.879  43.550  16.205  1.00  0.00     0.093 C 
HETATM    9  C18         0      46.681  43.390  17.571  1.00  0.00     0.048 C 
HETATM   10  C19         0      45.830  42.403  18.050  1.00  0.00     0.096 C 
HETATM   11  C21         0      45.167  41.592  17.169  1.00  0.00     0.084 C 
ENDROOT
BRANCH  10  12
HETATM   12  O20         0      45.966  41.966  19.363  1.00  0.00    -0.359 OA
HETATM   13  H20         0      45.182  41.900  19.895  1.00  0.00     0.218 HD
ENDBRANCH  10  12
BRANCH   4  14
HETATM   14  C5          0      43.479  39.217  14.245  1.00  0.00     0.025 C 
HETATM   15  C6          0      44.279  38.119  13.964  1.00  0.00     0.004 C 
HETATM   16  C7          0      43.646  36.941  13.583  1.00  0.00     0.026 C 
HETATM   17  C8          0      42.274  36.889  13.360  1.00  0.00     0.112 C 
HETATM   18  C10         0      41.691  38.110  13.048  1.00  0.00     0.112 C 
HETATM   19  C12         0      42.300  39.270  13.513  1.00  0.00     0.028 C 
BRANCH  17  20
HETATM   20  O9          0      41.552  35.743  13.642  1.00  0.00    -0.357 OA
HETATM   21  H9          0      40.701  35.746  14.065  1.00  0.00     0.218 HD
ENDBRANCH  17  20
BRANCH  18  22
HETATM   22  O11         0      40.368  38.087  12.632  1.00  0.00    -0.357 OA
HETATM   23  H11         0      40.125  37.413  12.008  1.00  0.00     0.218 HD
ENDBRANCH  18  22
ENDBRANCH   4  14
BRANCH   8  24
HETATM   24  O17         0      48.129  43.890  15.677  1.00  0.00    -0.359 OA
HETATM   25  H17         0      48.736  43.229  15.365  1.00  0.00     0.218 HD
ENDBRANCH   8  24
TORSDOF 5
ENDMDL
