MODEL 1
REMARK VINA RESULT:      -7.7      0.000      0.000
REMARK  5 active torsions:
REMARK  status: ('A' for Active; 'I' for Inactive)
REMARK    1  A    between atoms: C4_4  and  C5_5 
REMARK    2  A    between atoms: C8_8  and  O9_9 
REMARK    3  A    between atoms: C10_11  and  O11_12 
REMARK    4  A    between atoms: C16_18  and  O17_19 
REMARK    5  A    between atoms: C19_22  and  O20_23 
ROOT
HETATM    1  O1          0      20.107  67.063  -1.767  1.00  0.00    -0.286 OA
HETATM    2  C2          0      20.545  67.908  -0.938  1.00  0.00     0.201 C 
HETATM    3  C3          0      20.218  69.252  -0.992  1.00  0.00     0.067 C 
HETATM    4  C4          0      20.795  70.178  -0.130  1.00  0.00     0.103 C 
HETATM    5  O13         0      21.661  69.751   0.772  1.00  0.00    -0.307 OA
HETATM    6  C14         0      22.035  68.492   0.841  1.00  0.00     0.107 C 
HETATM    7  C15         0      23.203  68.111   1.487  1.00  0.00     0.049 C 
HETATM    8  C16         0      23.723  66.830   1.341  1.00  0.00     0.093 C 
HETATM    9  C18         0      22.794  65.855   0.996  1.00  0.00     0.048 C 
HETATM   10  C19         0      21.595  66.206   0.391  1.00  0.00     0.096 C 
HETATM   11  C21         0      21.317  67.524   0.147  1.00  0.00     0.084 C 
ENDROOT
BRANCH  10  12
HETATM   12  O20         0      20.891  65.247  -0.331  1.00  0.00    -0.359 OA
HETATM   13  H20         0      19.958  65.377  -0.451  1.00  0.00     0.218 HD
ENDBRANCH  10  12
BRANCH   4  14
HETATM   14  C5          0      20.891  71.561  -0.600  1.00  0.00     0.025 C 
HETATM   15  C6          0      20.830  72.651   0.256  1.00  0.00     0.004 C 
HETATM   16  C7          0      21.661  73.733  -0.018  1.00  0.00     0.026 C 
HETATM   17  C8          0      22.429  73.788  -1.176  1.00  0.00     0.112 C 
HETATM   18  C10         0      21.958  73.005  -2.222  1.00  0.00     0.112 C 
HETATM   19  C12         0      21.200  71.881  -1.916  1.00  0.00     0.028 C 
BRANCH  17  20
HETATM   20  O9          0      23.665  74.409  -1.178  1.00  0.00    -0.357 OA
HETATM   21  H9          0      24.204  74.516  -0.403  1.00  0.00     0.218 HD
ENDBRANCH  17  20
BRANCH  18  22
HETATM   22  O11         0      22.574  73.167  -3.454  1.00  0.00    -0.357 OA
HETATM   23  H11         0      23.523  73.219  -3.458  1.00  0.00     0.218 HD
ENDBRANCH  18  22
ENDBRANCH   4  14
BRANCH   8  24
HETATM   24  O17         0      25.099  66.612   1.217  1.00  0.00    -0.359 OA
HETATM   25  H17         0      25.735  67.259   1.500  1.00  0.00     0.218 HD
ENDBRANCH   8  24
TORSDOF 5
ENDMDL
MODEL 2
REMARK VINA RESULT:      -7.7      4.585      6.702
REMARK  5 active torsions:
REMARK  status: ('A' for Active; 'I' for Inactive)
REMARK    1  A    between atoms: C4_4  and  C5_5 
REMARK    2  A    between atoms: C8_8  and  O9_9 
REMARK    3  A    between atoms: C10_11  and  O11_12 
REMARK    4  A    between atoms: C16_18  and  O17_19 
REMARK    5  A    between atoms: C19_22  and  O20_23 
ROOT
HETATM    1  O1          0      26.729  66.342  -0.836  1.00  0.00    -0.286 OA
HETATM    2  C2          0      25.618  65.913  -1.253  1.00  0.00     0.201 C 
HETATM    3  C3          0      25.442  65.404  -2.529  1.00  0.00     0.067 C 
HETATM    4  C4          0      24.186  65.034  -2.998  1.00  0.00     0.103 C 
HETATM    5  O13         0      23.146  65.157  -2.192  1.00  0.00    -0.307 OA
HETATM    6  C14         0      23.253  65.669  -0.986  1.00  0.00     0.107 C 
HETATM    7  C15         0      22.152  66.165  -0.303  1.00  0.00     0.049 C 
HETATM    8  C16         0      22.301  66.928   0.849  1.00  0.00     0.093 C 
HETATM    9  C18         0      23.487  66.718   1.543  1.00  0.00     0.048 C 
HETATM   10  C19         0      24.594  66.179   0.902  1.00  0.00     0.096 C 
HETATM   11  C21         0      24.512  65.837  -0.421  1.00  0.00     0.084 C 
ENDROOT
BRANCH  10  12
HETATM   12  O20         0      25.858  66.374   1.448  1.00  0.00    -0.359 OA
HETATM   13  H20         0      26.196  67.261   1.486  1.00  0.00     0.218 HD
ENDBRANCH  10  12
BRANCH   4  14
HETATM   14  C5          0      23.968  65.093  -4.444  1.00  0.00     0.025 C 
HETATM   15  C6          0      22.752  65.450  -5.008  1.00  0.00     0.004 C 
HETATM   16  C7          0      22.779  66.232  -6.158  1.00  0.00     0.026 C 
HETATM   17  C8          0      23.972  66.538  -6.804  1.00  0.00     0.112 C 
HETATM   18  C10         0      25.009  65.649  -6.557  1.00  0.00     0.112 C 
HETATM   19  C12         0      25.002  64.942  -5.360  1.00  0.00     0.028 C 
BRANCH  17  20
HETATM   20  O9          0      24.135  67.746  -7.457  1.00  0.00    -0.357 OA
HETATM   21  H9          0      24.791  67.900  -8.128  1.00  0.00     0.218 HD
ENDBRANCH  17  20
BRANCH  18  22
HETATM   22  O11         0      26.159  65.797  -7.319  1.00  0.00    -0.357 OA
HETATM   23  H11         0      26.056  66.178  -8.183  1.00  0.00     0.218 HD
ENDBRANCH  18  22
ENDBRANCH   4  14
BRANCH   8  24
HETATM   24  O17         0      21.493  68.044   1.094  1.00  0.00    -0.359 OA
HETATM   25  H17         0      20.564  67.958   1.272  1.00  0.00     0.218 HD
ENDBRANCH   8  24
TORSDOF 5
ENDMDL
MODEL 3
REMARK VINA RESULT:      -7.2      4.770      6.512
REMARK  5 active torsions:
REMARK  status: ('A' for Active; 'I' for Inactive)
REMARK    1  A    between atoms: C4_4  and  C5_5 
REMARK    2  A    between atoms: C8_8  and  O9_9 
REMARK    3  A    between atoms: C10_11  and  O11_12 
REMARK    4  A    between atoms: C16_18  and  O17_19 
REMARK    5  A    between atoms: C19_22  and  O20_23 
ROOT
HETATM    1  O1          0      26.640  66.909  -2.563  1.00  0.00    -0.286 OA
HETATM    2  C2          0      25.535  66.304  -2.626  1.00  0.00     0.201 C 
HETATM    3  C3          0      24.984  65.871  -3.820  1.00  0.00     0.067 C 
HETATM    4  C4          0      23.718  65.298  -3.873  1.00  0.00     0.103 C 
HETATM    5  O13         0      23.041  65.149  -2.748  1.00  0.00    -0.307 OA
HETATM    6  C14         0      23.502  65.577  -1.593  1.00  0.00     0.107 C 
HETATM    7  C15         0      22.666  65.792  -0.507  1.00  0.00     0.049 C 
HETATM    8  C16         0      23.106  66.478   0.618  1.00  0.00     0.093 C 
HETATM    9  C18         0      24.481  66.452   0.820  1.00  0.00     0.048 C 
HETATM   10  C19         0      25.345  66.194  -0.235  1.00  0.00     0.096 C 
HETATM   11  C21         0      24.838  65.946  -1.482  1.00  0.00     0.084 C 
ENDROOT
BRANCH  10  12
HETATM   12  O20         0      26.675  66.591  -0.139  1.00  0.00    -0.359 OA
HETATM   13  H20         0      27.122  66.452   0.687  1.00  0.00     0.218 HD
ENDBRANCH  10  12
BRANCH   4  14
HETATM   14  C5          0      22.977  65.425  -5.130  1.00  0.00     0.025 C 
HETATM   15  C6          0      21.698  64.918  -5.303  1.00  0.00     0.004 C 
HETATM   16  C7          0      20.802  65.671  -6.055  1.00  0.00     0.026 C 
HETATM   17  C8          0      21.201  66.823  -6.726  1.00  0.00     0.112 C 
HETATM   18  C10         0      22.558  66.886  -7.012  1.00  0.00     0.112 C 
HETATM   19  C12         0      23.439  66.191  -6.192  1.00  0.00     0.028 C 
BRANCH  17  20
HETATM   20  O9          0      20.332  67.887  -6.885  1.00  0.00    -0.357 OA
HETATM   21  H9          0      19.608  68.070  -6.298  1.00  0.00     0.218 HD
ENDBRANCH  17  20
BRANCH  18  22
HETATM   22  O11         0      22.978  67.917  -7.841  1.00  0.00    -0.357 OA
HETATM   23  H11         0      23.532  68.584  -7.451  1.00  0.00     0.218 HD
ENDBRANCH  18  22
ENDBRANCH   4  14
BRANCH   8  24
HETATM   24  O17         0      22.281  67.390   1.286  1.00  0.00    -0.359 OA
HETATM   25  H17         0      21.827  67.158   2.087  1.00  0.00     0.218 HD
ENDBRANCH   8  24
TORSDOF 5
ENDMDL
MODEL 4
REMARK VINA RESULT:      -7.2      4.460      7.222
REMARK  5 active torsions:
REMARK  status: ('A' for Active; 'I' for Inactive)
REMARK    1  A    between atoms: C4_4  and  C5_5 
REMARK    2  A    between atoms: C8_8  and  O9_9 
REMARK    3  A    between atoms: C10_11  and  O11_12 
REMARK    4  A    between atoms: C16_18  and  O17_19 
REMARK    5  A    between atoms: C19_22  and  O20_23 
ROOT
HETATM    1  O1          0      26.435  65.905  -1.190  1.00  0.00    -0.286 OA
HETATM    2  C2          0      25.282  65.419  -1.353  1.00  0.00     0.201 C 
HETATM    3  C3          0      24.942  64.648  -2.451  1.00  0.00     0.067 C 
HETATM    4  C4          0      23.639  64.210  -2.658  1.00  0.00     0.103 C 
HETATM    5  O13         0      22.714  64.526  -1.769  1.00  0.00    -0.307 OA
HETATM    6  C14         0      22.976  65.287  -0.728  1.00  0.00     0.107 C 
HETATM    7  C15         0      21.972  65.942  -0.031  1.00  0.00     0.049 C 
HETATM    8  C16         0      22.266  66.935   0.895  1.00  0.00     0.093 C 
HETATM    9  C18         0      23.536  66.857   1.456  1.00  0.00     0.048 C 
HETATM   10  C19         0      24.552  66.169   0.807  1.00  0.00     0.096 C 
HETATM   11  C21         0      24.298  65.548  -0.386  1.00  0.00     0.084 C 
ENDROOT
BRANCH  10  12
HETATM   12  O20         0      25.876  66.452   1.126  1.00  0.00    -0.359 OA
HETATM   13  H20         0      26.441  65.728   1.369  1.00  0.00     0.218 HD
ENDBRANCH  10  12
BRANCH   4  14
HETATM   14  C5          0      23.229  63.956  -4.041  1.00  0.00     0.025 C 
HETATM   15  C6          0      21.943  64.200  -4.501  1.00  0.00     0.004 C 
HETATM   16  C7          0      21.805  64.713  -5.787  1.00  0.00     0.026 C 
HETATM   17  C8          0      22.897  64.853  -6.637  1.00  0.00     0.112 C 
HETATM   18  C10         0      23.971  64.024  -6.343  1.00  0.00     0.112 C 
HETATM   19  C12         0      24.133  63.594  -5.031  1.00  0.00     0.028 C 
BRANCH  17  20
HETATM   20  O9          0      22.954  65.888  -7.553  1.00  0.00    -0.357 OA
HETATM   21  H9          0      22.315  66.018  -8.244  1.00  0.00     0.218 HD
ENDBRANCH  17  20
BRANCH  18  22
HETATM   22  O11         0      25.007  63.985  -7.265  1.00  0.00    -0.357 OA
HETATM   23  H11         0      25.549  63.205  -7.271  1.00  0.00     0.218 HD
ENDBRANCH  18  22
ENDBRANCH   4  14
BRANCH   8  24
HETATM   24  O17         0      21.488  68.094   0.995  1.00  0.00    -0.359 OA
HETATM   25  H17         0      20.899  68.239   1.726  1.00  0.00     0.218 HD
ENDBRANCH   8  24
TORSDOF 5
ENDMDL
MODEL 5
REMARK VINA RESULT:      -7.1      6.739      8.852
REMARK  5 active torsions:
REMARK  status: ('A' for Active; 'I' for Inactive)
REMARK    1  A    between atoms: C4_4  and  C5_5 
REMARK    2  A    between atoms: C8_8  and  O9_9 
REMARK    3  A    between atoms: C10_11  and  O11_12 
REMARK    4  A    between atoms: C16_18  and  O17_19 
REMARK    5  A    between atoms: C19_22  and  O20_23 
ROOT
HETATM    1  O1          0      21.630  67.748  -7.918  1.00  0.00    -0.286 OA
HETATM    2  C2          0      21.767  66.696  -7.236  1.00  0.00     0.201 C 
HETATM    3  C3          0      22.151  66.708  -5.906  1.00  0.00     0.067 C 
HETATM    4  C4          0      22.394  65.532  -5.206  1.00  0.00     0.103 C 
HETATM    5  O13         0      22.232  64.378  -5.829  1.00  0.00    -0.307 OA
HETATM    6  C14         0      21.905  64.310  -7.101  1.00  0.00     0.107 C 
HETATM    7  C15         0      22.121  63.163  -7.851  1.00  0.00     0.049 C 
HETATM    8  C16         0      22.015  63.176  -9.237  1.00  0.00     0.093 C 
HETATM    9  C18         0      21.199  64.176  -9.754  1.00  0.00     0.048 C 
HETATM   10  C19         0      20.925  65.316  -9.011  1.00  0.00     0.096 C 
HETATM   11  C21         0      21.447  65.450  -7.754  1.00  0.00     0.084 C 
ENDROOT
BRANCH  10  12
HETATM   12  O20         0      20.497  66.467  -9.665  1.00  0.00    -0.359 OA
HETATM   13  H20         0      19.573  66.545  -9.871  1.00  0.00     0.218 HD
ENDBRANCH  10  12
BRANCH   4  14
HETATM   14  C5          0      23.332  65.601  -4.084  1.00  0.00     0.025 C 
HETATM   15  C6          0      23.697  64.489  -3.339  1.00  0.00     0.004 C 
HETATM   16  C7          0      25.021  64.400  -2.922  1.00  0.00     0.026 C 
HETATM   17  C8          0      25.921  65.442  -3.121  1.00  0.00     0.112 C 
HETATM   18  C10         0      25.335  66.691  -3.277  1.00  0.00     0.112 C 
HETATM   19  C12         0      24.040  66.756  -3.776  1.00  0.00     0.028 C 
BRANCH  17  20
HETATM   20  O9          0      27.261  65.187  -3.352  1.00  0.00    -0.357 OA
HETATM   21  H9          0      27.966  65.570  -2.844  1.00  0.00     0.218 HD
ENDBRANCH  17  20
BRANCH  18  22
HETATM   22  O11         0      26.187  67.787  -3.289  1.00  0.00    -0.357 OA
HETATM   23  H11         0      27.014  67.694  -2.829  1.00  0.00     0.218 HD
ENDBRANCH  18  22
ENDBRANCH   4  14
BRANCH   8  24
HETATM   24  O17         0      22.913  62.468 -10.044  1.00  0.00    -0.359 OA
HETATM   25  H17         0      22.613  61.884 -10.730  1.00  0.00     0.218 HD
ENDBRANCH   8  24
TORSDOF 5
ENDMDL
MODEL 6
REMARK VINA RESULT:      -7.1      5.289      7.342
REMARK  5 active torsions:
REMARK  status: ('A' for Active; 'I' for Inactive)
REMARK    1  A    between atoms: C4_4  and  C5_5 
REMARK    2  A    between atoms: C8_8  and  O9_9 
REMARK    3  A    between atoms: C10_11  and  O11_12 
REMARK    4  A    between atoms: C16_18  and  O17_19 
REMARK    5  A    between atoms: C19_22  and  O20_23 
ROOT
HETATM    1  O1          0      24.345  67.605  -6.552  1.00  0.00    -0.286 OA
HETATM    2  C2          0      23.860  67.215  -5.455  1.00  0.00     0.201 C 
HETATM    3  C3          0      24.573  67.236  -4.269  1.00  0.00     0.067 C 
HETATM    4  C4          0      24.050  66.705  -3.095  1.00  0.00     0.103 C 
HETATM    5  O13         0      22.835  66.187  -3.118  1.00  0.00    -0.307 OA
HETATM    6  C14         0      22.130  66.107  -4.226  1.00  0.00     0.107 C 
HETATM    7  C15         0      21.061  65.233  -4.350  1.00  0.00     0.049 C 
HETATM    8  C16         0      20.486  64.967  -5.587  1.00  0.00     0.093 C 
HETATM    9  C18         0      20.654  65.966  -6.539  1.00  0.00     0.048 C 
HETATM   10  C19         0      21.686  66.886  -6.421  1.00  0.00     0.096 C 
HETATM   11  C21         0      22.535  66.821  -5.349  1.00  0.00     0.084 C 
ENDROOT
BRANCH  10  12
HETATM   12  O20         0      22.114  67.579  -7.550  1.00  0.00    -0.359 OA
HETATM   13  H20         0      22.390  67.072  -8.304  1.00  0.00     0.218 HD
ENDBRANCH  10  12
BRANCH   4  14
HETATM   14  C5          0      25.005  66.218  -2.097  1.00  0.00     0.025 C 
HETATM   15  C6          0      26.348  66.015  -2.378  1.00  0.00     0.004 C 
HETATM   16  C7          0      27.271  66.346  -1.391  1.00  0.00     0.026 C 
HETATM   17  C8          0      26.868  66.739  -0.119  1.00  0.00     0.112 C 
HETATM   18  C10         0      25.599  66.309   0.246  1.00  0.00     0.112 C 
HETATM   19  C12         0      24.670  66.066  -0.758  1.00  0.00     0.028 C 
BRANCH  17  20
HETATM   20  O9          0      27.606  67.658   0.606  1.00  0.00    -0.357 OA
HETATM   21  H9          0      28.553  67.641   0.671  1.00  0.00     0.218 HD
ENDBRANCH  17  20
BRANCH  18  22
HETATM   22  O11         0      25.224  66.510   1.567  1.00  0.00    -0.357 OA
HETATM   23  H11         0      25.371  65.790   2.170  1.00  0.00     0.218 HD
ENDBRANCH  18  22
ENDBRANCH   4  14
BRANCH   8  24
HETATM   24  O17         0      20.077  63.676  -5.939  1.00  0.00    -0.359 OA
HETATM   25  H17         0      19.179  63.487  -6.185  1.00  0.00     0.218 HD
ENDBRANCH   8  24
TORSDOF 5
ENDMDL
MODEL 7
REMARK VINA RESULT:      -7.0      4.504      7.854
REMARK  5 active torsions:
REMARK  status: ('A' for Active; 'I' for Inactive)
REMARK    1  A    between atoms: C4_4  and  C5_5 
REMARK    2  A    between atoms: C8_8  and  O9_9 
REMARK    3  A    between atoms: C10_11  and  O11_12 
REMARK    4  A    between atoms: C16_18  and  O17_19 
REMARK    5  A    between atoms: C19_22  and  O20_23 
ROOT
HETATM    1  O1          0      26.498  66.057  -1.218  1.00  0.00    -0.286 OA
HETATM    2  C2          0      25.360  65.542  -1.399  1.00  0.00     0.201 C 
HETATM    3  C3          0      25.041  64.803  -2.525  1.00  0.00     0.067 C 
HETATM    4  C4          0      23.751  64.335  -2.748  1.00  0.00     0.103 C 
HETATM    5  O13         0      22.819  64.588  -1.846  1.00  0.00    -0.307 OA
HETATM    6  C14         0      23.060  65.316  -0.777  1.00  0.00     0.107 C 
HETATM    7  C15         0      22.038  65.914  -0.055  1.00  0.00     0.049 C 
HETATM    8  C16         0      22.304  66.880   0.909  1.00  0.00     0.093 C 
HETATM    9  C18         0      23.576  66.819   1.465  1.00  0.00     0.048 C 
HETATM   10  C19         0      24.612  66.187   0.789  1.00  0.00     0.096 C 
HETATM   11  C21         0      24.374  65.605  -0.426  1.00  0.00     0.084 C 
ENDROOT
BRANCH  10  12
HETATM   12  O20         0      25.928  66.498   1.118  1.00  0.00    -0.359 OA
HETATM   13  H20         0      26.129  66.678   2.028  1.00  0.00     0.218 HD
ENDBRANCH  10  12
BRANCH   4  14
HETATM   14  C5          0      23.346  64.121  -4.138  1.00  0.00     0.025 C 
HETATM   15  C6          0      24.238  63.741  -5.131  1.00  0.00     0.004 C 
HETATM   16  C7          0      23.790  62.835  -6.087  1.00  0.00     0.026 C 
HETATM   17  C8          0      22.463  62.422  -6.135  1.00  0.00     0.112 C 
HETATM   18  C10         0      21.561  63.300  -5.550  1.00  0.00     0.112 C 
HETATM   19  C12         0      22.016  64.136  -4.537  1.00  0.00     0.028 C 
BRANCH  17  20
HETATM   20  O9          0      22.133  61.143  -6.547  1.00  0.00    -0.357 OA
HETATM   21  H9          0      21.249  60.794  -6.530  1.00  0.00     0.218 HD
ENDBRANCH  17  20
BRANCH  18  22
HETATM   22  O11         0      20.212  63.032  -5.735  1.00  0.00    -0.357 OA
HETATM   23  H11         0      19.733  62.698  -4.986  1.00  0.00     0.218 HD
ENDBRANCH  18  22
ENDBRANCH   4  14
BRANCH   8  24
HETATM   24  O17         0      21.492  68.010   1.053  1.00  0.00    -0.359 OA
HETATM   25  H17         0      20.917  68.303   0.356  1.00  0.00     0.218 HD
ENDBRANCH   8  24
TORSDOF 5
ENDMDL
MODEL 8
REMARK VINA RESULT:      -7.0      4.567      6.687
REMARK  5 active torsions:
REMARK  status: ('A' for Active; 'I' for Inactive)
REMARK    1  A    between atoms: C4_4  and  C5_5 
REMARK    2  A    between atoms: C8_8  and  O9_9 
REMARK    3  A    between atoms: C10_11  and  O11_12 
REMARK    4  A    between atoms: C16_18  and  O17_19 
REMARK    5  A    between atoms: C19_22  and  O20_23 
ROOT
HETATM    1  O1          0      26.047  66.205   0.136  1.00  0.00    -0.286 OA
HETATM    2  C2          0      25.128  66.195  -0.728  1.00  0.00     0.201 C 
HETATM    3  C3          0      25.340  65.825  -2.045  1.00  0.00     0.067 C 
HETATM    4  C4          0      24.334  65.922  -3.000  1.00  0.00     0.103 C 
HETATM    5  O13         0      23.145  66.361  -2.627  1.00  0.00    -0.307 OA
HETATM    6  C14         0      22.901  66.761  -1.399  1.00  0.00     0.107 C 
HETATM    7  C15         0      21.820  67.577  -1.096  1.00  0.00     0.049 C 
HETATM    8  C16         0      21.710  68.200   0.141  1.00  0.00     0.093 C 
HETATM    9  C18         0      22.392  67.573   1.177  1.00  0.00     0.048 C 
HETATM   10  C19         0      23.449  66.714   0.908  1.00  0.00     0.096 C 
HETATM   11  C21         0      23.812  66.469  -0.389  1.00  0.00     0.084 C 
ENDROOT
BRANCH  10  12
HETATM   12  O20         0      24.379  66.446   1.907  1.00  0.00    -0.359 OA
HETATM   13  H20         0      24.701  65.556   1.989  1.00  0.00     0.218 HD
ENDBRANCH  10  12
BRANCH   4  14
HETATM   14  C5          0      24.748  66.105  -4.392  1.00  0.00     0.025 C 
HETATM   15  C6          0      25.619  65.239  -5.038  1.00  0.00     0.004 C 
HETATM   16  C7          0      25.366  64.949  -6.375  1.00  0.00     0.026 C 
HETATM   17  C8          0      24.363  65.600  -7.085  1.00  0.00     0.112 C 
HETATM   18  C10         0      24.000  66.838  -6.573  1.00  0.00     0.112 C 
HETATM   19  C12         0      24.185  67.072  -5.216  1.00  0.00     0.028 C 
BRANCH  17  20
HETATM   20  O9          0      23.662  64.946  -8.083  1.00  0.00    -0.357 OA
HETATM   21  H9          0      23.381  64.040  -8.024  1.00  0.00     0.218 HD
ENDBRANCH  17  20
BRANCH  18  22
HETATM   22  O11         0      23.144  67.611  -7.345  1.00  0.00    -0.357 OA
HETATM   23  H11         0      23.441  68.484  -7.574  1.00  0.00     0.218 HD
ENDBRANCH  18  22
ENDBRANCH   4  14
BRANCH   8  24
HETATM   24  O17         0      21.244  69.515   0.256  1.00  0.00    -0.359 OA
HETATM   25  H17         0      20.326  69.708   0.405  1.00  0.00     0.218 HD
ENDBRANCH   8  24
TORSDOF 5
ENDMDL
MODEL 9
REMARK VINA RESULT:      -6.9      3.518      6.173
REMARK  5 active torsions:
REMARK  status: ('A' for Active; 'I' for Inactive)
REMARK    1  A    between atoms: C4_4  and  C5_5 
REMARK    2  A    between atoms: C8_8  and  O9_9 
REMARK    3  A    between atoms: C10_11  and  O11_12 
REMARK    4  A    between atoms: C16_18  and  O17_19 
REMARK    5  A    between atoms: C19_22  and  O20_23 
ROOT
HETATM    1  O1          0      25.114  65.513  -0.132  1.00  0.00    -0.286 OA
HETATM    2  C2          0      24.064  65.933  -0.691  1.00  0.00     0.201 C 
HETATM    3  C3          0      23.642  65.483  -1.931  1.00  0.00     0.067 C 
HETATM    4  C4          0      22.539  66.036  -2.570  1.00  0.00     0.103 C 
HETATM    5  O13         0      21.871  67.001  -1.963  1.00  0.00    -0.307 OA
HETATM    6  C14         0      22.250  67.490  -0.803  1.00  0.00     0.107 C 
HETATM    7  C15         0      21.818  68.731  -0.357  1.00  0.00     0.049 C 
HETATM    8  C16         0      22.413  69.352   0.735  1.00  0.00     0.093 C 
HETATM    9  C18         0      23.035  68.493   1.633  1.00  0.00     0.048 C 
HETATM   10  C19         0      23.437  67.226   1.232  1.00  0.00     0.096 C 
HETATM   11  C21         0      23.205  66.814  -0.052  1.00  0.00     0.084 C 
ENDROOT
BRANCH  10  12
HETATM   12  O20         0      24.416  66.560   1.964  1.00  0.00    -0.359 OA
HETATM   13  H20         0      24.338  65.618   2.057  1.00  0.00     0.218 HD
ENDBRANCH  10  12
BRANCH   4  14
HETATM   14  C5          0      22.510  65.972  -4.033  1.00  0.00     0.025 C 
HETATM   15  C6          0      22.714  64.795  -4.738  1.00  0.00     0.004 C 
HETATM   16  C7          0      21.946  64.586  -5.879  1.00  0.00     0.026 C 
HETATM   17  C8          0      21.100  65.571  -6.379  1.00  0.00     0.112 C 
HETATM   18  C10         0      21.434  66.866  -6.007  1.00  0.00     0.112 C 
HETATM   19  C12         0      22.129  67.053  -4.818  1.00  0.00     0.028 C 
BRANCH  17  20
HETATM   20  O9          0      19.916  65.234  -7.011  1.00  0.00    -0.357 OA
HETATM   21  H9          0      19.423  64.445  -6.822  1.00  0.00     0.218 HD
ENDBRANCH  17  20
BRANCH  18  22
HETATM   22  O11         0      20.742  67.897  -6.627  1.00  0.00    -0.357 OA
HETATM   23  H11         0      19.821  67.749  -6.808  1.00  0.00     0.218 HD
ENDBRANCH  18  22
ENDBRANCH   4  14
BRANCH   8  24
HETATM   24  O17         0      22.656  70.730   0.747  1.00  0.00    -0.359 OA
HETATM   25  H17         0      23.501  71.090   0.505  1.00  0.00     0.218 HD
ENDBRANCH   8  24
TORSDOF 5
ENDMDL
