MODEL 1
REMARK VINA RESULT:      -6.2      0.000      0.000
REMARK  5 active torsions:
REMARK  status: ('A' for Active; 'I' for Inactive)
REMARK    1  A    between atoms: C4_4  and  C5_5 
REMARK    2  A    between atoms: C8_8  and  O9_9 
REMARK    3  A    between atoms: C10_11  and  O11_12 
REMARK    4  A    between atoms: C16_18  and  O17_19 
REMARK    5  A    between atoms: C19_22  and  O20_23 
ROOT
HETATM    1  O1          0      27.595  38.968  20.315  1.00  0.00    -0.286 OA
HETATM    2  C2          0      28.799  38.616  20.185  1.00  0.00     0.201 C 
HETATM    3  C3          0      29.690  38.582  21.245  1.00  0.00     0.067 C 
HETATM    4  C4          0      31.036  38.289  21.057  1.00  0.00     0.103 C 
HETATM    5  O13         0      31.462  38.019  19.835  1.00  0.00    -0.307 OA
HETATM    6  C14         0      30.667  38.074  18.789  1.00  0.00     0.107 C 
HETATM    7  C15         0      31.163  38.190  17.499  1.00  0.00     0.049 C 
HETATM    8  C16         0      30.331  38.502  16.431  1.00  0.00     0.093 C 
HETATM    9  C18         0      28.994  38.168  16.611  1.00  0.00     0.048 C 
HETATM   10  C19         0      28.475  37.999  17.888  1.00  0.00     0.096 C 
HETATM   11  C21         0      29.290  38.145  18.977  1.00  0.00     0.084 C 
ENDROOT
BRANCH  10  12
HETATM   12  O20         0      27.101  38.101  18.082  1.00  0.00    -0.359 OA
HETATM   13  H20         0      26.536  38.011  17.325  1.00  0.00     0.218 HD
ENDBRANCH  10  12
BRANCH   4  14
HETATM   14  C5          0      31.983  38.840  22.028  1.00  0.00     0.025 C 
HETATM   15  C6          0      32.824  38.044  22.792  1.00  0.00     0.004 C 
HETATM   16  C7          0      34.115  38.508  23.024  1.00  0.00     0.026 C 
HETATM   17  C8          0      34.516  39.779  22.626  1.00  0.00     0.112 C 
HETATM   18  C10         0      33.480  40.690  22.465  1.00  0.00     0.112 C 
HETATM   19  C12         0      32.217  40.204  22.149  1.00  0.00     0.028 C 
BRANCH  17  20
HETATM   20  O9          0      35.819  40.019  22.228  1.00  0.00    -0.357 OA
HETATM   21  H9          0      36.175  40.888  22.084  1.00  0.00     0.218 HD
ENDBRANCH  17  20
BRANCH  18  22
HETATM   22  O11         0      33.835  42.014  22.254  1.00  0.00    -0.357 OA
HETATM   23  H11         0      34.730  42.258  22.461  1.00  0.00     0.218 HD
ENDBRANCH  18  22
ENDBRANCH   4  14
BRANCH   8  24
HETATM   24  O17         0      30.741  39.377  15.419  1.00  0.00    -0.359 OA
HETATM   25  H17         0      31.659  39.561  15.260  1.00  0.00     0.218 HD
ENDBRANCH   8  24
TORSDOF 5
ENDMDL
MODEL 2
REMARK VINA RESULT:      -6.2      3.289      6.727
REMARK  5 active torsions:
REMARK  status: ('A' for Active; 'I' for Inactive)
REMARK    1  A    between atoms: C4_4  and  C5_5 
REMARK    2  A    between atoms: C8_8  and  O9_9 
REMARK    3  A    between atoms: C10_11  and  O11_12 
REMARK    4  A    between atoms: C16_18  and  O17_19 
REMARK    5  A    between atoms: C19_22  and  O20_23 
ROOT
HETATM    1  O1          0      30.624  39.185  19.032  1.00  0.00    -0.286 OA
HETATM    2  C2          0      30.510  38.285  19.908  1.00  0.00     0.201 C 
HETATM    3  C3          0      29.348  37.553  20.085  1.00  0.00     0.067 C 
HETATM    4  C4          0      29.214  36.639  21.124  1.00  0.00     0.103 C 
HETATM    5  O13         0      30.233  36.457  21.945  1.00  0.00    -0.307 OA
HETATM    6  C14         0      31.345  37.152  21.844  1.00  0.00     0.107 C 
HETATM    7  C15         0      32.236  37.264  22.902  1.00  0.00     0.049 C 
HETATM    8  C16         0      33.267  38.195  22.882  1.00  0.00     0.093 C 
HETATM    9  C18         0      33.673  38.593  21.614  1.00  0.00     0.048 C 
HETATM   10  C19         0      32.824  38.453  20.524  1.00  0.00     0.096 C 
HETATM   11  C21         0      31.584  37.902  20.697  1.00  0.00     0.084 C 
ENDROOT
BRANCH  10  12
HETATM   12  O20         0      33.043  39.225  19.388  1.00  0.00    -0.359 OA
HETATM   13  H20         0      33.013  38.792  18.543  1.00  0.00     0.218 HD
ENDBRANCH  10  12
BRANCH   4  14
HETATM   14  C5          0      27.860  36.374  21.612  1.00  0.00     0.025 C 
HETATM   15  C6          0      26.804  36.060  20.769  1.00  0.00     0.004 C 
HETATM   16  C7          0      25.890  35.107  21.207  1.00  0.00     0.026 C 
HETATM   17  C8          0      25.946  34.581  22.493  1.00  0.00     0.112 C 
HETATM   18  C10         0      26.593  35.385  23.421  1.00  0.00     0.112 C 
HETATM   19  C12         0      27.563  36.270  22.965  1.00  0.00     0.028 C 
BRANCH  17  20
HETATM   20  O9          0      25.567  33.273  22.741  1.00  0.00    -0.357 OA
HETATM   21  H9          0      24.665  32.975  22.735  1.00  0.00     0.218 HD
ENDBRANCH  17  20
BRANCH  18  22
HETATM   22  O11         0      26.513  35.000  24.752  1.00  0.00    -0.357 OA
HETATM   23  H11         0      25.991  35.547  25.327  1.00  0.00     0.218 HD
ENDBRANCH  18  22
ENDBRANCH   4  14
BRANCH   8  24
HETATM   24  O17         0      33.624  38.913  24.028  1.00  0.00    -0.359 OA
HETATM   25  H17         0      34.330  38.628  24.596  1.00  0.00     0.218 HD
ENDBRANCH   8  24
TORSDOF 5
ENDMDL
MODEL 3
REMARK VINA RESULT:      -6.1      7.315      9.197
REMARK  5 active torsions:
REMARK  status: ('A' for Active; 'I' for Inactive)
REMARK    1  A    between atoms: C4_4  and  C5_5 
REMARK    2  A    between atoms: C8_8  and  O9_9 
REMARK    3  A    between atoms: C10_11  and  O11_12 
REMARK    4  A    between atoms: C16_18  and  O17_19 
REMARK    5  A    between atoms: C19_22  and  O20_23 
ROOT
HETATM    1  O1          0      26.992  37.062  27.491  1.00  0.00    -0.286 OA
HETATM    2  C2          0      26.694  36.335  26.504  1.00  0.00     0.201 C 
HETATM    3  C3          0      26.203  35.048  26.642  1.00  0.00     0.067 C 
HETATM    4  C4          0      25.979  34.232  25.539  1.00  0.00     0.103 C 
HETATM    5  O13         0      26.225  34.713  24.333  1.00  0.00    -0.307 OA
HETATM    6  C14         0      26.727  35.914  24.149  1.00  0.00     0.107 C 
HETATM    7  C15         0      27.351  36.271  22.962  1.00  0.00     0.049 C 
HETATM    8  C16         0      28.098  37.439  22.863  1.00  0.00     0.093 C 
HETATM    9  C18         0      27.754  38.434  23.770  1.00  0.00     0.048 C 
HETATM   10  C19         0      27.088  38.118  24.945  1.00  0.00     0.096 C 
HETATM   11  C21         0      26.751  36.817  25.206  1.00  0.00     0.084 C 
ENDROOT
BRANCH  10  12
HETATM   12  O20         0      27.136  39.006  26.016  1.00  0.00    -0.359 OA
HETATM   13  H20         0      26.377  39.062  26.582  1.00  0.00     0.218 HD
ENDBRANCH  10  12
BRANCH   4  14
HETATM   14  C5          0      26.055  32.785  25.749  1.00  0.00     0.025 C 
HETATM   15  C6          0      26.081  31.873  24.704  1.00  0.00     0.004 C 
HETATM   16  C7          0      26.902  30.759  24.841  1.00  0.00     0.026 C 
HETATM   17  C8          0      27.573  30.488  26.028  1.00  0.00     0.112 C 
HETATM   18  C10         0      27.006  31.063  27.158  1.00  0.00     0.112 C 
HETATM   19  C12         0      26.260  32.225  27.004  1.00  0.00     0.028 C 
BRANCH  17  20
HETATM   20  O9          0      28.813  29.875  26.018  1.00  0.00    -0.357 OA
HETATM   21  H9          0      28.946  28.956  25.816  1.00  0.00     0.218 HD
ENDBRANCH  17  20
BRANCH  18  22
HETATM   22  O11         0      27.521  30.674  28.387  1.00  0.00    -0.357 OA
HETATM   23  H11         0      27.223  29.840  28.733  1.00  0.00     0.218 HD
ENDBRANCH  18  22
ENDBRANCH   4  14
BRANCH   8  24
HETATM   24  O17         0      29.301  37.477  22.150  1.00  0.00    -0.359 OA
HETATM   25  H17         0      30.013  38.053  22.402  1.00  0.00     0.218 HD
ENDBRANCH   8  24
TORSDOF 5
ENDMDL
MODEL 4
REMARK VINA RESULT:      -5.9      2.058      6.614
REMARK  5 active torsions:
REMARK  status: ('A' for Active; 'I' for Inactive)
REMARK    1  A    between atoms: C4_4  and  C5_5 
REMARK    2  A    between atoms: C8_8  and  O9_9 
REMARK    3  A    between atoms: C10_11  and  O11_12 
REMARK    4  A    between atoms: C16_18  and  O17_19 
REMARK    5  A    between atoms: C19_22  and  O20_23 
ROOT
HETATM    1  O1          0      32.761  39.414  19.037  1.00  0.00    -0.286 OA
HETATM    2  C2          0      31.981  38.628  19.644  1.00  0.00     0.201 C 
HETATM    3  C3          0      30.782  38.196  19.103  1.00  0.00     0.067 C 
HETATM    4  C4          0      29.894  37.413  19.833  1.00  0.00     0.103 C 
HETATM    5  O13         0      30.222  37.062  21.064  1.00  0.00    -0.307 OA
HETATM    6  C14         0      31.330  37.476  21.638  1.00  0.00     0.107 C 
HETATM    7  C15         0      31.492  37.456  23.015  1.00  0.00     0.049 C 
HETATM    8  C16         0      32.546  38.122  23.628  1.00  0.00     0.093 C 
HETATM    9  C18         0      33.660  38.326  22.822  1.00  0.00     0.048 C 
HETATM   10  C19         0      33.542  38.306  21.439  1.00  0.00     0.096 C 
HETATM   11  C21         0      32.324  38.067  20.864  1.00  0.00     0.084 C 
ENDROOT
BRANCH  10  12
HETATM   12  O20         0      34.519  38.924  20.664  1.00  0.00    -0.359 OA
HETATM   13  H20         0      34.756  39.818  20.878  1.00  0.00     0.218 HD
ENDBRANCH  10  12
BRANCH   4  14
HETATM   14  C5          0      28.477  37.501  19.478  1.00  0.00     0.025 C 
HETATM   15  C6          0      27.463  37.053  20.313  1.00  0.00     0.004 C 
HETATM   16  C7          0      26.294  37.804  20.370  1.00  0.00     0.026 C 
HETATM   17  C8          0      26.084  38.890  19.527  1.00  0.00     0.112 C 
HETATM   18  C10         0      26.825  38.865  18.353  1.00  0.00     0.112 C 
HETATM   19  C12         0      28.032  38.176  18.349  1.00  0.00     0.028 C 
BRANCH  17  20
HETATM   20  O9          0      25.355  39.987  19.951  1.00  0.00    -0.357 OA
HETATM   21  H9          0      24.794  39.983  20.719  1.00  0.00     0.218 HD
ENDBRANCH  17  20
BRANCH  18  22
HETATM   22  O11         0      26.516  39.819  17.394  1.00  0.00    -0.357 OA
HETATM   23  H11         0      26.746  39.616  16.495  1.00  0.00     0.218 HD
ENDBRANCH  18  22
ENDBRANCH   4  14
BRANCH   8  24
HETATM   24  O17         0      32.369  38.820  24.828  1.00  0.00    -0.359 OA
HETATM   25  H17         0      32.943  38.685  25.573  1.00  0.00     0.218 HD
ENDBRANCH   8  24
TORSDOF 5
ENDMDL
MODEL 5
REMARK VINA RESULT:      -5.9      2.289      7.072
REMARK  5 active torsions:
REMARK  status: ('A' for Active; 'I' for Inactive)
REMARK    1  A    between atoms: C4_4  and  C5_5 
REMARK    2  A    between atoms: C8_8  and  O9_9 
REMARK    3  A    between atoms: C10_11  and  O11_12 
REMARK    4  A    between atoms: C16_18  and  O17_19 
REMARK    5  A    between atoms: C19_22  and  O20_23 
ROOT
HETATM    1  O1          0      33.077  39.089  19.500  1.00  0.00    -0.286 OA
HETATM    2  C2          0      31.912  38.617  19.399  1.00  0.00     0.201 C 
HETATM    3  C3          0      31.212  38.595  18.205  1.00  0.00     0.067 C 
HETATM    4  C4          0      29.892  38.164  18.141  1.00  0.00     0.103 C 
HETATM    5  O13         0      29.306  37.749  19.250  1.00  0.00    -0.307 OA
HETATM    6  C14         0      29.912  37.785  20.417  1.00  0.00     0.107 C 
HETATM    7  C15         0      29.205  37.740  21.610  1.00  0.00     0.049 C 
HETATM    8  C16         0      29.817  38.032  22.823  1.00  0.00     0.093 C 
HETATM    9  C18         0      31.193  37.840  22.847  1.00  0.00     0.048 C 
HETATM   10  C19         0      31.925  37.833  21.668  1.00  0.00     0.096 C 
HETATM   11  C21         0      31.285  37.999  20.470  1.00  0.00     0.084 C 
ENDROOT
BRANCH  10  12
HETATM   12  O20         0      33.294  38.078  21.716  1.00  0.00    -0.359 OA
HETATM   13  H20         0      33.882  37.349  21.562  1.00  0.00     0.218 HD
ENDBRANCH  10  12
BRANCH   4  14
HETATM   14  C5          0      29.060  38.709  17.066  1.00  0.00     0.025 C 
HETATM   15  C6          0      29.584  39.142  15.857  1.00  0.00     0.004 C 
HETATM   16  C7          0      28.851  38.877  14.705  1.00  0.00     0.026 C 
HETATM   17  C8          0      27.577  38.320  14.763  1.00  0.00     0.112 C 
HETATM   18  C10         0      26.914  38.515  15.967  1.00  0.00     0.112 C 
HETATM   19  C12         0      27.673  38.693  17.118  1.00  0.00     0.028 C 
BRANCH  17  20
HETATM   20  O9          0      27.129  37.470  13.768  1.00  0.00    -0.357 OA
HETATM   21  H9          0      27.585  37.334  12.944  1.00  0.00     0.218 HD
ENDBRANCH  17  20
BRANCH  18  22
HETATM   22  O11         0      25.577  38.148  16.014  1.00  0.00    -0.357 OA
HETATM   23  H11         0      25.003  38.681  16.552  1.00  0.00     0.218 HD
ENDBRANCH  18  22
ENDBRANCH   4  14
BRANCH   8  24
HETATM   24  O17         0      29.159  38.773  23.811  1.00  0.00    -0.359 OA
HETATM   25  H17         0      28.403  39.313  23.611  1.00  0.00     0.218 HD
ENDBRANCH   8  24
TORSDOF 5
ENDMDL
MODEL 6
REMARK VINA RESULT:      -5.8      3.980      6.133
REMARK  5 active torsions:
REMARK  status: ('A' for Active; 'I' for Inactive)
REMARK    1  A    between atoms: C4_4  and  C5_5 
REMARK    2  A    between atoms: C8_8  and  O9_9 
REMARK    3  A    between atoms: C10_11  and  O11_12 
REMARK    4  A    between atoms: C16_18  and  O17_19 
REMARK    5  A    between atoms: C19_22  and  O20_23 
ROOT
HETATM    1  O1          0      30.334  41.694  24.342  1.00  0.00    -0.286 OA
HETATM    2  C2          0      31.276  41.676  23.504  1.00  0.00     0.201 C 
HETATM    3  C3          0      31.584  42.760  22.698  1.00  0.00     0.067 C 
HETATM    4  C4          0      32.561  42.680  21.712  1.00  0.00     0.103 C 
HETATM    5  O13         0      33.219  41.544  21.561  1.00  0.00    -0.307 OA
HETATM    6  C14         0      32.940  40.474  22.273  1.00  0.00     0.107 C 
HETATM    7  C15         0      33.324  39.205  21.866  1.00  0.00     0.049 C 
HETATM    8  C16         0      32.814  38.066  22.479  1.00  0.00     0.093 C 
HETATM    9  C18         0      32.368  38.250  23.782  1.00  0.00     0.048 C 
HETATM   10  C19         0      32.020  39.515  24.236  1.00  0.00     0.096 C 
HETATM   11  C21         0      32.134  40.592  23.400  1.00  0.00     0.084 C 
ENDROOT
BRANCH  10  12
HETATM   12  O20         0      31.188  39.634  25.345  1.00  0.00    -0.359 OA
HETATM   13  H20         0      30.375  39.143  25.346  1.00  0.00     0.218 HD
ENDBRANCH  10  12
BRANCH   4  14
HETATM   14  C5          0      32.424  43.574  20.560  1.00  0.00     0.025 C 
HETATM   15  C6          0      33.197  44.715  20.399  1.00  0.00     0.004 C 
HETATM   16  C7          0      33.622  45.028  19.112  1.00  0.00     0.026 C 
HETATM   17  C8          0      33.185  44.309  18.004  1.00  0.00     0.112 C 
HETATM   18  C10         0      31.980  43.644  18.183  1.00  0.00     0.112 C 
HETATM   19  C12         0      31.619  43.267  19.471  1.00  0.00     0.028 C 
BRANCH  17  20
HETATM   20  O9          0      34.011  44.122  16.910  1.00  0.00    -0.357 OA
HETATM   21  H9          0      34.481  43.315  16.735  1.00  0.00     0.218 HD
ENDBRANCH  17  20
BRANCH  18  22
HETATM   22  O11         0      31.405  43.070  17.058  1.00  0.00    -0.357 OA
HETATM   23  H11         0      31.335  43.618  16.284  1.00  0.00     0.218 HD
ENDBRANCH  18  22
ENDBRANCH   4  14
BRANCH   8  24
HETATM   24  O17         0      32.469  36.931  21.736  1.00  0.00    -0.359 OA
HETATM   25  H17         0      31.614  36.839  21.334  1.00  0.00     0.218 HD
ENDBRANCH   8  24
TORSDOF 5
ENDMDL
MODEL 7
REMARK VINA RESULT:      -5.8      8.662     10.295
REMARK  5 active torsions:
REMARK  status: ('A' for Active; 'I' for Inactive)
REMARK    1  A    between atoms: C4_4  and  C5_5 
REMARK    2  A    between atoms: C8_8  and  O9_9 
REMARK    3  A    between atoms: C10_11  and  O11_12 
REMARK    4  A    between atoms: C16_18  and  O17_19 
REMARK    5  A    between atoms: C19_22  and  O20_23 
ROOT
HETATM    1  O1          0      25.889  32.882  23.155  1.00  0.00    -0.286 OA
HETATM    2  C2          0      25.888  32.964  24.414  1.00  0.00     0.201 C 
HETATM    3  C3          0      25.434  34.081  25.093  1.00  0.00     0.067 C 
HETATM    4  C4          0      25.538  34.187  26.476  1.00  0.00     0.103 C 
HETATM    5  O13         0      26.067  33.181  27.150  1.00  0.00    -0.307 OA
HETATM    6  C14         0      26.548  32.114  26.552  1.00  0.00     0.107 C 
HETATM    7  C15         0      27.442  31.262  27.184  1.00  0.00     0.049 C 
HETATM    8  C16         0      28.138  30.290  26.474  1.00  0.00     0.093 C 
HETATM    9  C18         0      27.529  29.875  25.296  1.00  0.00     0.048 C 
HETATM   10  C19         0      26.595  30.683  24.662  1.00  0.00     0.096 C 
HETATM   11  C21         0      26.258  31.890  25.210  1.00  0.00     0.084 C 
ENDROOT
BRANCH  10  12
HETATM   12  O20         0      26.327  30.482  23.312  1.00  0.00    -0.359 OA
HETATM   13  H20         0      26.629  29.674  22.913  1.00  0.00     0.218 HD
ENDBRANCH  10  12
BRANCH   4  14
HETATM   14  C5          0      25.619  35.535  27.040  1.00  0.00     0.025 C 
HETATM   15  C6          0      26.793  36.274  27.056  1.00  0.00     0.004 C 
HETATM   16  C7          0      26.696  37.642  26.821  1.00  0.00     0.026 C 
HETATM   17  C8          0      25.464  38.277  26.708  1.00  0.00     0.112 C 
HETATM   18  C10         0      24.411  37.612  27.320  1.00  0.00     0.112 C 
HETATM   19  C12         0      24.496  36.232  27.466  1.00  0.00     0.028 C 
BRANCH  17  20
HETATM   20  O9          0      25.302  39.365  25.869  1.00  0.00    -0.357 OA
HETATM   21  H9          0      25.335  39.310  24.921  1.00  0.00     0.218 HD
ENDBRANCH  17  20
BRANCH  18  22
HETATM   22  O11         0      23.202  38.289  27.402  1.00  0.00    -0.357 OA
HETATM   23  H11         0      22.496  37.977  26.848  1.00  0.00     0.218 HD
ENDBRANCH  18  22
ENDBRANCH   4  14
BRANCH   8  24
HETATM   24  O17         0      29.482  30.012  26.746  1.00  0.00    -0.359 OA
HETATM   25  H17         0      29.745  29.233  27.221  1.00  0.00     0.218 HD
ENDBRANCH   8  24
TORSDOF 5
ENDMDL
MODEL 8
REMARK VINA RESULT:      -5.7      5.792      8.729
REMARK  5 active torsions:
REMARK  status: ('A' for Active; 'I' for Inactive)
REMARK    1  A    between atoms: C4_4  and  C5_5 
REMARK    2  A    between atoms: C8_8  and  O9_9 
REMARK    3  A    between atoms: C10_11  and  O11_12 
REMARK    4  A    between atoms: C16_18  and  O17_19 
REMARK    5  A    between atoms: C19_22  and  O20_23 
ROOT
HETATM    1  O1          0      30.351  45.888  13.271  1.00  0.00    -0.286 OA
HETATM    2  C2          0      30.479  44.662  13.001  1.00  0.00     0.201 C 
HETATM    3  C3          0      29.688  43.681  13.575  1.00  0.00     0.067 C 
HETATM    4  C4          0      29.917  42.330  13.338  1.00  0.00     0.103 C 
HETATM    5  O13         0      30.903  41.985  12.529  1.00  0.00    -0.307 OA
HETATM    6  C14         0      31.706  42.875  11.988  1.00  0.00     0.107 C 
HETATM    7  C15         0      32.950  42.524  11.483  1.00  0.00     0.049 C 
HETATM    8  C16         0      33.892  43.490  11.150  1.00  0.00     0.093 C 
HETATM    9  C18         0      33.368  44.740  10.843  1.00  0.00     0.048 C 
HETATM   10  C19         0      32.107  45.106  11.294  1.00  0.00     0.096 C 
HETATM   11  C21         0      31.367  44.222  12.031  1.00  0.00     0.084 C 
ENDROOT
BRANCH  10  12
HETATM   12  O20         0      31.776  46.455  11.367  1.00  0.00    -0.359 OA
HETATM   13  H20         0      31.965  47.002  10.614  1.00  0.00     0.218 HD
ENDBRANCH  10  12
BRANCH   4  14
HETATM   14  C5          0      29.494  41.388  14.376  1.00  0.00     0.025 C 
HETATM   15  C6          0      29.067  40.098  14.092  1.00  0.00     0.004 C 
HETATM   16  C7          0      29.446  39.087  14.969  1.00  0.00     0.026 C 
HETATM   17  C8          0      30.111  39.363  16.158  1.00  0.00     0.112 C 
HETATM   18  C10         0      29.926  40.652  16.640  1.00  0.00     0.112 C 
HETATM   19  C12         0      29.632  41.661  15.731  1.00  0.00     0.028 C 
BRANCH  17  20
HETATM   20  O9          0      31.039  38.476  16.674  1.00  0.00    -0.357 OA
HETATM   21  H9          0      31.513  37.843  16.148  1.00  0.00     0.218 HD
ENDBRANCH  17  20
BRANCH  18  22
HETATM   22  O11         0      30.409  40.923  17.912  1.00  0.00    -0.357 OA
HETATM   23  H11         0      30.883  40.225  18.350  1.00  0.00     0.218 HD
ENDBRANCH  18  22
ENDBRANCH   4  14
BRANCH   8  24
HETATM   24  O17         0      35.251  43.310  11.431  1.00  0.00    -0.359 OA
HETATM   25  H17         0      35.840  44.048  11.538  1.00  0.00     0.218 HD
ENDBRANCH   8  24
TORSDOF 5
ENDMDL
MODEL 9
REMARK VINA RESULT:      -5.6      2.706      6.630
REMARK  5 active torsions:
REMARK  status: ('A' for Active; 'I' for Inactive)
REMARK    1  A    between atoms: C4_4  and  C5_5 
REMARK    2  A    between atoms: C8_8  and  O9_9 
REMARK    3  A    between atoms: C10_11  and  O11_12 
REMARK    4  A    between atoms: C16_18  and  O17_19 
REMARK    5  A    between atoms: C19_22  and  O20_23 
ROOT
HETATM    1  O1          0      30.546  39.200  19.042  1.00  0.00    -0.286 OA
HETATM    2  C2          0      30.470  38.304  19.928  1.00  0.00     0.201 C 
HETATM    3  C3          0      29.318  37.573  20.159  1.00  0.00     0.067 C 
HETATM    4  C4          0      29.229  36.665  21.208  1.00  0.00     0.103 C 
HETATM    5  O13         0      30.283  36.488  21.985  1.00  0.00    -0.307 OA
HETATM    6  C14         0      31.388  37.184  21.833  1.00  0.00     0.107 C 
HETATM    7  C15         0      32.324  37.301  22.850  1.00  0.00     0.049 C 
HETATM    8  C16         0      33.353  38.232  22.780  1.00  0.00     0.093 C 
HETATM    9  C18         0      33.704  38.624  21.494  1.00  0.00     0.048 C 
HETATM   10  C19         0      32.809  38.477  20.443  1.00  0.00     0.096 C 
HETATM   11  C21         0      31.577  37.926  20.672  1.00  0.00     0.084 C 
ENDROOT
BRANCH  10  12
HETATM   12  O20         0      32.978  39.242  19.293  1.00  0.00    -0.359 OA
HETATM   13  H20         0      33.861  39.369  18.968  1.00  0.00     0.218 HD
ENDBRANCH  10  12
BRANCH   4  14
HETATM   14  C5          0      27.897  36.403  21.756  1.00  0.00     0.025 C 
HETATM   15  C6          0      27.515  36.805  23.027  1.00  0.00     0.004 C 
HETATM   16  C7          0      26.213  37.267  23.193  1.00  0.00     0.026 C 
HETATM   17  C8          0      25.281  37.206  22.163  1.00  0.00     0.112 C 
HETATM   18  C10         0      25.549  36.248  21.194  1.00  0.00     0.112 C 
HETATM   19  C12         0      26.869  35.867  20.991  1.00  0.00     0.028 C 
BRANCH  17  20
HETATM   20  O9          0      24.302  38.176  22.035  1.00  0.00    -0.357 OA
HETATM   21  H9          0      23.604  38.140  21.390  1.00  0.00     0.218 HD
ENDBRANCH  17  20
BRANCH  18  22
HETATM   22  O11         0      24.559  36.016  20.250  1.00  0.00    -0.357 OA
HETATM   23  H11         0      24.844  35.873  19.354  1.00  0.00     0.218 HD
ENDBRANCH  18  22
ENDBRANCH   4  14
BRANCH   8  24
HETATM   24  O17         0      33.759  38.958  23.906  1.00  0.00    -0.359 OA
HETATM   25  H17         0      34.494  38.681  24.440  1.00  0.00     0.218 HD
ENDBRANCH   8  24
TORSDOF 5
ENDMDL
