MODEL 1
REMARK VINA RESULT:      -5.9      0.000      0.000
REMARK  5 active torsions:
REMARK  status: ('A' for Active; 'I' for Inactive)
REMARK    1  A    between atoms: C4_4  and  C5_5 
REMARK    2  A    between atoms: C8_8  and  O9_9 
REMARK    3  A    between atoms: C10_11  and  O11_12 
REMARK    4  A    between atoms: C16_18  and  O17_19 
REMARK    5  A    between atoms: C19_22  and  O20_23 
ROOT
HETATM    1  O1          0      26.329  60.756 -21.280  1.00  0.00    -0.286 OA
HETATM    2  C2          0      26.374  59.628 -21.843  1.00  0.00     0.201 C 
HETATM    3  C3          0      26.001  58.456 -21.206  1.00  0.00     0.067 C 
HETATM    4  C4          0      26.157  57.216 -21.813  1.00  0.00     0.103 C 
HETATM    5  O13         0      26.656  57.165 -23.035  1.00  0.00    -0.307 OA
HETATM    6  C14         0      27.061  58.243 -23.670  1.00  0.00     0.107 C 
HETATM    7  C15         0      27.931  58.173 -24.748  1.00  0.00     0.049 C 
HETATM    8  C16         0      28.552  59.311 -25.250  1.00  0.00     0.093 C 
HETATM    9  C18         0      27.884  60.503 -25.000  1.00  0.00     0.048 C 
HETATM   10  C19         0      26.971  60.595 -23.957  1.00  0.00     0.096 C 
HETATM   11  C21         0      26.716  59.498 -23.180  1.00  0.00     0.084 C 
ENDROOT
BRANCH  10  12
HETATM   12  O20         0      26.648  61.847 -23.445  1.00  0.00    -0.359 OA
HETATM   13  H20         0      25.879  61.917 -22.892  1.00  0.00     0.218 HD
ENDBRANCH  10  12
BRANCH   4  14
HETATM   14  C5          0      26.326  56.057 -20.934  1.00  0.00     0.025 C 
HETATM   15  C6          0      25.267  55.256 -20.534  1.00  0.00     0.004 C 
HETATM   16  C7          0      25.492  53.886 -20.445  1.00  0.00     0.026 C 
HETATM   17  C8          0      26.760  53.342 -20.617  1.00  0.00     0.112 C 
HETATM   18  C10         0      27.806  54.225 -20.380  1.00  0.00     0.112 C 
HETATM   19  C12         0      27.577  55.584 -20.558  1.00  0.00     0.028 C 
BRANCH  17  20
HETATM   20  O9          0      26.925  52.091 -21.184  1.00  0.00    -0.357 OA
HETATM   21  H9          0      26.659  51.282 -20.763  1.00  0.00     0.218 HD
ENDBRANCH  17  20
BRANCH  18  22
HETATM   22  O11         0      29.086  53.689 -20.352  1.00  0.00    -0.357 OA
HETATM   23  H11         0      29.475  53.548 -19.496  1.00  0.00     0.218 HD
ENDBRANCH  18  22
ENDBRANCH   4  14
BRANCH   8  24
HETATM   24  O17         0      29.889  59.289 -25.663  1.00  0.00    -0.359 OA
HETATM   25  H17         0      30.434  60.067 -25.632  1.00  0.00     0.218 HD
ENDBRANCH   8  24
TORSDOF 5
ENDMDL
MODEL 2
REMARK VINA RESULT:      -5.9      3.185      4.791
REMARK  5 active torsions:
REMARK  status: ('A' for Active; 'I' for Inactive)
REMARK    1  A    between atoms: C4_4  and  C5_5 
REMARK    2  A    between atoms: C8_8  and  O9_9 
REMARK    3  A    between atoms: C10_11  and  O11_12 
REMARK    4  A    between atoms: C16_18  and  O17_19 
REMARK    5  A    between atoms: C19_22  and  O20_23 
ROOT
HETATM    1  O1          0      27.746  56.861 -21.677  1.00  0.00    -0.286 OA
HETATM    2  C2          0      26.961  57.109 -22.633  1.00  0.00     0.201 C 
HETATM    3  C3          0      26.639  56.173 -23.601  1.00  0.00     0.067 C 
HETATM    4  C4          0      25.853  56.502 -24.700  1.00  0.00     0.103 C 
HETATM    5  O13         0      25.391  57.735 -24.802  1.00  0.00    -0.307 OA
HETATM    6  C14         0      25.696  58.671 -23.931  1.00  0.00     0.107 C 
HETATM    7  C15         0      25.561  60.020 -24.229  1.00  0.00     0.049 C 
HETATM    8  C16         0      26.118  60.998 -23.415  1.00  0.00     0.093 C 
HETATM    9  C18         0      26.321  60.617 -22.094  1.00  0.00     0.048 C 
HETATM   10  C19         0      26.414  59.275 -21.753  1.00  0.00     0.096 C 
HETATM   11  C21         0      26.289  58.318 -22.724  1.00  0.00     0.084 C 
ENDROOT
BRANCH  10  12
HETATM   12  O20         0      27.035  58.917 -20.561  1.00  0.00    -0.359 OA
HETATM   13  H20         0      27.860  59.334 -20.346  1.00  0.00     0.218 HD
ENDBRANCH  10  12
BRANCH   4  14
HETATM   14  C5          0      26.048  55.718 -25.921  1.00  0.00     0.025 C 
HETATM   15  C6          0      26.638  56.239 -27.063  1.00  0.00     0.004 C 
HETATM   16  C7          0      27.483  55.406 -27.789  1.00  0.00     0.026 C 
HETATM   17  C8          0      27.633  54.061 -27.469  1.00  0.00     0.112 C 
HETATM   18  C10         0      26.571  53.511 -26.764  1.00  0.00     0.112 C 
HETATM   19  C12         0      25.794  54.354 -25.978  1.00  0.00     0.028 C 
BRANCH  17  20
HETATM   20  O9          0      28.841  53.417 -27.666  1.00  0.00    -0.357 OA
HETATM   21  H9          0      29.350  53.025 -26.965  1.00  0.00     0.218 HD
ENDBRANCH  17  20
BRANCH  18  22
HETATM   22  O11         0      26.582  52.135 -26.584  1.00  0.00    -0.357 OA
HETATM   23  H11         0      26.664  51.600 -27.365  1.00  0.00     0.218 HD
ENDBRANCH  18  22
ENDBRANCH   4  14
BRANCH   8  24
HETATM   24  O17         0      26.730  62.135 -23.955  1.00  0.00    -0.359 OA
HETATM   25  H17         0      26.224  62.890 -24.231  1.00  0.00     0.218 HD
ENDBRANCH   8  24
TORSDOF 5
ENDMDL
MODEL 3
REMARK VINA RESULT:      -5.7      2.140      5.931
REMARK  5 active torsions:
REMARK  status: ('A' for Active; 'I' for Inactive)
REMARK    1  A    between atoms: C4_4  and  C5_5 
REMARK    2  A    between atoms: C8_8  and  O9_9 
REMARK    3  A    between atoms: C10_11  and  O11_12 
REMARK    4  A    between atoms: C16_18  and  O17_19 
REMARK    5  A    between atoms: C19_22  and  O20_23 
ROOT
HETATM    1  O1          0      25.556  60.356 -22.416  1.00  0.00    -0.286 OA
HETATM    2  C2          0      26.435  59.477 -22.629  1.00  0.00     0.201 C 
HETATM    3  C3          0      27.393  59.598 -23.621  1.00  0.00     0.067 C 
HETATM    4  C4          0      28.285  58.569 -23.903  1.00  0.00     0.103 C 
HETATM    5  O13         0      28.222  57.461 -23.186  1.00  0.00    -0.307 OA
HETATM    6  C14         0      27.308  57.279 -22.258  1.00  0.00     0.107 C 
HETATM    7  C15         0      26.979  56.014 -21.793  1.00  0.00     0.049 C 
HETATM    8  C16         0      25.850  55.804 -21.010  1.00  0.00     0.093 C 
HETATM    9  C18         0      25.410  56.917 -20.304  1.00  0.00     0.048 C 
HETATM   10  C19         0      25.759  58.196 -20.714  1.00  0.00     0.096 C 
HETATM   11  C21         0      26.557  58.362 -21.813  1.00  0.00     0.084 C 
ENDROOT
BRANCH  10  12
HETATM   12  O20         0      24.991  59.278 -20.296  1.00  0.00    -0.359 OA
HETATM   13  H20         0      25.276  60.149 -20.545  1.00  0.00     0.218 HD
ENDBRANCH  10  12
BRANCH   4  14
HETATM   14  C5          0      28.818  58.499 -25.264  1.00  0.00     0.025 C 
HETATM   15  C6          0      29.941  57.754 -25.594  1.00  0.00     0.004 C 
HETATM   16  C7          0      29.935  57.084 -26.813  1.00  0.00     0.026 C 
HETATM   17  C8          0      28.907  57.255 -27.734  1.00  0.00     0.112 C 
HETATM   18  C10         0      28.203  58.445 -27.604  1.00  0.00     0.112 C 
HETATM   19  C12         0      28.155  59.050 -26.353  1.00  0.00     0.028 C 
BRANCH  17  20
HETATM   20  O9          0      28.510  56.214 -28.555  1.00  0.00    -0.357 OA
HETATM   21  H9          0      27.649  56.155 -28.953  1.00  0.00     0.218 HD
ENDBRANCH  17  20
BRANCH  18  22
HETATM   22  O11         0      27.296  58.752 -28.607  1.00  0.00    -0.357 OA
HETATM   23  H11         0      27.501  59.499 -29.158  1.00  0.00     0.218 HD
ENDBRANCH  18  22
ENDBRANCH   4  14
BRANCH   8  24
HETATM   24  O17         0      25.040  54.677 -21.187  1.00  0.00    -0.359 OA
HETATM   25  H17         0      24.176  54.739 -21.578  1.00  0.00     0.218 HD
ENDBRANCH   8  24
TORSDOF 5
ENDMDL
MODEL 4
REMARK VINA RESULT:      -5.6      1.787      2.383
REMARK  5 active torsions:
REMARK  status: ('A' for Active; 'I' for Inactive)
REMARK    1  A    between atoms: C4_4  and  C5_5 
REMARK    2  A    between atoms: C8_8  and  O9_9 
REMARK    3  A    between atoms: C10_11  and  O11_12 
REMARK    4  A    between atoms: C16_18  and  O17_19 
REMARK    5  A    between atoms: C19_22  and  O20_23 
ROOT
HETATM    1  O1          0      25.258  58.394 -20.901  1.00  0.00    -0.286 OA
HETATM    2  C2          0      25.684  57.656 -21.833  1.00  0.00     0.201 C 
HETATM    3  C3          0      25.604  56.275 -21.792  1.00  0.00     0.067 C 
HETATM    4  C4          0      26.172  55.483 -22.783  1.00  0.00     0.103 C 
HETATM    5  O13         0      26.783  56.073 -23.795  1.00  0.00    -0.307 OA
HETATM    6  C14         0      26.920  57.379 -23.863  1.00  0.00     0.107 C 
HETATM    7  C15         0      27.876  57.973 -24.675  1.00  0.00     0.049 C 
HETATM    8  C16         0      28.188  59.322 -24.554  1.00  0.00     0.093 C 
HETATM    9  C18         0      27.182  60.111 -24.011  1.00  0.00     0.048 C 
HETATM   10  C19         0      26.183  59.542 -23.232  1.00  0.00     0.096 C 
HETATM   11  C21         0      26.179  58.192 -23.012  1.00  0.00     0.084 C 
ENDROOT
BRANCH  10  12
HETATM   12  O20         0      25.462  60.348 -22.356  1.00  0.00    -0.359 OA
HETATM   13  H20         0      24.594  60.628 -22.621  1.00  0.00     0.218 HD
ENDBRANCH  10  12
BRANCH   4  14
HETATM   14  C5          0      26.581  54.128 -22.406  1.00  0.00     0.025 C 
HETATM   15  C6          0      26.453  53.636 -21.115  1.00  0.00     0.004 C 
HETATM   16  C7          0      26.075  52.306 -20.967  1.00  0.00     0.026 C 
HETATM   17  C8          0      25.959  51.454 -22.061  1.00  0.00     0.112 C 
HETATM   18  C10         0      26.696  51.837 -23.174  1.00  0.00     0.112 C 
HETATM   19  C12         0      26.987  53.186 -23.341  1.00  0.00     0.028 C 
BRANCH  17  20
HETATM   20  O9          0      25.016  50.442 -22.074  1.00  0.00    -0.357 OA
HETATM   21  H9          0      24.146  50.526 -21.700  1.00  0.00     0.218 HD
ENDBRANCH  17  20
BRANCH  18  22
HETATM   22  O11         0      26.767  50.930 -24.222  1.00  0.00    -0.357 OA
HETATM   23  H11         0      25.949  50.698 -24.646  1.00  0.00     0.218 HD
ENDBRANCH  18  22
ENDBRANCH   4  14
BRANCH   8  24
HETATM   24  O17         0      29.508  59.776 -24.652  1.00  0.00    -0.359 OA
HETATM   25  H17         0      30.240  59.174 -24.719  1.00  0.00     0.218 HD
ENDBRANCH   8  24
TORSDOF 5
ENDMDL
MODEL 5
REMARK VINA RESULT:      -5.5      3.255      5.358
REMARK  5 active torsions:
REMARK  status: ('A' for Active; 'I' for Inactive)
REMARK    1  A    between atoms: C4_4  and  C5_5 
REMARK    2  A    between atoms: C8_8  and  O9_9 
REMARK    3  A    between atoms: C10_11  and  O11_12 
REMARK    4  A    between atoms: C16_18  and  O17_19 
REMARK    5  A    between atoms: C19_22  and  O20_23 
ROOT
HETATM    1  O1          0      27.698  56.820 -21.657  1.00  0.00    -0.286 OA
HETATM    2  C2          0      26.963  57.073 -22.650  1.00  0.00     0.201 C 
HETATM    3  C3          0      26.702  56.146 -23.646  1.00  0.00     0.067 C 
HETATM    4  C4          0      25.974  56.483 -24.781  1.00  0.00     0.103 C 
HETATM    5  O13         0      25.505  57.713 -24.893  1.00  0.00    -0.307 OA
HETATM    6  C14         0      25.756  58.641 -23.996  1.00  0.00     0.107 C 
HETATM    7  C15         0      25.624  59.992 -24.284  1.00  0.00     0.049 C 
HETATM    8  C16         0      26.127  60.965 -23.429  1.00  0.00     0.093 C 
HETATM    9  C18         0      26.263  60.569 -22.104  1.00  0.00     0.048 C 
HETATM   10  C19         0      26.350  59.223 -21.775  1.00  0.00     0.096 C 
HETATM   11  C21         0      26.286  58.277 -22.763  1.00  0.00     0.084 C 
ENDROOT
BRANCH  10  12
HETATM   12  O20         0      26.910  58.855 -20.556  1.00  0.00    -0.359 OA
HETATM   13  H20         0      26.385  58.326 -19.967  1.00  0.00     0.218 HD
ENDBRANCH  10  12
BRANCH   4  14
HETATM   14  C5          0      26.240  55.716 -25.999  1.00  0.00     0.025 C 
HETATM   15  C6          0      25.386  54.729 -26.469  1.00  0.00     0.004 C 
HETATM   16  C7          0      25.207  54.632 -27.845  1.00  0.00     0.026 C 
HETATM   17  C8          0      25.953  55.399 -28.733  1.00  0.00     0.112 C 
HETATM   18  C10         0      27.165  55.853 -28.231  1.00  0.00     0.112 C 
HETATM   19  C12         0      27.289  56.022 -26.857  1.00  0.00     0.028 C 
BRANCH  17  20
HETATM   20  O9          0      25.406  55.831 -29.928  1.00  0.00    -0.357 OA
HETATM   21  H9          0      25.701  56.605 -30.395  1.00  0.00     0.218 HD
ENDBRANCH  17  20
BRANCH  18  22
HETATM   22  O11         0      28.030  56.459 -29.130  1.00  0.00    -0.357 OA
HETATM   23  H11         0      28.172  56.014 -29.958  1.00  0.00     0.218 HD
ENDBRANCH  18  22
ENDBRANCH   4  14
BRANCH   8  24
HETATM   24  O17         0      26.757  62.113 -23.922  1.00  0.00    -0.359 OA
HETATM   25  H17         0      26.998  62.196 -24.836  1.00  0.00     0.218 HD
ENDBRANCH   8  24
TORSDOF 5
ENDMDL
MODEL 6
REMARK VINA RESULT:      -5.5      5.594      8.163
REMARK  5 active torsions:
REMARK  status: ('A' for Active; 'I' for Inactive)
REMARK    1  A    between atoms: C4_4  and  C5_5 
REMARK    2  A    between atoms: C8_8  and  O9_9 
REMARK    3  A    between atoms: C10_11  and  O11_12 
REMARK    4  A    between atoms: C16_18  and  O17_19 
REMARK    5  A    between atoms: C19_22  and  O20_23 
ROOT
HETATM    1  O1          0      25.116  55.293 -30.188  1.00  0.00    -0.286 OA
HETATM    2  C2          0      25.789  56.340 -29.981  1.00  0.00     0.201 C 
HETATM    3  C3          0      26.629  56.489 -28.891  1.00  0.00     0.067 C 
HETATM    4  C4          0      27.279  57.691 -28.632  1.00  0.00     0.103 C 
HETATM    5  O13         0      27.100  58.702 -29.463  1.00  0.00    -0.307 OA
HETATM    6  C14         0      26.284  58.625 -30.491  1.00  0.00     0.107 C 
HETATM    7  C15         0      25.787  59.760 -31.116  1.00  0.00     0.049 C 
HETATM    8  C16         0      24.739  59.683 -32.025  1.00  0.00     0.093 C 
HETATM    9  C18         0      24.595  58.451 -32.652  1.00  0.00     0.048 C 
HETATM   10  C19         0      25.121  57.302 -32.077  1.00  0.00     0.096 C 
HETATM   11  C21         0      25.801  57.385 -30.893  1.00  0.00     0.084 C 
ENDROOT
BRANCH  10  12
HETATM   12  O20         0      24.617  56.061 -32.455  1.00  0.00    -0.359 OA
HETATM   13  H20         0      25.180  55.487 -32.961  1.00  0.00     0.218 HD
ENDBRANCH  10  12
BRANCH   4  14
HETATM   14  C5          0      27.627  57.976 -27.239  1.00  0.00     0.025 C 
HETATM   15  C6          0      28.911  58.319 -26.839  1.00  0.00     0.004 C 
HETATM   16  C7          0      29.041  59.285 -25.847  1.00  0.00     0.026 C 
HETATM   17  C8          0      27.934  59.797 -25.178  1.00  0.00     0.112 C 
HETATM   18  C10         0      26.818  58.971 -25.187  1.00  0.00     0.112 C 
HETATM   19  C12         0      26.670  58.073 -26.237  1.00  0.00     0.028 C 
BRANCH  17  20
HETATM   20  O9          0      27.916  61.109 -24.740  1.00  0.00    -0.357 OA
HETATM   21  H9          0      28.516  61.458 -24.091  1.00  0.00     0.218 HD
ENDBRANCH  17  20
BRANCH  18  22
HETATM   22  O11         0      25.754  59.345 -24.380  1.00  0.00    -0.357 OA
HETATM   23  H11         0      25.028  58.734 -24.314  1.00  0.00     0.218 HD
ENDBRANCH  18  22
ENDBRANCH   4  14
BRANCH   8  24
HETATM   24  O17         0      23.722  60.644 -32.049  1.00  0.00    -0.359 OA
HETATM   25  H17         0      23.027  60.618 -32.696  1.00  0.00     0.218 HD
ENDBRANCH   8  24
TORSDOF 5
ENDMDL
MODEL 7
REMARK VINA RESULT:      -5.4      3.394      4.595
REMARK  5 active torsions:
REMARK  status: ('A' for Active; 'I' for Inactive)
REMARK    1  A    between atoms: C4_4  and  C5_5 
REMARK    2  A    between atoms: C8_8  and  O9_9 
REMARK    3  A    between atoms: C10_11  and  O11_12 
REMARK    4  A    between atoms: C16_18  and  O17_19 
REMARK    5  A    between atoms: C19_22  and  O20_23 
ROOT
HETATM    1  O1          0      27.071  57.327 -20.959  1.00  0.00    -0.286 OA
HETATM    2  C2          0      26.465  57.464 -22.057  1.00  0.00     0.201 C 
HETATM    3  C3          0      26.033  56.389 -22.815  1.00  0.00     0.067 C 
HETATM    4  C4          0      25.461  56.565 -24.069  1.00  0.00     0.103 C 
HETATM    5  O13         0      25.311  57.793 -24.532  1.00  0.00    -0.307 OA
HETATM    6  C14         0      25.738  58.846 -23.870  1.00  0.00     0.107 C 
HETATM    7  C15         0      25.952  60.066 -24.496  1.00  0.00     0.049 C 
HETATM    8  C16         0      26.637  61.094 -23.859  1.00  0.00     0.093 C 
HETATM    9  C18         0      26.611  61.044 -22.471  1.00  0.00     0.048 C 
HETATM   10  C19         0      26.354  59.849 -21.812  1.00  0.00     0.096 C 
HETATM   11  C21         0      26.107  58.715 -22.536  1.00  0.00     0.084 C 
ENDROOT
BRANCH  10  12
HETATM   12  O20         0      26.751  59.704 -20.486  1.00  0.00    -0.359 OA
HETATM   13  H20         0      26.352  59.010 -19.976  1.00  0.00     0.218 HD
ENDBRANCH  10  12
BRANCH   4  14
HETATM   14  C5          0      25.588  55.462 -25.025  1.00  0.00     0.025 C 
HETATM   15  C6          0      25.127  54.181 -24.760  1.00  0.00     0.004 C 
HETATM   16  C7          0      24.544  53.476 -25.808  1.00  0.00     0.026 C 
HETATM   17  C8          0      24.540  53.973 -27.107  1.00  0.00     0.112 C 
HETATM   18  C10         0      25.537  54.900 -27.377  1.00  0.00     0.112 C 
HETATM   19  C12         0      26.043  55.652 -26.323  1.00  0.00     0.028 C 
BRANCH  17  20
HETATM   20  O9          0      23.487  53.705 -27.965  1.00  0.00    -0.357 OA
HETATM   21  H9          0      23.584  53.251 -28.794  1.00  0.00     0.218 HD
ENDBRANCH  17  20
BRANCH  18  22
HETATM   22  O11         0      25.697  55.284 -28.701  1.00  0.00    -0.357 OA
HETATM   23  H11         0      24.968  55.738 -29.108  1.00  0.00     0.218 HD
ENDBRANCH  18  22
ENDBRANCH   4  14
BRANCH   8  24
HETATM   24  O17         0      27.549  61.900 -24.550  1.00  0.00    -0.359 OA
HETATM   25  H17         0      27.996  62.623 -24.126  1.00  0.00     0.218 HD
ENDBRANCH   8  24
TORSDOF 5
ENDMDL
MODEL 8
REMARK VINA RESULT:      -5.4      3.026      3.268
REMARK  5 active torsions:
REMARK  status: ('A' for Active; 'I' for Inactive)
REMARK    1  A    between atoms: C4_4  and  C5_5 
REMARK    2  A    between atoms: C8_8  and  O9_9 
REMARK    3  A    between atoms: C10_11  and  O11_12 
REMARK    4  A    between atoms: C16_18  and  O17_19 
REMARK    5  A    between atoms: C19_22  and  O20_23 
ROOT
HETATM    1  O1          0      25.375  58.769 -21.926  1.00  0.00    -0.286 OA
HETATM    2  C2          0      25.481  58.207 -23.050  1.00  0.00     0.201 C 
HETATM    3  C3          0      24.864  57.004 -23.349  1.00  0.00     0.067 C 
HETATM    4  C4          0      25.080  56.356 -24.560  1.00  0.00     0.103 C 
HETATM    5  O13         0      25.880  56.919 -25.448  1.00  0.00    -0.307 OA
HETATM    6  C14         0      26.520  58.041 -25.200  1.00  0.00     0.107 C 
HETATM    7  C15         0      27.637  58.422 -25.929  1.00  0.00     0.049 C 
HETATM    8  C16         0      28.454  59.463 -25.507  1.00  0.00     0.093 C 
HETATM    9  C18         0      27.837  60.397 -24.684  1.00  0.00     0.048 C 
HETATM   10  C19         0      26.690  60.063 -23.975  1.00  0.00     0.096 C 
HETATM   11  C21         0      26.154  58.811 -24.101  1.00  0.00     0.084 C 
ENDROOT
BRANCH  10  12
HETATM   12  O20         0      26.339  60.813 -22.857  1.00  0.00    -0.359 OA
HETATM   13  H20         0      26.353  61.760 -22.933  1.00  0.00     0.218 HD
ENDBRANCH  10  12
BRANCH   4  14
HETATM   14  C5          0      24.921  54.900 -24.578  1.00  0.00     0.025 C 
HETATM   15  C6          0      24.101  54.245 -25.484  1.00  0.00     0.004 C 
HETATM   16  C7          0      24.548  53.031 -25.998  1.00  0.00     0.026 C 
HETATM   17  C8          0      25.706  52.423 -25.527  1.00  0.00     0.112 C 
HETATM   18  C10         0      26.082  52.804 -24.246  1.00  0.00     0.112 C 
HETATM   19  C12         0      25.693  54.057 -23.789  1.00  0.00     0.028 C 
BRANCH  17  20
HETATM   20  O9          0      26.506  51.673 -26.371  1.00  0.00    -0.357 OA
HETATM   21  H9          0      26.181  51.219 -27.141  1.00  0.00     0.218 HD
ENDBRANCH  17  20
BRANCH  18  22
HETATM   22  O11         0      27.117  52.091 -23.657  1.00  0.00    -0.357 OA
HETATM   23  H11         0      27.334  51.251 -24.042  1.00  0.00     0.218 HD
ENDBRANCH  18  22
ENDBRANCH   4  14
BRANCH   8  24
HETATM   24  O17         0      29.847  59.390 -25.621  1.00  0.00    -0.359 OA
HETATM   25  H17         0      30.402  60.143 -25.457  1.00  0.00     0.218 HD
ENDBRANCH   8  24
TORSDOF 5
ENDMDL
MODEL 9
REMARK VINA RESULT:      -5.3      1.896      6.262
REMARK  5 active torsions:
REMARK  status: ('A' for Active; 'I' for Inactive)
REMARK    1  A    between atoms: C4_4  and  C5_5 
REMARK    2  A    between atoms: C8_8  and  O9_9 
REMARK    3  A    between atoms: C10_11  and  O11_12 
REMARK    4  A    between atoms: C16_18  and  O17_19 
REMARK    5  A    between atoms: C19_22  and  O20_23 
ROOT
HETATM    1  O1          0      23.957  56.969 -22.867  1.00  0.00    -0.286 OA
HETATM    2  C2          0      25.191  57.172 -22.701  1.00  0.00     0.201 C 
HETATM    3  C3          0      25.902  58.111 -23.429  1.00  0.00     0.067 C 
HETATM    4  C4          0      27.280  58.243 -23.299  1.00  0.00     0.103 C 
HETATM    5  O13         0      27.914  57.462 -22.442  1.00  0.00    -0.307 OA
HETATM    6  C14         0      27.292  56.529 -21.754  1.00  0.00     0.107 C 
HETATM    7  C15         0      27.976  55.468 -21.177  1.00  0.00     0.049 C 
HETATM    8  C16         0      27.301  54.362 -20.676  1.00  0.00     0.093 C 
HETATM    9  C18         0      25.984  54.597 -20.303  1.00  0.00     0.048 C 
HETATM   10  C19         0      25.285  55.677 -20.825  1.00  0.00     0.096 C 
HETATM   11  C21         0      25.903  56.526 -21.702  1.00  0.00     0.084 C 
ENDROOT
BRANCH  10  12
HETATM   12  O20         0      23.893  55.661 -20.803  1.00  0.00    -0.359 OA
HETATM   13  H20         0      23.435  55.638 -21.634  1.00  0.00     0.218 HD
ENDBRANCH  10  12
BRANCH   4  14
HETATM   14  C5          0      28.014  58.767 -24.451  1.00  0.00     0.025 C 
HETATM   15  C6          0      29.396  58.885 -24.472  1.00  0.00     0.004 C 
HETATM   16  C7          0      30.050  58.595 -25.665  1.00  0.00     0.026 C 
HETATM   17  C8          0      29.348  58.328 -26.835  1.00  0.00     0.112 C 
HETATM   18  C10         0      28.059  58.844 -26.869  1.00  0.00     0.112 C 
HETATM   19  C12         0      27.397  59.044 -25.664  1.00  0.00     0.028 C 
BRANCH  17  20
HETATM   20  O9          0      29.845  57.439 -27.773  1.00  0.00    -0.357 OA
HETATM   21  H9          0      29.815  57.590 -28.711  1.00  0.00     0.218 HD
ENDBRANCH  17  20
BRANCH  18  22
HETATM   22  O11         0      27.385  58.770 -28.080  1.00  0.00    -0.357 OA
HETATM   23  H11         0      26.527  59.177 -28.119  1.00  0.00     0.218 HD
ENDBRANCH  18  22
ENDBRANCH   4  14
BRANCH   8  24
HETATM   24  O17         0      27.795  53.064 -20.854  1.00  0.00    -0.359 OA
HETATM   25  H17         0      28.586  52.895 -21.353  1.00  0.00     0.218 HD
ENDBRANCH   8  24
TORSDOF 5
ENDMDL
