MODEL 1
REMARK VINA RESULT:      -5.4      0.000      0.000
REMARK  5 active torsions:
REMARK  status: ('A' for Active; 'I' for Inactive)
REMARK    1  A    between atoms: C4_4  and  C5_5 
REMARK    2  A    between atoms: C8_8  and  O9_9 
REMARK    3  A    between atoms: C10_11  and  O11_12 
REMARK    4  A    between atoms: C16_18  and  O17_19 
REMARK    5  A    between atoms: C19_22  and  O20_23 
ROOT
HETATM    1  O1          0      26.057 103.105  -5.801  1.00  0.00    -0.286 OA
HETATM    2  C2          0      27.178 103.559  -5.445  1.00  0.00     0.201 C 
HETATM    3  C3          0      27.351 104.852  -4.981  1.00  0.00     0.067 C 
HETATM    4  C4          0      28.613 105.360  -4.693  1.00  0.00     0.103 C 
HETATM    5  O13         0      29.664 104.575  -4.850  1.00  0.00    -0.307 OA
HETATM    6  C14         0      29.560 103.353  -5.323  1.00  0.00     0.107 C 
HETATM    7  C15         0      30.648 102.681  -5.860  1.00  0.00     0.049 C 
HETATM    8  C16         0      30.486 101.505  -6.584  1.00  0.00     0.093 C 
HETATM    9  C18         0      29.331 100.791  -6.290  1.00  0.00     0.048 C 
HETATM   10  C19         0      28.239 101.422  -5.709  1.00  0.00     0.096 C 
HETATM   11  C21         0      28.307 102.755  -5.407  1.00  0.00     0.084 C 
ENDROOT
BRANCH  10  12
HETATM   12  O20         0      26.980 100.841  -5.819  1.00  0.00    -0.359 OA
HETATM   13  H20         0      26.282 101.360  -6.199  1.00  0.00     0.218 HD
ENDBRANCH  10  12
BRANCH   4  14
HETATM   14  C5          0      28.792 106.809  -4.802  1.00  0.00     0.025 C 
HETATM   15  C6          0      27.729 107.700  -4.809  1.00  0.00     0.004 C 
HETATM   16  C7          0      27.895 108.906  -4.135  1.00  0.00     0.026 C 
HETATM   17  C8          0      29.119 109.274  -3.588  1.00  0.00     0.112 C 
HETATM   18  C10         0      30.221 108.655  -4.164  1.00  0.00     0.112 C 
HETATM   19  C12         0      30.044 107.410  -4.756  1.00  0.00     0.028 C 
BRANCH  17  20
HETATM   20  O9          0      29.180 110.030  -2.431  1.00  0.00    -0.357 OA
HETATM   21  H9          0      28.858 110.921  -2.365  1.00  0.00     0.218 HD
ENDBRANCH  17  20
BRANCH  18  22
HETATM   22  O11         0      31.472 109.122  -3.788  1.00  0.00    -0.357 OA
HETATM   23  H11         0      31.657 110.039  -3.957  1.00  0.00     0.218 HD
ENDBRANCH  18  22
ENDBRANCH   4  14
BRANCH   8  24
HETATM   24  O17         0      31.238 101.248  -7.735  1.00  0.00    -0.359 OA
HETATM   25  H17         0      31.299 100.375  -8.106  1.00  0.00     0.218 HD
ENDBRANCH   8  24
TORSDOF 5
ENDMDL
MODEL 2
REMARK VINA RESULT:      -5.1      9.685     13.085
REMARK  5 active torsions:
REMARK  status: ('A' for Active; 'I' for Inactive)
REMARK    1  A    between atoms: C4_4  and  C5_5 
REMARK    2  A    between atoms: C8_8  and  O9_9 
REMARK    3  A    between atoms: C10_11  and  O11_12 
REMARK    4  A    between atoms: C16_18  and  O17_19 
REMARK    5  A    between atoms: C19_22  and  O20_23 
ROOT
HETATM    1  O1          0      37.413 115.748  -1.027  1.00  0.00    -0.286 OA
HETATM    2  C2          0      36.440 114.946  -1.007  1.00  0.00     0.201 C 
HETATM    3  C3          0      36.570 113.600  -1.306  1.00  0.00     0.067 C 
HETATM    4  C4          0      35.466 112.759  -1.377  1.00  0.00     0.103 C 
HETATM    5  O13         0      34.269 113.261  -1.132  1.00  0.00    -0.307 OA
HETATM    6  C14         0      34.085 114.539  -0.881  1.00  0.00     0.107 C 
HETATM    7  C15         0      32.842 115.139  -1.019  1.00  0.00     0.049 C 
HETATM    8  C16         0      32.702 116.522  -1.002  1.00  0.00     0.093 C 
HETATM    9  C18         0      33.710 117.205  -0.332  1.00  0.00     0.048 C 
HETATM   10  C19         0      34.952 116.616  -0.135  1.00  0.00     0.096 C 
HETATM   11  C21         0      35.180 115.345  -0.589  1.00  0.00     0.084 C 
ENDROOT
BRANCH  10  12
HETATM   12  O20         0      36.055 117.423   0.125  1.00  0.00    -0.359 OA
HETATM   13  H20         0      35.951 118.129   0.751  1.00  0.00     0.218 HD
ENDBRANCH  10  12
BRANCH   4  14
HETATM   14  C5          0      35.573 111.584  -2.245  1.00  0.00     0.025 C 
HETATM   15  C6          0      34.813 111.426  -3.394  1.00  0.00     0.004 C 
HETATM   16  C7          0      35.428 110.849  -4.500  1.00  0.00     0.026 C 
HETATM   17  C8          0      36.714 110.323  -4.427  1.00  0.00     0.112 C 
HETATM   18  C10         0      37.120 109.959  -3.150  1.00  0.00     0.112 C 
HETATM   19  C12         0      36.549 110.613  -2.065  1.00  0.00     0.028 C 
BRANCH  17  20
HETATM   20  O9          0      37.563 110.372  -5.519  1.00  0.00    -0.357 OA
HETATM   21  H9          0      37.793 111.175  -5.972  1.00  0.00     0.218 HD
ENDBRANCH  17  20
BRANCH  18  22
HETATM   22  O11         0      38.313 109.258  -3.046  1.00  0.00    -0.357 OA
HETATM   23  H11         0      38.790 109.340  -2.228  1.00  0.00     0.218 HD
ENDBRANCH  18  22
ENDBRANCH   4  14
BRANCH   8  24
HETATM   24  O17         0      31.819 117.177  -1.867  1.00  0.00    -0.359 OA
HETATM   25  H17         0      30.954 116.831  -2.053  1.00  0.00     0.218 HD
ENDBRANCH   8  24
TORSDOF 5
ENDMDL
MODEL 3
REMARK VINA RESULT:      -5.1      8.011     12.880
REMARK  5 active torsions:
REMARK  status: ('A' for Active; 'I' for Inactive)
REMARK    1  A    between atoms: C4_4  and  C5_5 
REMARK    2  A    between atoms: C8_8  and  O9_9 
REMARK    3  A    between atoms: C10_11  and  O11_12 
REMARK    4  A    between atoms: C16_18  and  O17_19 
REMARK    5  A    between atoms: C19_22  and  O20_23 
ROOT
HETATM    1  O1          0      37.554 115.742  -1.095  1.00  0.00    -0.286 OA
HETATM    2  C2          0      36.604 114.914  -1.045  1.00  0.00     0.201 C 
HETATM    3  C3          0      36.758 113.575  -1.361  1.00  0.00     0.067 C 
HETATM    4  C4          0      35.674 112.705  -1.396  1.00  0.00     0.103 C 
HETATM    5  O13         0      34.474 113.174  -1.100  1.00  0.00    -0.307 OA
HETATM    6  C14         0      34.267 114.444  -0.829  1.00  0.00     0.107 C 
HETATM    7  C15         0      33.004 115.013  -0.913  1.00  0.00     0.049 C 
HETATM    8  C16         0      32.829 116.391  -0.878  1.00  0.00     0.093 C 
HETATM    9  C18         0      33.845 117.095  -0.242  1.00  0.00     0.048 C 
HETATM   10  C19         0      35.108 116.537  -0.100  1.00  0.00     0.096 C 
HETATM   11  C21         0      35.351 115.277  -0.574  1.00  0.00     0.084 C 
ENDROOT
BRANCH  10  12
HETATM   12  O20         0      36.199 117.371   0.124  1.00  0.00    -0.359 OA
HETATM   13  H20         0      37.065 116.981   0.125  1.00  0.00     0.218 HD
ENDBRANCH  10  12
BRANCH   4  14
HETATM   14  C5          0      35.777 111.541  -2.278  1.00  0.00     0.025 C 
HETATM   15  C6          0      36.741 110.557  -2.114  1.00  0.00     0.004 C 
HETATM   16  C7          0      36.364 109.239  -2.351  1.00  0.00     0.026 C 
HETATM   17  C8          0      35.111 108.920  -2.862  1.00  0.00     0.112 C 
HETATM   18  C10         0      34.494 109.946  -3.567  1.00  0.00     0.112 C 
HETATM   19  C12         0      34.827 111.257  -3.251  1.00  0.00     0.028 C 
BRANCH  17  20
HETATM   20  O9          0      34.474 107.747  -2.499  1.00  0.00    -0.357 OA
HETATM   21  H9          0      34.240 107.061  -3.113  1.00  0.00     0.218 HD
ENDBRANCH  17  20
BRANCH  18  22
HETATM   22  O11         0      33.333 109.625  -4.256  1.00  0.00    -0.357 OA
HETATM   23  H11         0      32.512 109.733  -3.790  1.00  0.00     0.218 HD
ENDBRANCH  18  22
ENDBRANCH   4  14
BRANCH   8  24
HETATM   24  O17         0      31.896 117.029  -1.702  1.00  0.00    -0.359 OA
HETATM   25  H17         0      31.782 117.972  -1.691  1.00  0.00     0.218 HD
ENDBRANCH   8  24
TORSDOF 5
ENDMDL
MODEL 4
REMARK VINA RESULT:      -5.0      5.883      9.057
REMARK  5 active torsions:
REMARK  status: ('A' for Active; 'I' for Inactive)
REMARK    1  A    between atoms: C4_4  and  C5_5 
REMARK    2  A    between atoms: C8_8  and  O9_9 
REMARK    3  A    between atoms: C10_11  and  O11_12 
REMARK    4  A    between atoms: C16_18  and  O17_19 
REMARK    5  A    between atoms: C19_22  and  O20_23 
ROOT
HETATM    1  O1          0      35.405 113.354  -4.134  1.00  0.00    -0.286 OA
HETATM    2  C2          0      34.988 112.184  -4.351  1.00  0.00     0.201 C 
HETATM    3  C3          0      33.732 111.918  -4.870  1.00  0.00     0.067 C 
HETATM    4  C4          0      33.258 110.618  -5.003  1.00  0.00     0.103 C 
HETATM    5  O13         0      34.041 109.617  -4.641  1.00  0.00    -0.307 OA
HETATM    6  C14         0      35.226 109.815  -4.107  1.00  0.00     0.107 C 
HETATM    7  C15         0      35.870 108.830  -3.372  1.00  0.00     0.049 C 
HETATM    8  C16         0      36.991 109.120  -2.603  1.00  0.00     0.093 C 
HETATM    9  C18         0      37.712 110.234  -3.014  1.00  0.00     0.048 C 
HETATM   10  C19         0      37.112 111.216  -3.790  1.00  0.00     0.096 C 
HETATM   11  C21         0      35.804 111.078  -4.168  1.00  0.00     0.084 C 
ENDROOT
BRANCH  10  12
HETATM   12  O20         0      37.671 112.490  -3.828  1.00  0.00    -0.359 OA
HETATM   13  H20         0      38.518 112.593  -4.245  1.00  0.00     0.218 HD
ENDBRANCH  10  12
BRANCH   4  14
HETATM   14  C5          0      31.807 110.427  -4.967  1.00  0.00     0.025 C 
HETATM   15  C6          0      31.215 109.174  -4.901  1.00  0.00     0.004 C 
HETATM   16  C7          0      30.079 109.039  -4.110  1.00  0.00     0.026 C 
HETATM   17  C8          0      29.471 110.138  -3.512  1.00  0.00     0.112 C 
HETATM   18  C10         0      29.735 111.353  -4.129  1.00  0.00     0.112 C 
HETATM   19  C12         0      30.919 111.488  -4.843  1.00  0.00     0.028 C 
BRANCH  17  20
HETATM   20  O9          0      28.843 110.020  -2.285  1.00  0.00    -0.357 OA
HETATM   21  H9          0      28.595 109.188  -1.896  1.00  0.00     0.218 HD
ENDBRANCH  17  20
BRANCH  18  22
HETATM   22  O11         0      29.008 112.451  -3.691  1.00  0.00    -0.357 OA
HETATM   23  H11         0      28.333 112.780  -4.274  1.00  0.00     0.218 HD
ENDBRANCH  18  22
ENDBRANCH   4  14
BRANCH   8  24
HETATM   24  O17         0      37.175 108.550  -1.338  1.00  0.00    -0.359 OA
HETATM   25  H17         0      37.804 108.901  -0.719  1.00  0.00     0.218 HD
ENDBRANCH   8  24
TORSDOF 5
ENDMDL
MODEL 5
REMARK VINA RESULT:      -4.8      2.689      4.200
REMARK  5 active torsions:
REMARK  status: ('A' for Active; 'I' for Inactive)
REMARK    1  A    between atoms: C4_4  and  C5_5 
REMARK    2  A    between atoms: C8_8  and  O9_9 
REMARK    3  A    between atoms: C10_11  and  O11_12 
REMARK    4  A    between atoms: C16_18  and  O17_19 
REMARK    5  A    between atoms: C19_22  and  O20_23 
ROOT
HETATM    1  O1          0      27.481 102.563  -9.913  1.00  0.00    -0.286 OA
HETATM    2  C2          0      28.119 102.117  -8.920  1.00  0.00     0.201 C 
HETATM    3  C3          0      27.916 102.575  -7.630  1.00  0.00     0.067 C 
HETATM    4  C4          0      28.704 102.140  -6.570  1.00  0.00     0.103 C 
HETATM    5  O13         0      29.653 101.252  -6.807  1.00  0.00    -0.307 OA
HETATM    6  C14         0      29.912 100.812  -8.019  1.00  0.00     0.107 C 
HETATM    7  C15         0      31.122 100.213  -8.336  1.00  0.00     0.049 C 
HETATM    8  C16         0      31.490  99.984  -9.657  1.00  0.00     0.093 C 
HETATM    9  C18         0      30.432  99.880 -10.551  1.00  0.00     0.048 C 
HETATM   10  C19         0      29.193 100.427 -10.245  1.00  0.00     0.096 C 
HETATM   11  C21         0      29.008 101.060  -9.046  1.00  0.00     0.084 C 
ENDROOT
BRANCH  10  12
HETATM   12  O20         0      28.299 100.705 -11.275  1.00  0.00    -0.359 OA
HETATM   13  H20         0      28.451 100.296 -12.118  1.00  0.00     0.218 HD
ENDBRANCH  10  12
BRANCH   4  14
HETATM   14  C5          0      28.857 103.049  -5.432  1.00  0.00     0.025 C 
HETATM   15  C6          0      29.969 103.033  -4.602  1.00  0.00     0.004 C 
HETATM   16  C7          0      30.450 104.256  -4.146  1.00  0.00     0.026 C 
HETATM   17  C8          0      29.774 105.445  -4.396  1.00  0.00     0.112 C 
HETATM   18  C10         0      28.417 105.297  -4.654  1.00  0.00     0.112 C 
HETATM   19  C12         0      27.975 104.093  -5.189  1.00  0.00     0.028 C 
BRANCH  17  20
HETATM   20  O9          0      30.465 106.630  -4.575  1.00  0.00    -0.357 OA
HETATM   21  H9          0      31.014 107.027  -3.908  1.00  0.00     0.218 HD
ENDBRANCH  17  20
BRANCH  18  22
HETATM   22  O11         0      27.661 106.458  -4.722  1.00  0.00    -0.357 OA
HETATM   23  H11         0      28.101 107.272  -4.505  1.00  0.00     0.218 HD
ENDBRANCH  18  22
ENDBRANCH   4  14
BRANCH   8  24
HETATM   24  O17         0      32.805 100.184 -10.093  1.00  0.00    -0.359 OA
HETATM   25  H17         0      33.550  99.885  -9.584  1.00  0.00     0.218 HD
ENDBRANCH   8  24
TORSDOF 5
ENDMDL
MODEL 6
REMARK VINA RESULT:      -4.8      7.390      9.791
REMARK  5 active torsions:
REMARK  status: ('A' for Active; 'I' for Inactive)
REMARK    1  A    between atoms: C4_4  and  C5_5 
REMARK    2  A    between atoms: C8_8  and  O9_9 
REMARK    3  A    between atoms: C10_11  and  O11_12 
REMARK    4  A    between atoms: C16_18  and  O17_19 
REMARK    5  A    between atoms: C19_22  and  O20_23 
ROOT
HETATM    1  O1          0      35.222 109.026  -4.394  1.00  0.00    -0.286 OA
HETATM    2  C2          0      34.864 110.230  -4.268  1.00  0.00     0.201 C 
HETATM    3  C3          0      35.348 111.054  -3.266  1.00  0.00     0.067 C 
HETATM    4  C4          0      34.861 112.344  -3.086  1.00  0.00     0.103 C 
HETATM    5  O13         0      33.928 112.791  -3.909  1.00  0.00    -0.307 OA
HETATM    6  C14         0      33.409 112.037  -4.853  1.00  0.00     0.107 C 
HETATM    7  C15         0      32.189 112.339  -5.441  1.00  0.00     0.049 C 
HETATM    8  C16         0      31.527 111.418  -6.243  1.00  0.00     0.093 C 
HETATM    9  C18         0      32.343 110.463  -6.837  1.00  0.00     0.048 C 
HETATM   10  C19         0      33.590 110.169  -6.301  1.00  0.00     0.096 C 
HETATM   11  C21         0      34.026 110.837  -5.190  1.00  0.00     0.084 C 
ENDROOT
BRANCH  10  12
HETATM   12  O20         0      34.195 108.955  -6.612  1.00  0.00    -0.359 OA
HETATM   13  H20         0      33.645 108.183  -6.660  1.00  0.00     0.218 HD
ENDBRANCH  10  12
BRANCH   4  14
HETATM   14  C5          0      34.939 112.908  -1.737  1.00  0.00     0.025 C 
HETATM   15  C6          0      36.049 112.751  -0.920  1.00  0.00     0.004 C 
HETATM   16  C7          0      36.427 113.832  -0.131  1.00  0.00     0.026 C 
HETATM   17  C8          0      35.653 114.985  -0.054  1.00  0.00     0.112 C 
HETATM   18  C10         0      34.313 114.805  -0.373  1.00  0.00     0.112 C 
HETATM   19  C12         0      33.972 113.767  -1.232  1.00  0.00     0.028 C 
BRANCH  17  20
HETATM   20  O9          0      36.241 116.224   0.120  1.00  0.00    -0.357 OA
HETATM   21  H9          0      36.968 116.385   0.711  1.00  0.00     0.218 HD
ENDBRANCH  17  20
BRANCH  18  22
HETATM   22  O11         0      33.461 115.873  -0.131  1.00  0.00    -0.357 OA
HETATM   23  H11         0      32.565 115.663   0.105  1.00  0.00     0.218 HD
ENDBRANCH  18  22
ENDBRANCH   4  14
BRANCH   8  24
HETATM   24  O17         0      30.138 111.262  -6.181  1.00  0.00    -0.359 OA
HETATM   25  H17         0      29.557 112.005  -6.066  1.00  0.00     0.218 HD
ENDBRANCH   8  24
TORSDOF 5
ENDMDL
MODEL 7
REMARK VINA RESULT:      -4.6      1.778      2.413
REMARK  5 active torsions:
REMARK  status: ('A' for Active; 'I' for Inactive)
REMARK    1  A    between atoms: C4_4  and  C5_5 
REMARK    2  A    between atoms: C8_8  and  O9_9 
REMARK    3  A    between atoms: C10_11  and  O11_12 
REMARK    4  A    between atoms: C16_18  and  O17_19 
REMARK    5  A    between atoms: C19_22  and  O20_23 
ROOT
HETATM    1  O1          0      26.713 105.431  -6.156  1.00  0.00    -0.286 OA
HETATM    2  C2          0      27.800 105.627  -5.546  1.00  0.00     0.201 C 
HETATM    3  C3          0      28.258 106.891  -5.216  1.00  0.00     0.067 C 
HETATM    4  C4          0      29.506 107.085  -4.635  1.00  0.00     0.103 C 
HETATM    5  O13         0      30.257 106.029  -4.377  1.00  0.00    -0.307 OA
HETATM    6  C14         0      29.886 104.810  -4.703  1.00  0.00     0.107 C 
HETATM    7  C15         0      30.800 103.771  -4.808  1.00  0.00     0.049 C 
HETATM    8  C16         0      30.451 102.561  -5.395  1.00  0.00     0.093 C 
HETATM    9  C18         0      29.094 102.264  -5.368  1.00  0.00     0.048 C 
HETATM   10  C19         0      28.154 103.275  -5.217  1.00  0.00     0.096 C 
HETATM   11  C21         0      28.568 104.572  -5.077  1.00  0.00     0.084 C 
ENDROOT
BRANCH  10  12
HETATM   12  O20         0      26.842 103.049  -5.620  1.00  0.00    -0.359 OA
HETATM   13  H20         0      26.411 103.722  -6.134  1.00  0.00     0.218 HD
ENDBRANCH  10  12
BRANCH   4  14
HETATM   14  C5          0      30.159 108.375  -4.866  1.00  0.00     0.025 C 
HETATM   15  C6          0      30.694 108.738  -6.093  1.00  0.00     0.004 C 
HETATM   16  C7          0      30.546 110.061  -6.495  1.00  0.00     0.026 C 
HETATM   17  C8          0      30.005 111.024  -5.649  1.00  0.00     0.112 C 
HETATM   18  C10         0      30.098 110.726  -4.297  1.00  0.00     0.112 C 
HETATM   19  C12         0      30.159 109.390  -3.918  1.00  0.00     0.028 C 
BRANCH  17  20
HETATM   20  O9          0      29.256 112.072  -6.155  1.00  0.00    -0.357 OA
HETATM   21  H9          0      28.666 111.990  -6.896  1.00  0.00     0.218 HD
ENDBRANCH  17  20
BRANCH  18  22
HETATM   22  O11         0      29.747 111.730  -3.406  1.00  0.00    -0.357 OA
HETATM   23  H11         0      30.026 111.622  -2.504  1.00  0.00     0.218 HD
ENDBRANCH  18  22
ENDBRANCH   4  14
BRANCH   8  24
HETATM   24  O17         0      31.338 101.875  -6.233  1.00  0.00    -0.359 OA
HETATM   25  H17         0      31.535 102.182  -7.109  1.00  0.00     0.218 HD
ENDBRANCH   8  24
TORSDOF 5
ENDMDL
MODEL 8
REMARK VINA RESULT:      -4.5      2.541      3.596
REMARK  5 active torsions:
REMARK  status: ('A' for Active; 'I' for Inactive)
REMARK    1  A    between atoms: C4_4  and  C5_5 
REMARK    2  A    between atoms: C8_8  and  O9_9 
REMARK    3  A    between atoms: C10_11  and  O11_12 
REMARK    4  A    between atoms: C16_18  and  O17_19 
REMARK    5  A    between atoms: C19_22  and  O20_23 
ROOT
HETATM    1  O1          0      31.776 105.077 -10.223  1.00  0.00    -0.286 OA
HETATM    2  C2          0      30.965 105.069  -9.257  1.00  0.00     0.201 C 
HETATM    3  C3          0      30.460 106.227  -8.691  1.00  0.00     0.067 C 
HETATM    4  C4          0      29.648 106.192  -7.563  1.00  0.00     0.103 C 
HETATM    5  O13         0      29.341 105.020  -7.038  1.00  0.00    -0.307 OA
HETATM    6  C14         0      29.823 103.893  -7.513  1.00  0.00     0.107 C 
HETATM    7  C15         0      29.841 102.729  -6.758  1.00  0.00     0.049 C 
HETATM    8  C16         0      30.574 101.619  -7.160  1.00  0.00     0.093 C 
HETATM    9  C18         0      30.818 101.540  -8.526  1.00  0.00     0.048 C 
HETATM   10  C19         0      30.762 102.677  -9.319  1.00  0.00     0.096 C 
HETATM   11  C21         0      30.448 103.884  -8.755  1.00  0.00     0.084 C 
ENDROOT
BRANCH  10  12
HETATM   12  O20         0      31.413 102.682 -10.549  1.00  0.00    -0.359 OA
HETATM   13  H20         0      32.357 102.576 -10.553  1.00  0.00     0.218 HD
ENDBRANCH  10  12
BRANCH   4  14
HETATM   14  C5          0      29.655 107.373  -6.697  1.00  0.00     0.025 C 
HETATM   15  C6          0      29.056 107.391  -5.445  1.00  0.00     0.004 C 
HETATM   16  C7          0      29.705 108.085  -4.430  1.00  0.00     0.026 C 
HETATM   17  C8          0      30.841 108.848  -4.678  1.00  0.00     0.112 C 
HETATM   18  C10         0      30.977 109.273  -5.993  1.00  0.00     0.112 C 
HETATM   19  C12         0      30.389 108.512  -6.997  1.00  0.00     0.028 C 
BRANCH  17  20
HETATM   20  O9          0      31.835 108.971  -3.724  1.00  0.00    -0.357 OA
HETATM   21  H9          0      32.521 109.628  -3.758  1.00  0.00     0.218 HD
ENDBRANCH  17  20
BRANCH  18  22
HETATM   22  O11         0      31.986 110.189  -6.256  1.00  0.00    -0.357 OA
HETATM   23  H11         0      31.826 110.816  -6.952  1.00  0.00     0.218 HD
ENDBRANCH  18  22
ENDBRANCH   4  14
BRANCH   8  24
HETATM   24  O17         0      31.288 100.843  -6.239  1.00  0.00    -0.359 OA
HETATM   25  H17         0      31.812 100.100  -6.513  1.00  0.00     0.218 HD
ENDBRANCH   8  24
TORSDOF 5
ENDMDL
MODEL 9
REMARK VINA RESULT:      -4.3      8.827     10.869
REMARK  5 active torsions:
REMARK  status: ('A' for Active; 'I' for Inactive)
REMARK    1  A    between atoms: C4_4  and  C5_5 
REMARK    2  A    between atoms: C8_8  and  O9_9 
REMARK    3  A    between atoms: C10_11  and  O11_12 
REMARK    4  A    between atoms: C16_18  and  O17_19 
REMARK    5  A    between atoms: C19_22  and  O20_23 
ROOT
HETATM    1  O1          0      37.264 113.584  -1.502  1.00  0.00    -0.286 OA
HETATM    2  C2          0      36.238 113.464  -2.225  1.00  0.00     0.201 C 
HETATM    3  C3          0      35.109 114.250  -2.063  1.00  0.00     0.067 C 
HETATM    4  C4          0      33.955 114.029  -2.805  1.00  0.00     0.103 C 
HETATM    5  O13         0      33.951 113.055  -3.699  1.00  0.00    -0.307 OA
HETATM    6  C14         0      34.982 112.256  -3.866  1.00  0.00     0.107 C 
HETATM    7  C15         0      34.857 111.021  -4.485  1.00  0.00     0.049 C 
HETATM    8  C16         0      35.879 110.081  -4.434  1.00  0.00     0.093 C 
HETATM    9  C18         0      37.149 110.605  -4.227  1.00  0.00     0.048 C 
HETATM   10  C19         0      37.310 111.859  -3.653  1.00  0.00     0.096 C 
HETATM   11  C21         0      36.208 112.591  -3.302  1.00  0.00     0.084 C 
ENDROOT
BRANCH  10  12
HETATM   12  O20         0      38.526 112.184  -3.060  1.00  0.00    -0.359 OA
HETATM   13  H20         0      39.256 111.591  -3.187  1.00  0.00     0.218 HD
ENDBRANCH  10  12
BRANCH   4  14
HETATM   14  C5          0      32.684 114.439  -2.205  1.00  0.00     0.025 C 
HETATM   15  C6          0      32.610 115.243  -1.077  1.00  0.00     0.004 C 
HETATM   16  C7          0      31.600 116.198  -1.031  1.00  0.00     0.026 C 
HETATM   17  C8          0      30.614 116.265  -2.009  1.00  0.00     0.112 C 
HETATM   18  C10         0      30.405 115.080  -2.703  1.00  0.00     0.112 C 
HETATM   19  C12         0      31.459 114.181  -2.806  1.00  0.00     0.028 C 
BRANCH  17  20
HETATM   20  O9          0      30.061 117.479  -2.377  1.00  0.00    -0.357 OA
HETATM   21  H9          0      30.055 118.247  -1.818  1.00  0.00     0.218 HD
ENDBRANCH  17  20
BRANCH  18  22
HETATM   22  O11         0      29.310 115.036  -3.555  1.00  0.00    -0.357 OA
HETATM   23  H11         0      29.415 115.436  -4.411  1.00  0.00     0.218 HD
ENDBRANCH  18  22
ENDBRANCH   4  14
BRANCH   8  24
HETATM   24  O17         0      35.608 108.719  -4.262  1.00  0.00    -0.359 OA
HETATM   25  H17         0      34.733 108.404  -4.067  1.00  0.00     0.218 HD
ENDBRANCH   8  24
TORSDOF 5
ENDMDL
