MODEL 1
REMARK VINA RESULT:      -6.7      0.000      0.000
REMARK  5 active torsions:
REMARK  status: ('A' for Active; 'I' for Inactive)
REMARK    1  A    between atoms: C4_4  and  C5_5 
REMARK    2  A    between atoms: C8_8  and  O9_9 
REMARK    3  A    between atoms: C10_11  and  O11_12 
REMARK    4  A    between atoms: C16_18  and  O17_19 
REMARK    5  A    between atoms: C19_22  and  O20_23 
ROOT
HETATM    1  O1          0      74.964  34.891  15.685  1.00  0.00    -0.286 OA
HETATM    2  C2          0      74.445  35.999  15.378  1.00  0.00     0.201 C 
HETATM    3  C3          0      74.710  37.169  16.069  1.00  0.00     0.067 C 
HETATM    4  C4          0      74.046  38.355  15.775  1.00  0.00     0.103 C 
HETATM    5  O13         0      73.157  38.359  14.797  1.00  0.00    -0.307 OA
HETATM    6  C14         0      72.841  37.268  14.134  1.00  0.00     0.107 C 
HETATM    7  C15         0      71.663  37.169  13.409  1.00  0.00     0.049 C 
HETATM    8  C16         0      71.213  35.946  12.927  1.00  0.00     0.093 C 
HETATM    9  C18         0      72.203  34.989  12.738  1.00  0.00     0.048 C 
HETATM   10  C19         0      73.413  35.083  13.413  1.00  0.00     0.096 C 
HETATM   11  C21         0      73.639  36.135  14.258  1.00  0.00     0.084 C 
ENDROOT
BRANCH  10  12
HETATM   12  O20         0      74.197  33.944  13.565  1.00  0.00    -0.359 OA
HETATM   13  H20         0      74.277  33.572  14.435  1.00  0.00     0.218 HD
ENDBRANCH  10  12
BRANCH   4  14
HETATM   14  C5          0      73.908  39.331  16.857  1.00  0.00     0.025 C 
HETATM   15  C6          0      73.590  38.971  18.158  1.00  0.00     0.004 C 
HETATM   16  C7          0      74.218  39.661  19.190  1.00  0.00     0.026 C 
HETATM   17  C8          0      75.032  40.761  18.942  1.00  0.00     0.112 C 
HETATM   18  C10         0      74.782  41.408  17.739  1.00  0.00     0.112 C 
HETATM   19  C12         0      74.232  40.672  16.696  1.00  0.00     0.028 C 
BRANCH  17  20
HETATM   20  O9          0      76.126  41.029  19.745  1.00  0.00    -0.357 OA
HETATM   21  H9          0      76.910  41.470  19.439  1.00  0.00     0.218 HD
ENDBRANCH  17  20
BRANCH  18  22
HETATM   22  O11         0      75.432  42.616  17.528  1.00  0.00    -0.357 OA
HETATM   23  H11         0      76.346  42.663  17.783  1.00  0.00     0.218 HD
ENDBRANCH  18  22
ENDBRANCH   4  14
BRANCH   8  24
HETATM   24  O17         0      69.856  35.604  12.958  1.00  0.00    -0.359 OA
HETATM   25  H17         0      69.527  34.826  12.523  1.00  0.00     0.218 HD
ENDBRANCH   8  24
TORSDOF 5
ENDMDL
MODEL 2
REMARK VINA RESULT:      -6.4      1.474      6.805
REMARK  5 active torsions:
REMARK  status: ('A' for Active; 'I' for Inactive)
REMARK    1  A    between atoms: C4_4  and  C5_5 
REMARK    2  A    between atoms: C8_8  and  O9_9 
REMARK    3  A    between atoms: C10_11  and  O11_12 
REMARK    4  A    between atoms: C16_18  and  O17_19 
REMARK    5  A    between atoms: C19_22  and  O20_23 
ROOT
HETATM    1  O1          0      73.606  37.775  18.493  1.00  0.00    -0.286 OA
HETATM    2  C2          0      73.560  38.291  17.343  1.00  0.00     0.201 C 
HETATM    3  C3          0      73.052  37.624  16.241  1.00  0.00     0.067 C 
HETATM    4  C4          0      73.108  38.176  14.966  1.00  0.00     0.103 C 
HETATM    5  O13         0      73.642  39.375  14.816  1.00  0.00    -0.307 OA
HETATM    6  C14         0      74.173  40.034  15.823  1.00  0.00     0.107 C 
HETATM    7  C15         0      75.070  41.074  15.623  1.00  0.00     0.049 C 
HETATM    8  C16         0      75.817  41.594  16.674  1.00  0.00     0.093 C 
HETATM    9  C18         0      75.259  41.417  17.934  1.00  0.00     0.048 C 
HETATM   10  C19         0      74.324  40.416  18.158  1.00  0.00     0.096 C 
HETATM   11  C21         0      73.935  39.608  17.125  1.00  0.00     0.084 C 
ENDROOT
BRANCH  10  12
HETATM   12  O20         0      74.107  39.966  19.456  1.00  0.00    -0.359 OA
HETATM   13  H20         0      73.757  40.582  20.088  1.00  0.00     0.218 HD
ENDBRANCH  10  12
BRANCH   4  14
HETATM   14  C5          0      73.131  37.247  13.835  1.00  0.00     0.025 C 
HETATM   15  C6          0      74.309  36.753  13.292  1.00  0.00     0.004 C 
HETATM   16  C7          0      74.320  35.425  12.877  1.00  0.00     0.026 C 
HETATM   17  C8          0      73.164  34.652  12.875  1.00  0.00     0.112 C 
HETATM   18  C10         0      71.981  35.377  12.818  1.00  0.00     0.112 C 
HETATM   19  C12         0      71.977  36.674  13.318  1.00  0.00     0.028 C 
BRANCH  17  20
HETATM   20  O9          0      73.220  33.293  13.127  1.00  0.00    -0.357 OA
HETATM   21  H9          0      73.899  32.880  13.649  1.00  0.00     0.218 HD
ENDBRANCH  17  20
BRANCH  18  22
HETATM   22  O11         0      70.811  34.656  12.624  1.00  0.00    -0.357 OA
HETATM   23  H11         0      70.716  34.207  11.792  1.00  0.00     0.218 HD
ENDBRANCH  18  22
ENDBRANCH   4  14
BRANCH   8  24
HETATM   24  O17         0      77.159  41.954  16.506  1.00  0.00    -0.359 OA
HETATM   25  H17         0      77.763  41.980  17.238  1.00  0.00     0.218 HD
ENDBRANCH   8  24
TORSDOF 5
ENDMDL
MODEL 3
REMARK VINA RESULT:      -6.3      1.772      6.880
REMARK  5 active torsions:
REMARK  status: ('A' for Active; 'I' for Inactive)
REMARK    1  A    between atoms: C4_4  and  C5_5 
REMARK    2  A    between atoms: C8_8  and  O9_9 
REMARK    3  A    between atoms: C10_11  and  O11_12 
REMARK    4  A    between atoms: C16_18  and  O17_19 
REMARK    5  A    between atoms: C19_22  and  O20_23 
ROOT
HETATM    1  O1          0      74.113  41.808  15.692  1.00  0.00    -0.286 OA
HETATM    2  C2          0      74.429  40.605  15.904  1.00  0.00     0.201 C 
HETATM    3  C3          0      74.293  39.615  14.946  1.00  0.00     0.067 C 
HETATM    4  C4          0      74.551  38.280  15.237  1.00  0.00     0.103 C 
HETATM    5  O13         0      74.954  37.962  16.454  1.00  0.00    -0.307 OA
HETATM    6  C14         0      75.064  38.858  17.410  1.00  0.00     0.107 C 
HETATM    7  C15         0      75.091  38.498  18.750  1.00  0.00     0.049 C 
HETATM    8  C16         0      74.950  39.446  19.756  1.00  0.00     0.093 C 
HETATM    9  C18         0      75.313  40.739  19.398  1.00  0.00     0.048 C 
HETATM   10  C19         0      75.342  41.120  18.063  1.00  0.00     0.096 C 
HETATM   11  C21         0      75.026  40.211  17.091  1.00  0.00     0.084 C 
ENDROOT
BRANCH  10  12
HETATM   12  O20         0      75.272  42.472  17.740  1.00  0.00    -0.359 OA
HETATM   13  H20         0      74.718  43.029  18.273  1.00  0.00     0.218 HD
ENDBRANCH  10  12
BRANCH   4  14
HETATM   14  C5          0      73.844  37.273  14.443  1.00  0.00     0.025 C 
HETATM   15  C6          0      72.646  36.702  14.847  1.00  0.00     0.004 C 
HETATM   16  C7          0      71.688  36.453  13.869  1.00  0.00     0.026 C 
HETATM   17  C8          0      71.960  36.639  12.518  1.00  0.00     0.112 C 
HETATM   18  C10         0      73.307  36.588  12.186  1.00  0.00     0.112 C 
HETATM   19  C12         0      74.241  36.924  13.159  1.00  0.00     0.028 C 
BRANCH  17  20
HETATM   20  O9          0      70.969  37.050  11.645  1.00  0.00    -0.357 OA
HETATM   21  H9          0      70.178  36.552  11.472  1.00  0.00     0.218 HD
ENDBRANCH  17  20
BRANCH  18  22
HETATM   22  O11         0      73.621  36.578  10.834  1.00  0.00    -0.357 OA
HETATM   23  H11         0      74.495  36.288  10.597  1.00  0.00     0.218 HD
ENDBRANCH  18  22
ENDBRANCH   4  14
BRANCH   8  24
HETATM   24  O17         0      74.193  39.186  20.903  1.00  0.00    -0.359 OA
HETATM   25  H17         0      73.826  39.887  21.429  1.00  0.00     0.218 HD
ENDBRANCH   8  24
TORSDOF 5
ENDMDL
MODEL 4
REMARK VINA RESULT:      -6.3      1.638      6.518
REMARK  5 active torsions:
REMARK  status: ('A' for Active; 'I' for Inactive)
REMARK    1  A    between atoms: C4_4  and  C5_5 
REMARK    2  A    between atoms: C8_8  and  O9_9 
REMARK    3  A    between atoms: C10_11  and  O11_12 
REMARK    4  A    between atoms: C16_18  and  O17_19 
REMARK    5  A    between atoms: C19_22  and  O20_23 
ROOT
HETATM    1  O1          0      77.380  36.912  16.695  1.00  0.00    -0.286 OA
HETATM    2  C2          0      76.127  37.051  16.678  1.00  0.00     0.201 C 
HETATM    3  C3          0      75.316  36.440  15.736  1.00  0.00     0.067 C 
HETATM    4  C4          0      73.950  36.691  15.677  1.00  0.00     0.103 C 
HETATM    5  O13         0      73.419  37.519  16.559  1.00  0.00    -0.307 OA
HETATM    6  C14         0      74.148  38.155  17.450  1.00  0.00     0.107 C 
HETATM    7  C15         0      73.688  39.294  18.093  1.00  0.00     0.049 C 
HETATM    8  C16         0      74.544  40.101  18.833  1.00  0.00     0.093 C 
HETATM    9  C18         0      75.676  39.461  19.323  1.00  0.00     0.048 C 
HETATM   10  C19         0      76.137  38.293  18.733  1.00  0.00     0.096 C 
HETATM   11  C21         0      75.463  37.758  17.669  1.00  0.00     0.084 C 
ENDROOT
BRANCH  10  12
HETATM   12  O20         0      77.461  37.910  18.925  1.00  0.00    -0.359 OA
HETATM   13  H20         0      77.793  37.886  19.814  1.00  0.00     0.218 HD
ENDBRANCH  10  12
BRANCH   4  14
HETATM   14  C5          0      73.295  36.528  14.378  1.00  0.00     0.025 C 
HETATM   15  C6          0      73.630  35.519  13.488  1.00  0.00     0.004 C 
HETATM   16  C7          0      72.597  34.921  12.773  1.00  0.00     0.026 C 
HETATM   17  C8          0      71.293  35.400  12.838  1.00  0.00     0.112 C 
HETATM   18  C10         0      71.182  36.731  13.217  1.00  0.00     0.112 C 
HETATM   19  C12         0      72.187  37.279  14.004  1.00  0.00     0.028 C 
BRANCH  17  20
HETATM   20  O9          0      70.215  34.538  12.735  1.00  0.00    -0.357 OA
HETATM   21  H9          0      69.613  34.358  13.448  1.00  0.00     0.218 HD
ENDBRANCH  17  20
BRANCH  18  22
HETATM   22  O11         0      69.925  37.310  13.116  1.00  0.00    -0.357 OA
HETATM   23  H11         0      69.733  37.783  12.315  1.00  0.00     0.218 HD
ENDBRANCH  18  22
ENDBRANCH   4  14
BRANCH   8  24
HETATM   24  O17         0      74.446  41.496  18.795  1.00  0.00    -0.359 OA
HETATM   25  H17         0      74.779  42.000  18.061  1.00  0.00     0.218 HD
ENDBRANCH   8  24
TORSDOF 5
ENDMDL
MODEL 5
REMARK VINA RESULT:      -6.0      1.623      7.033
REMARK  5 active torsions:
REMARK  status: ('A' for Active; 'I' for Inactive)
REMARK    1  A    between atoms: C4_4  and  C5_5 
REMARK    2  A    between atoms: C8_8  and  O9_9 
REMARK    3  A    between atoms: C10_11  and  O11_12 
REMARK    4  A    between atoms: C16_18  and  O17_19 
REMARK    5  A    between atoms: C19_22  and  O20_23 
ROOT
HETATM    1  O1          0      74.083  41.863  15.882  1.00  0.00    -0.286 OA
HETATM    2  C2          0      74.327  40.642  16.085  1.00  0.00     0.201 C 
HETATM    3  C3          0      74.022  39.654  15.164  1.00  0.00     0.067 C 
HETATM    4  C4          0      74.206  38.307  15.454  1.00  0.00     0.103 C 
HETATM    5  O13         0      74.703  37.973  16.631  1.00  0.00    -0.307 OA
HETATM    6  C14         0      74.974  38.869  17.555  1.00  0.00     0.107 C 
HETATM    7  C15         0      75.106  38.523  18.892  1.00  0.00     0.049 C 
HETATM    8  C16         0      75.137  39.491  19.889  1.00  0.00     0.093 C 
HETATM    9  C18         0      75.560  40.748  19.473  1.00  0.00     0.048 C 
HETATM   10  C19         0      75.485  41.110  18.135  1.00  0.00     0.096 C 
HETATM   11  C21         0      75.007  40.217  17.215  1.00  0.00     0.084 C 
ENDROOT
BRANCH  10  12
HETATM   12  O20         0      75.486  42.459  17.794  1.00  0.00    -0.359 OA
HETATM   13  H20         0      75.272  42.692  16.899  1.00  0.00     0.218 HD
ENDBRANCH  10  12
BRANCH   4  14
HETATM   14  C5          0      73.351  37.348  14.752  1.00  0.00     0.025 C 
HETATM   15  C6          0      72.800  37.604  13.505  1.00  0.00     0.004 C 
HETATM   16  C7          0      72.732  36.548  12.601  1.00  0.00     0.026 C 
HETATM   17  C8          0      73.075  35.251  12.968  1.00  0.00     0.112 C 
HETATM   18  C10         0      72.993  34.993  14.329  1.00  0.00     0.112 C 
HETATM   19  C12         0      73.149  36.053  15.214  1.00  0.00     0.028 C 
BRANCH  17  20
HETATM   20  O9          0      73.650  34.385  12.054  1.00  0.00    -0.357 OA
HETATM   21  H9          0      73.551  33.441  12.088  1.00  0.00     0.218 HD
ENDBRANCH  17  20
BRANCH  18  22
HETATM   22  O11         0      73.140  33.672  14.728  1.00  0.00    -0.357 OA
HETATM   23  H11         0      73.993  33.415  15.061  1.00  0.00     0.218 HD
ENDBRANCH  18  22
ENDBRANCH   4  14
BRANCH   8  24
HETATM   24  O17         0      74.480  39.303  21.109  1.00  0.00    -0.359 OA
HETATM   25  H17         0      73.595  38.959  21.152  1.00  0.00     0.218 HD
ENDBRANCH   8  24
TORSDOF 5
ENDMDL
MODEL 6
REMARK VINA RESULT:      -5.8      1.805      2.801
REMARK  5 active torsions:
REMARK  status: ('A' for Active; 'I' for Inactive)
REMARK    1  A    between atoms: C4_4  and  C5_5 
REMARK    2  A    between atoms: C8_8  and  O9_9 
REMARK    3  A    between atoms: C10_11  and  O11_12 
REMARK    4  A    between atoms: C16_18  and  O17_19 
REMARK    5  A    between atoms: C19_22  and  O20_23 
ROOT
HETATM    1  O1          0      70.861  36.984  15.124  1.00  0.00    -0.286 OA
HETATM    2  C2          0      72.118  36.880  15.137  1.00  0.00     0.201 C 
HETATM    3  C3          0      72.892  37.270  16.218  1.00  0.00     0.067 C 
HETATM    4  C4          0      74.281  37.240  16.168  1.00  0.00     0.103 C 
HETATM    5  O13         0      74.867  36.810  15.065  1.00  0.00    -0.307 OA
HETATM    6  C14         0      74.181  36.464  13.997  1.00  0.00     0.107 C 
HETATM    7  C15         0      74.766  36.401  12.741  1.00  0.00     0.049 C 
HETATM    8  C16         0      73.995  36.287  11.591  1.00  0.00     0.093 C 
HETATM    9  C18         0      72.740  35.721  11.779  1.00  0.00     0.048 C 
HETATM   10  C19         0      72.145  35.725  13.033  1.00  0.00     0.096 C 
HETATM   11  C21         0      72.807  36.276  14.097  1.00  0.00     0.084 C 
ENDROOT
BRANCH  10  12
HETATM   12  O20         0      70.766  35.569  13.133  1.00  0.00    -0.359 OA
HETATM   13  H20         0      70.363  34.857  12.650  1.00  0.00     0.218 HD
ENDBRANCH  10  12
BRANCH   4  14
HETATM   14  C5          0      75.002  38.179  17.029  1.00  0.00     0.025 C 
HETATM   15  C6          0      75.744  39.240  16.529  1.00  0.00     0.004 C 
HETATM   16  C7          0      75.705  40.440  17.231  1.00  0.00     0.026 C 
HETATM   17  C8          0      75.061  40.547  18.459  1.00  0.00     0.112 C 
HETATM   18  C10         0      74.919  39.349  19.145  1.00  0.00     0.112 C 
HETATM   19  C12         0      74.875  38.169  18.412  1.00  0.00     0.028 C 
BRANCH  17  20
HETATM   20  O9          0      74.439  41.725  18.833  1.00  0.00    -0.357 OA
HETATM   21  H9          0      73.779  42.164  18.307  1.00  0.00     0.218 HD
ENDBRANCH  17  20
BRANCH  18  22
HETATM   22  O11         0      74.456  39.424  20.451  1.00  0.00    -0.357 OA
HETATM   23  H11         0      73.881  38.726  20.744  1.00  0.00     0.218 HD
ENDBRANCH  18  22
ENDBRANCH   4  14
BRANCH   8  24
HETATM   24  O17         0      74.318  36.989  10.424  1.00  0.00    -0.359 OA
HETATM   25  H17         0      73.869  37.791  10.184  1.00  0.00     0.218 HD
ENDBRANCH   8  24
TORSDOF 5
ENDMDL
MODEL 7
REMARK VINA RESULT:      -5.7      1.696      2.500
REMARK  5 active torsions:
REMARK  status: ('A' for Active; 'I' for Inactive)
REMARK    1  A    between atoms: C4_4  and  C5_5 
REMARK    2  A    between atoms: C8_8  and  O9_9 
REMARK    3  A    between atoms: C10_11  and  O11_12 
REMARK    4  A    between atoms: C16_18  and  O17_19 
REMARK    5  A    between atoms: C19_22  and  O20_23 
ROOT
HETATM    1  O1          0      71.173  36.695  15.064  1.00  0.00    -0.286 OA
HETATM    2  C2          0      72.339  36.986  15.449  1.00  0.00     0.201 C 
HETATM    3  C3          0      72.592  37.667  16.627  1.00  0.00     0.067 C 
HETATM    4  C4          0      73.878  38.065  16.976  1.00  0.00     0.103 C 
HETATM    5  O13         0      74.878  37.763  16.167  1.00  0.00    -0.307 OA
HETATM    6  C14         0      74.688  37.151  15.019  1.00  0.00     0.107 C 
HETATM    7  C15         0      75.635  37.186  14.006  1.00  0.00     0.049 C 
HETATM    8  C16         0      75.330  36.762  12.718  1.00  0.00     0.093 C 
HETATM    9  C18         0      74.285  35.850  12.632  1.00  0.00     0.048 C 
HETATM   10  C19         0      73.346  35.755  13.650  1.00  0.00     0.096 C 
HETATM   11  C21         0      73.459  36.554  14.755  1.00  0.00     0.084 C 
ENDROOT
BRANCH  10  12
HETATM   12  O20         0      72.105  35.188  13.380  1.00  0.00    -0.359 OA
HETATM   13  H20         0      71.335  35.735  13.476  1.00  0.00     0.218 HD
ENDBRANCH  10  12
BRANCH   4  14
HETATM   14  C5          0      74.003  39.237  17.845  1.00  0.00     0.025 C 
HETATM   15  C6          0      74.116  39.142  19.224  1.00  0.00     0.004 C 
HETATM   16  C7          0      74.975  40.030  19.863  1.00  0.00     0.026 C 
HETATM   17  C8          0      75.599  41.065  19.175  1.00  0.00     0.112 C 
HETATM   18  C10         0      74.956  41.455  18.008  1.00  0.00     0.112 C 
HETATM   19  C12         0      74.171  40.521  17.342  1.00  0.00     0.028 C 
BRANCH  17  20
HETATM   20  O9          0      76.863  41.497  19.537  1.00  0.00    -0.357 OA
HETATM   21  H9          0      77.565  41.655  18.917  1.00  0.00     0.218 HD
ENDBRANCH  17  20
BRANCH  18  22
HETATM   22  O11         0      75.427  42.602  17.384  1.00  0.00    -0.357 OA
HETATM   23  H11         0      76.153  43.051  17.802  1.00  0.00     0.218 HD
ENDBRANCH  18  22
ENDBRANCH   4  14
BRANCH   8  24
HETATM   24  O17         0      75.802  37.449  11.593  1.00  0.00    -0.359 OA
HETATM   25  H17         0      76.660  37.274  11.225  1.00  0.00     0.218 HD
ENDBRANCH   8  24
TORSDOF 5
ENDMDL
MODEL 8
REMARK VINA RESULT:      -5.7      2.119      7.228
REMARK  5 active torsions:
REMARK  status: ('A' for Active; 'I' for Inactive)
REMARK    1  A    between atoms: C4_4  and  C5_5 
REMARK    2  A    between atoms: C8_8  and  O9_9 
REMARK    3  A    between atoms: C10_11  and  O11_12 
REMARK    4  A    between atoms: C16_18  and  O17_19 
REMARK    5  A    between atoms: C19_22  and  O20_23 
ROOT
HETATM    1  O1          0      76.029  42.280  17.777  1.00  0.00    -0.286 OA
HETATM    2  C2          0      75.886  41.027  17.742  1.00  0.00     0.201 C 
HETATM    3  C3          0      75.249  40.373  16.701  1.00  0.00     0.067 C 
HETATM    4  C4          0      75.014  39.003  16.737  1.00  0.00     0.103 C 
HETATM    5  O13         0      75.430  38.315  17.785  1.00  0.00    -0.307 OA
HETATM    6  C14         0      76.007  38.892  18.816  1.00  0.00     0.107 C 
HETATM    7  C15         0      76.080  38.270  20.055  1.00  0.00     0.049 C 
HETATM    8  C16         0      76.454  38.973  21.194  1.00  0.00     0.093 C 
HETATM    9  C18         0      77.231  40.101  20.959  1.00  0.00     0.048 C 
HETATM   10  C19         0      77.218  40.720  19.716  1.00  0.00     0.096 C 
HETATM   11  C21         0      76.446  40.207  18.710  1.00  0.00     0.084 C 
ENDROOT
BRANCH  10  12
HETATM   12  O20         0      77.627  42.046  19.613  1.00  0.00    -0.359 OA
HETATM   13  H20         0      77.081  42.643  19.116  1.00  0.00     0.218 HD
ENDBRANCH  10  12
BRANCH   4  14
HETATM   14  C5          0      73.872  38.500  15.971  1.00  0.00     0.025 C 
HETATM   15  C6          0      73.825  38.530  14.584  1.00  0.00     0.004 C 
HETATM   16  C7          0      73.247  37.443  13.936  1.00  0.00     0.026 C 
HETATM   17  C8          0      72.617  36.424  14.641  1.00  0.00     0.112 C 
HETATM   18  C10         0      72.168  36.784  15.904  1.00  0.00     0.112 C 
HETATM   19  C12         0      72.819  37.818  16.566  1.00  0.00     0.028 C 
BRANCH  17  20
HETATM   20  O9          0      72.644  35.120  14.178  1.00  0.00    -0.357 OA
HETATM   21  H9          0      73.213  34.820  13.478  1.00  0.00     0.218 HD
ENDBRANCH  17  20
BRANCH  18  22
HETATM   22  O11         0      71.370  35.867  16.573  1.00  0.00    -0.357 OA
HETATM   23  H11         0      71.087  36.101  17.449  1.00  0.00     0.218 HD
ENDBRANCH  18  22
ENDBRANCH   4  14
BRANCH   8  24
HETATM   24  O17         0      75.822  38.758  22.424  1.00  0.00    -0.359 OA
HETATM   25  H17         0      76.014  37.995  22.957  1.00  0.00     0.218 HD
ENDBRANCH   8  24
TORSDOF 5
ENDMDL
MODEL 9
REMARK VINA RESULT:      -5.5      2.256      7.141
REMARK  5 active torsions:
REMARK  status: ('A' for Active; 'I' for Inactive)
REMARK    1  A    between atoms: C4_4  and  C5_5 
REMARK    2  A    between atoms: C8_8  and  O9_9 
REMARK    3  A    between atoms: C10_11  and  O11_12 
REMARK    4  A    between atoms: C16_18  and  O17_19 
REMARK    5  A    between atoms: C19_22  and  O20_23 
ROOT
HETATM    1  O1          0      76.736  42.089  14.539  1.00  0.00    -0.286 OA
HETATM    2  C2          0      76.322  41.167  15.293  1.00  0.00     0.201 C 
HETATM    3  C3          0      75.472  40.165  14.857  1.00  0.00     0.067 C 
HETATM    4  C4          0      74.949  39.221  15.734  1.00  0.00     0.103 C 
HETATM    5  O13         0      75.294  39.277  17.008  1.00  0.00    -0.307 OA
HETATM    6  C14         0      76.069  40.229  17.481  1.00  0.00     0.107 C 
HETATM    7  C15         0      76.111  40.531  18.834  1.00  0.00     0.049 C 
HETATM    8  C16         0      76.726  41.689  19.296  1.00  0.00     0.093 C 
HETATM    9  C18         0      77.706  42.208  18.458  1.00  0.00     0.048 C 
HETATM   10  C19         0      77.720  41.888  17.107  1.00  0.00     0.096 C 
HETATM   11  C21         0      76.772  41.043  16.599  1.00  0.00     0.084 C 
ENDROOT
BRANCH  10  12
HETATM   12  O20         0      78.397  42.718  16.219  1.00  0.00    -0.359 OA
HETATM   13  H20         0      78.820  43.493  16.568  1.00  0.00     0.218 HD
ENDBRANCH  10  12
BRANCH   4  14
HETATM   14  C5          0      73.664  38.616  15.378  1.00  0.00     0.025 C 
HETATM   15  C6          0      73.153  38.639  14.088  1.00  0.00     0.004 C 
HETATM   16  C7          0      72.486  37.505  13.639  1.00  0.00     0.026 C 
HETATM   17  C8          0      72.216  36.434  14.485  1.00  0.00     0.112 C 
HETATM   18  C10         0      72.186  36.755  15.835  1.00  0.00     0.112 C 
HETATM   19  C12         0      72.931  37.845  16.271  1.00  0.00     0.028 C 
BRANCH  17  20
HETATM   20  O9          0      72.197  35.137  14.003  1.00  0.00    -0.357 OA
HETATM   21  H9          0      71.401  34.634  13.873  1.00  0.00     0.218 HD
ENDBRANCH  17  20
BRANCH  18  22
HETATM   22  O11         0      71.738  35.772  16.705  1.00  0.00    -0.357 OA
HETATM   23  H11         0      72.376  35.409  17.309  1.00  0.00     0.218 HD
ENDBRANCH  18  22
ENDBRANCH   4  14
BRANCH   8  24
HETATM   24  O17         0      76.171  42.445  20.334  1.00  0.00    -0.359 OA
HETATM   25  H17         0      75.259  42.710  20.326  1.00  0.00     0.218 HD
ENDBRANCH   8  24
TORSDOF 5
ENDMDL
