MODEL 1
REMARK VINA RESULT:      -5.9      0.000      0.000
REMARK  5 active torsions:
REMARK  status: ('A' for Active; 'I' for Inactive)
REMARK    1  A    between atoms: C4_4  and  C5_5 
REMARK    2  A    between atoms: C8_8  and  O9_9 
REMARK    3  A    between atoms: C10_11  and  O11_12 
REMARK    4  A    between atoms: C16_18  and  O17_19 
REMARK    5  A    between atoms: C19_22  and  O20_23 
ROOT
HETATM    1  O1          0       8.274  79.171 -21.543  1.00  0.00    -0.286 OA
HETATM    2  C2          0       7.699  78.821 -22.610  1.00  0.00     0.201 C 
HETATM    3  C3          0       6.322  78.773 -22.740  1.00  0.00     0.067 C 
HETATM    4  C4          0       5.715  78.286 -23.892  1.00  0.00     0.103 C 
HETATM    5  O13         0       6.480  77.880 -24.889  1.00  0.00    -0.307 OA
HETATM    6  C14         0       7.793  77.868 -24.803  1.00  0.00     0.107 C 
HETATM    7  C15         0       8.573  77.094 -25.649  1.00  0.00     0.049 C 
HETATM    8  C16         0       9.924  76.886 -25.396  1.00  0.00     0.093 C 
HETATM    9  C18         0      10.535  77.869 -24.626  1.00  0.00     0.048 C 
HETATM   10  C19         0       9.778  78.693 -23.804  1.00  0.00     0.096 C 
HETATM   11  C21         0       8.418  78.547 -23.764  1.00  0.00     0.084 C 
ENDROOT
BRANCH  10  12
HETATM   12  O20         0      10.396  79.349 -22.744  1.00  0.00    -0.359 OA
HETATM   13  H20         0      10.561  80.280 -22.832  1.00  0.00     0.218 HD
ENDBRANCH  10  12
BRANCH   4  14
HETATM   14  C5          0       4.376  77.711 -23.751  1.00  0.00     0.025 C 
HETATM   15  C6          0       3.220  78.412 -24.064  1.00  0.00     0.004 C 
HETATM   16  C7          0       2.185  77.710 -24.674  1.00  0.00     0.026 C 
HETATM   17  C8          0       2.242  76.331 -24.846  1.00  0.00     0.112 C 
HETATM   18  C10         0       3.092  75.672 -23.968  1.00  0.00     0.112 C 
HETATM   19  C12         0       4.169  76.374 -23.439  1.00  0.00     0.028 C 
BRANCH  17  20
HETATM   20  O9          0       1.654  75.729 -25.944  1.00  0.00    -0.357 OA
HETATM   21  H9          0       0.736  75.487 -25.985  1.00  0.00     0.218 HD
ENDBRANCH  17  20
BRANCH  18  22
HETATM   22  O11         0       3.045  74.285 -23.969  1.00  0.00    -0.357 OA
HETATM   23  H11         0       3.669  73.833 -24.525  1.00  0.00     0.218 HD
ENDBRANCH  18  22
ENDBRANCH   4  14
BRANCH   8  24
HETATM   24  O17         0      10.522  75.638 -25.605  1.00  0.00    -0.359 OA
HETATM   25  H17         0      11.380  75.431 -25.254  1.00  0.00     0.218 HD
ENDBRANCH   8  24
TORSDOF 5
ENDMDL
MODEL 2
REMARK VINA RESULT:      -5.8      2.098      6.366
REMARK  5 active torsions:
REMARK  status: ('A' for Active; 'I' for Inactive)
REMARK    1  A    between atoms: C4_4  and  C5_5 
REMARK    2  A    between atoms: C8_8  and  O9_9 
REMARK    3  A    between atoms: C10_11  and  O11_12 
REMARK    4  A    between atoms: C16_18  and  O17_19 
REMARK    5  A    between atoms: C19_22  and  O20_23 
ROOT
HETATM    1  O1          0       6.547  77.753 -20.351  1.00  0.00    -0.286 OA
HETATM    2  C2          0       6.546  77.592 -21.603  1.00  0.00     0.201 C 
HETATM    3  C3          0       7.681  77.746 -22.380  1.00  0.00     0.067 C 
HETATM    4  C4          0       7.631  77.664 -23.767  1.00  0.00     0.103 C 
HETATM    5  O13         0       6.470  77.412 -24.346  1.00  0.00    -0.307 OA
HETATM    6  C14         0       5.356  77.295 -23.658  1.00  0.00     0.107 C 
HETATM    7  C15         0       4.111  77.432 -24.254  1.00  0.00     0.049 C 
HETATM    8  C16         0       2.956  77.561 -23.491  1.00  0.00     0.093 C 
HETATM    9  C18         0       3.036  77.027 -22.211  1.00  0.00     0.048 C 
HETATM   10  C19         0       4.269  76.833 -21.603  1.00  0.00     0.096 C 
HETATM   11  C21         0       5.416  77.154 -22.276  1.00  0.00     0.084 C 
ENDROOT
BRANCH  10  12
HETATM   12  O20         0       4.334  76.723 -20.217  1.00  0.00    -0.359 OA
HETATM   13  H20         0       4.077  75.898 -19.823  1.00  0.00     0.218 HD
ENDBRANCH  10  12
BRANCH   4  14
HETATM   14  C5          0       8.649  78.400 -24.519  1.00  0.00     0.025 C 
HETATM   15  C6          0       9.845  78.819 -23.954  1.00  0.00     0.004 C 
HETATM   16  C7          0      10.990  78.746 -24.741  1.00  0.00     0.026 C 
HETATM   17  C8          0      10.930  78.397 -26.085  1.00  0.00     0.112 C 
HETATM   18  C10         0       9.699  78.619 -26.688  1.00  0.00     0.112 C 
HETATM   19  C12         0       8.561  78.602 -25.890  1.00  0.00     0.028 C 
BRANCH  17  20
HETATM   20  O9          0      11.961  77.692 -26.681  1.00  0.00    -0.357 OA
HETATM   21  H9          0      12.787  77.501 -26.252  1.00  0.00     0.218 HD
ENDBRANCH  17  20
BRANCH  18  22
HETATM   22  O11         0       9.637  78.467 -28.066  1.00  0.00    -0.357 OA
HETATM   23  H11         0      10.068  79.131 -28.591  1.00  0.00     0.218 HD
ENDBRANCH  18  22
ENDBRANCH   4  14
BRANCH   8  24
HETATM   24  O17         0       1.936  78.445 -23.857  1.00  0.00    -0.359 OA
HETATM   25  H17         0       1.261  78.199 -24.479  1.00  0.00     0.218 HD
ENDBRANCH   8  24
TORSDOF 5
ENDMDL
MODEL 3
REMARK VINA RESULT:      -5.7      4.178      6.665
REMARK  5 active torsions:
REMARK  status: ('A' for Active; 'I' for Inactive)
REMARK    1  A    between atoms: C4_4  and  C5_5 
REMARK    2  A    between atoms: C8_8  and  O9_9 
REMARK    3  A    between atoms: C10_11  and  O11_12 
REMARK    4  A    between atoms: C16_18  and  O17_19 
REMARK    5  A    between atoms: C19_22  and  O20_23 
ROOT
HETATM    1  O1          0       4.823  77.105 -26.797  1.00  0.00    -0.286 OA
HETATM    2  C2          0       6.001  77.323 -27.193  1.00  0.00     0.201 C 
HETATM    3  C3          0       6.330  77.458 -28.531  1.00  0.00     0.067 C 
HETATM    4  C4          0       7.650  77.595 -28.947  1.00  0.00     0.103 C 
HETATM    5  O13         0       8.604  77.615 -28.033  1.00  0.00    -0.307 OA
HETATM    6  C14         0       8.350  77.453 -26.753  1.00  0.00     0.107 C 
HETATM    7  C15         0       9.337  77.077 -25.853  1.00  0.00     0.049 C 
HETATM    8  C16         0       9.020  76.662 -24.565  1.00  0.00     0.093 C 
HETATM    9  C18         0       7.809  77.138 -24.077  1.00  0.00     0.048 C 
HETATM   10  C19         0       6.816  77.567 -24.948  1.00  0.00     0.096 C 
HETATM   11  C21         0       7.038  77.536 -26.298  1.00  0.00     0.084 C 
ENDROOT
BRANCH  10  12
HETATM   12  O20         0       5.499  77.620 -24.505  1.00  0.00    -0.359 OA
HETATM   13  H20         0       5.228  77.002 -23.836  1.00  0.00     0.218 HD
ENDBRANCH  10  12
BRANCH   4  14
HETATM   14  C5          0       7.978  77.136 -30.298  1.00  0.00     0.025 C 
HETATM   15  C6          0       8.886  77.793 -31.115  1.00  0.00     0.004 C 
HETATM   16  C7          0       9.721  77.012 -31.909  1.00  0.00     0.026 C 
HETATM   17  C8          0       9.569  75.632 -31.990  1.00  0.00     0.112 C 
HETATM   18  C10         0       8.300  75.169 -31.669  1.00  0.00     0.112 C 
HETATM   19  C12         0       7.519  75.927 -30.805  1.00  0.00     0.028 C 
BRANCH  17  20
HETATM   20  O9          0      10.666  74.808 -32.169  1.00  0.00    -0.357 OA
HETATM   21  H9          0      10.616  73.938 -32.547  1.00  0.00     0.218 HD
ENDBRANCH  17  20
BRANCH  18  22
HETATM   22  O11         0       8.041  73.828 -31.913  1.00  0.00    -0.357 OA
HETATM   23  H11         0       7.134  73.586 -32.065  1.00  0.00     0.218 HD
ENDBRANCH  18  22
ENDBRANCH   4  14
BRANCH   8  24
HETATM   24  O17         0       9.690  75.596 -23.957  1.00  0.00    -0.359 OA
HETATM   25  H17         0      10.050  75.667 -23.081  1.00  0.00     0.218 HD
ENDBRANCH   8  24
TORSDOF 5
ENDMDL
MODEL 4
REMARK VINA RESULT:      -5.5      2.398      3.414
REMARK  5 active torsions:
REMARK  status: ('A' for Active; 'I' for Inactive)
REMARK    1  A    between atoms: C4_4  and  C5_5 
REMARK    2  A    between atoms: C8_8  and  O9_9 
REMARK    3  A    between atoms: C10_11  and  O11_12 
REMARK    4  A    between atoms: C16_18  and  O17_19 
REMARK    5  A    between atoms: C19_22  and  O20_23 
ROOT
HETATM    1  O1          0       9.446  75.782 -24.184  1.00  0.00    -0.286 OA
HETATM    2  C2          0       9.060  76.955 -23.925  1.00  0.00     0.201 C 
HETATM    3  C3          0       8.247  77.256 -22.845  1.00  0.00     0.067 C 
HETATM    4  C4          0       7.753  78.539 -22.641  1.00  0.00     0.103 C 
HETATM    5  O13         0       8.090  79.492 -23.492  1.00  0.00    -0.307 OA
HETATM    6  C14         0       8.829  79.252 -24.553  1.00  0.00     0.107 C 
HETATM    7  C15         0       8.855  80.119 -25.636  1.00  0.00     0.049 C 
HETATM    8  C16         0       9.427  79.744 -26.846  1.00  0.00     0.093 C 
HETATM    9  C18         0      10.392  78.749 -26.756  1.00  0.00     0.048 C 
HETATM   10  C19         0      10.424  77.894 -25.663  1.00  0.00     0.096 C 
HETATM   11  C21         0       9.508  78.043 -24.657  1.00  0.00     0.084 C 
ENDROOT
BRANCH  10  12
HETATM   12  O20         0      11.076  76.670 -25.775  1.00  0.00    -0.359 OA
HETATM   13  H20         0      11.578  76.363 -25.030  1.00  0.00     0.218 HD
ENDBRANCH  10  12
BRANCH   4  14
HETATM   14  C5          0       6.491  78.662 -21.909  1.00  0.00     0.025 C 
HETATM   15  C6          0       5.482  79.534 -22.291  1.00  0.00     0.004 C 
HETATM   16  C7          0       4.168  79.099 -22.155  1.00  0.00     0.026 C 
HETATM   17  C8          0       3.860  77.892 -21.537  1.00  0.00     0.112 C 
HETATM   18  C10         0       4.829  77.427 -20.658  1.00  0.00     0.112 C 
HETATM   19  C12         0       6.149  77.810 -20.867  1.00  0.00     0.028 C 
BRANCH  17  20
HETATM   20  O9          0       2.772  77.142 -21.948  1.00  0.00    -0.357 OA
HETATM   21  H9          0       1.967  77.520 -22.284  1.00  0.00     0.218 HD
ENDBRANCH  17  20
BRANCH  18  22
HETATM   22  O11         0       4.494  76.331 -19.875  1.00  0.00    -0.357 OA
HETATM   23  H11         0       4.830  75.486 -20.151  1.00  0.00     0.218 HD
ENDBRANCH  18  22
ENDBRANCH   4  14
BRANCH   8  24
HETATM   24  O17         0       8.841  80.093 -28.068  1.00  0.00    -0.359 OA
HETATM   25  H17         0       7.899  80.170 -28.166  1.00  0.00     0.218 HD
ENDBRANCH   8  24
TORSDOF 5
ENDMDL
MODEL 5
REMARK VINA RESULT:      -5.4      2.695      6.963
REMARK  5 active torsions:
REMARK  status: ('A' for Active; 'I' for Inactive)
REMARK    1  A    between atoms: C4_4  and  C5_5 
REMARK    2  A    between atoms: C8_8  and  O9_9 
REMARK    3  A    between atoms: C10_11  and  O11_12 
REMARK    4  A    between atoms: C16_18  and  O17_19 
REMARK    5  A    between atoms: C19_22  and  O20_23 
ROOT
HETATM    1  O1          0       5.624  76.213 -29.684  1.00  0.00    -0.286 OA
HETATM    2  C2          0       5.455  76.830 -28.596  1.00  0.00     0.201 C 
HETATM    3  C3          0       6.502  77.376 -27.873  1.00  0.00     0.067 C 
HETATM    4  C4          0       6.300  77.961 -26.628  1.00  0.00     0.103 C 
HETATM    5  O13         0       5.073  78.009 -26.141  1.00  0.00    -0.307 OA
HETATM    6  C14         0       4.049  77.473 -26.769  1.00  0.00     0.107 C 
HETATM    7  C15         0       2.868  77.165 -26.111  1.00  0.00     0.049 C 
HETATM    8  C16         0       1.894  76.374 -26.709  1.00  0.00     0.093 C 
HETATM    9  C18         0       1.912  76.371 -28.099  1.00  0.00     0.048 C 
HETATM   10  C19         0       3.065  76.719 -28.790  1.00  0.00     0.096 C 
HETATM   11  C21         0       4.187  77.085 -28.097  1.00  0.00     0.084 C 
ENDROOT
BRANCH  10  12
HETATM   12  O20         0       3.218  76.305 -30.109  1.00  0.00    -0.359 OA
HETATM   13  H20         0       2.560  76.573 -30.739  1.00  0.00     0.218 HD
ENDBRANCH  10  12
BRANCH   4  14
HETATM   14  C5          0       7.429  77.957 -25.695  1.00  0.00     0.025 C 
HETATM   15  C6          0       7.267  78.011 -24.318  1.00  0.00     0.004 C 
HETATM   16  C7          0       8.128  77.248 -23.537  1.00  0.00     0.026 C 
HETATM   17  C8          0       9.200  76.558 -24.094  1.00  0.00     0.112 C 
HETATM   18  C10         0       9.643  77.060 -25.311  1.00  0.00     0.112 C 
HETATM   19  C12         0       8.737  77.747 -26.111  1.00  0.00     0.028 C 
BRANCH  17  20
HETATM   20  O9          0       9.622  75.354 -23.560  1.00  0.00    -0.357 OA
HETATM   21  H9          0       9.144  74.538 -23.653  1.00  0.00     0.218 HD
ENDBRANCH  17  20
BRANCH  18  22
HETATM   22  O11         0      10.822  76.532 -25.817  1.00  0.00    -0.357 OA
HETATM   23  H11         0      11.174  75.767 -25.377  1.00  0.00     0.218 HD
ENDBRANCH  18  22
ENDBRANCH   4  14
BRANCH   8  24
HETATM   24  O17         0       1.188  75.410 -25.980  1.00  0.00    -0.359 OA
HETATM   25  H17         0       1.091  74.519 -26.295  1.00  0.00     0.218 HD
ENDBRANCH   8  24
TORSDOF 5
ENDMDL
MODEL 6
REMARK VINA RESULT:      -5.3      2.982      4.624
REMARK  5 active torsions:
REMARK  status: ('A' for Active; 'I' for Inactive)
REMARK    1  A    between atoms: C4_4  and  C5_5 
REMARK    2  A    between atoms: C8_8  and  O9_9 
REMARK    3  A    between atoms: C10_11  and  O11_12 
REMARK    4  A    between atoms: C16_18  and  O17_19 
REMARK    5  A    between atoms: C19_22  and  O20_23 
ROOT
HETATM    1  O1          0       9.342  77.189 -26.670  1.00  0.00    -0.286 OA
HETATM    2  C2          0       8.134  77.400 -26.372  1.00  0.00     0.201 C 
HETATM    3  C3          0       7.700  77.555 -25.066  1.00  0.00     0.067 C 
HETATM    4  C4          0       6.351  77.683 -24.758  1.00  0.00     0.103 C 
HETATM    5  O13         0       5.471  77.677 -25.744  1.00  0.00    -0.307 OA
HETATM    6  C14         0       5.826  77.495 -26.997  1.00  0.00     0.107 C 
HETATM    7  C15         0       4.916  77.092 -27.964  1.00  0.00     0.049 C 
HETATM    8  C16         0       5.338  76.658 -29.215  1.00  0.00     0.093 C 
HETATM    9  C18         0       6.578  77.140 -29.616  1.00  0.00     0.048 C 
HETATM   10  C19         0       7.495  77.595 -28.678  1.00  0.00     0.096 C 
HETATM   11  C21         0       7.168  77.585 -27.349  1.00  0.00     0.084 C 
ENDROOT
BRANCH  10  12
HETATM   12  O20         0       8.843  77.656 -29.018  1.00  0.00    -0.359 OA
HETATM   13  H20         0       9.481  77.630 -28.315  1.00  0.00     0.218 HD
ENDBRANCH  10  12
BRANCH   4  14
HETATM   14  C5          0       5.923  77.244 -23.428  1.00  0.00     0.025 C 
HETATM   15  C6          0       6.748  77.306 -22.315  1.00  0.00     0.004 C 
HETATM   16  C7          0       6.167  77.664 -21.102  1.00  0.00     0.026 C 
HETATM   17  C8          0       4.792  77.824 -20.970  1.00  0.00     0.112 C 
HETATM   18  C10         0       4.036  77.145 -21.917  1.00  0.00     0.112 C 
HETATM   19  C12         0       4.613  76.875 -23.152  1.00  0.00     0.028 C 
BRANCH  17  20
HETATM   20  O9          0       4.268  78.758 -20.094  1.00  0.00    -0.357 OA
HETATM   21  H9          0       4.643  78.951 -19.243  1.00  0.00     0.218 HD
ENDBRANCH  17  20
BRANCH  18  22
HETATM   22  O11         0       2.663  77.116 -21.721  1.00  0.00    -0.357 OA
HETATM   23  H11         0       2.142  76.692 -22.392  1.00  0.00     0.218 HD
ENDBRANCH  18  22
ENDBRANCH   4  14
BRANCH   8  24
HETATM   24  O17         0       4.728  75.573 -29.854  1.00  0.00    -0.359 OA
HETATM   25  H17         0       3.995  75.691 -30.447  1.00  0.00     0.218 HD
ENDBRANCH   8  24
TORSDOF 5
ENDMDL
MODEL 7
REMARK VINA RESULT:      -5.3      3.074      4.878
REMARK  5 active torsions:
REMARK  status: ('A' for Active; 'I' for Inactive)
REMARK    1  A    between atoms: C4_4  and  C5_5 
REMARK    2  A    between atoms: C8_8  and  O9_9 
REMARK    3  A    between atoms: C10_11  and  O11_12 
REMARK    4  A    between atoms: C16_18  and  O17_19 
REMARK    5  A    between atoms: C19_22  and  O20_23 
ROOT
HETATM    1  O1          0       7.793  79.024 -23.311  1.00  0.00    -0.286 OA
HETATM    2  C2          0       6.936  78.232 -23.792  1.00  0.00     0.201 C 
HETATM    3  C3          0       6.850  77.951 -25.144  1.00  0.00     0.067 C 
HETATM    4  C4          0       5.833  77.155 -25.659  1.00  0.00     0.103 C 
HETATM    5  O13         0       4.944  76.643 -24.826  1.00  0.00    -0.307 OA
HETATM    6  C14         0       4.958  76.909 -23.539  1.00  0.00     0.107 C 
HETATM    7  C15         0       3.839  76.721 -22.741  1.00  0.00     0.049 C 
HETATM    8  C16         0       3.776  77.236 -21.452  1.00  0.00     0.093 C 
HETATM    9  C18         0       5.008  77.451 -20.845  1.00  0.00     0.048 C 
HETATM   10  C19         0       6.156  77.597 -21.612  1.00  0.00     0.096 C 
HETATM   11  C21         0       6.077  77.512 -22.975  1.00  0.00     0.084 C 
ENDROOT
BRANCH  10  12
HETATM   12  O20         0       7.266  78.229 -21.060  1.00  0.00    -0.359 OA
HETATM   13  H20         0       7.434  78.105 -20.134  1.00  0.00     0.218 HD
ENDBRANCH  10  12
BRANCH   4  14
HETATM   14  C5          0       5.444  77.383 -27.052  1.00  0.00     0.025 C 
HETATM   15  C6          0       6.365  77.631 -28.059  1.00  0.00     0.004 C 
HETATM   16  C7          0       6.124  77.066 -29.307  1.00  0.00     0.026 C 
HETATM   17  C8          0       4.940  76.390 -29.585  1.00  0.00     0.112 C 
HETATM   18  C10         0       3.870  76.738 -28.772  1.00  0.00     0.112 C 
HETATM   19  C12         0       4.138  77.220 -27.497  1.00  0.00     0.028 C 
BRANCH  17  20
HETATM   20  O9          0       4.925  75.318 -30.460  1.00  0.00    -0.357 OA
HETATM   21  H9          0       4.188  74.726 -30.556  1.00  0.00     0.218 HD
ENDBRANCH  17  20
BRANCH  18  22
HETATM   22  O11         0       2.624  76.237 -29.125  1.00  0.00    -0.357 OA
HETATM   23  H11         0       2.422  75.351 -28.847  1.00  0.00     0.218 HD
ENDBRANCH  18  22
ENDBRANCH   4  14
BRANCH   8  24
HETATM   24  O17         0       2.600  77.803 -20.949  1.00  0.00    -0.359 OA
HETATM   25  H17         0       1.757  77.377 -21.052  1.00  0.00     0.218 HD
ENDBRANCH   8  24
TORSDOF 5
ENDMDL
MODEL 8
REMARK VINA RESULT:      -5.3      2.444      3.290
REMARK  5 active torsions:
REMARK  status: ('A' for Active; 'I' for Inactive)
REMARK    1  A    between atoms: C4_4  and  C5_5 
REMARK    2  A    between atoms: C8_8  and  O9_9 
REMARK    3  A    between atoms: C10_11  and  O11_12 
REMARK    4  A    between atoms: C16_18  and  O17_19 
REMARK    5  A    between atoms: C19_22  and  O20_23 
ROOT
HETATM    1  O1          0      10.272  76.430 -25.496  1.00  0.00    -0.286 OA
HETATM    2  C2          0       9.397  77.339 -25.463  1.00  0.00     0.201 C 
HETATM    3  C3          0       8.298  77.292 -24.622  1.00  0.00     0.067 C 
HETATM    4  C4          0       7.297  78.255 -24.678  1.00  0.00     0.103 C 
HETATM    5  O13         0       7.416  79.245 -25.545  1.00  0.00    -0.307 OA
HETATM    6  C14         0       8.420  79.316 -26.391  1.00  0.00     0.107 C 
HETATM    7  C15         0       8.355  80.093 -27.539  1.00  0.00     0.049 C 
HETATM    8  C16         0       9.301  79.969 -28.549  1.00  0.00     0.093 C 
HETATM    9  C18         0      10.533  79.471 -28.141  1.00  0.00     0.048 C 
HETATM   10  C19         0      10.642  78.729 -26.973  1.00  0.00     0.096 C 
HETATM   11  C21         0       9.531  78.500 -26.208  1.00  0.00     0.084 C 
ENDROOT
BRANCH  10  12
HETATM   12  O20         0      11.737  77.888 -26.801  1.00  0.00    -0.359 OA
HETATM   13  H20         0      12.507  78.242 -26.373  1.00  0.00     0.218 HD
ENDBRANCH  10  12
BRANCH   4  14
HETATM   14  C5          0       5.957  77.853 -24.247  1.00  0.00     0.025 C 
HETATM   15  C6          0       4.857  77.874 -25.093  1.00  0.00     0.004 C 
HETATM   16  C7          0       3.934  76.840 -24.976  1.00  0.00     0.026 C 
HETATM   17  C8          0       4.027  75.890 -23.964  1.00  0.00     0.112 C 
HETATM   18  C10         0       4.738  76.303 -22.845  1.00  0.00     0.112 C 
HETATM   19  C12         0       5.715  77.279 -23.006  1.00  0.00     0.028 C 
BRANCH  17  20
HETATM   20  O9          0       3.619  74.585 -24.176  1.00  0.00    -0.357 OA
HETATM   21  H9          0       4.198  73.894 -24.476  1.00  0.00     0.218 HD
ENDBRANCH  17  20
BRANCH  18  22
HETATM   22  O11         0       4.701  75.472 -21.735  1.00  0.00    -0.357 OA
HETATM   23  H11         0       4.478  74.560 -21.887  1.00  0.00     0.218 HD
ENDBRANCH  18  22
ENDBRANCH   4  14
BRANCH   8  24
HETATM   24  O17         0       8.937  80.017 -29.899  1.00  0.00    -0.359 OA
HETATM   25  H17         0       8.230  80.571 -30.206  1.00  0.00     0.218 HD
ENDBRANCH   8  24
TORSDOF 5
ENDMDL
MODEL 9
REMARK VINA RESULT:      -5.2      2.071      6.575
REMARK  5 active torsions:
REMARK  status: ('A' for Active; 'I' for Inactive)
REMARK    1  A    between atoms: C4_4  and  C5_5 
REMARK    2  A    between atoms: C8_8  and  O9_9 
REMARK    3  A    between atoms: C10_11  and  O11_12 
REMARK    4  A    between atoms: C16_18  and  O17_19 
REMARK    5  A    between atoms: C19_22  and  O20_23 
ROOT
HETATM    1  O1          0       4.356  76.690 -25.706  1.00  0.00    -0.286 OA
HETATM    2  C2          0       5.011  77.469 -24.961  1.00  0.00     0.201 C 
HETATM    3  C3          0       6.171  78.102 -25.372  1.00  0.00     0.067 C 
HETATM    4  C4          0       6.929  78.873 -24.499  1.00  0.00     0.103 C 
HETATM    5  O13         0       6.512  79.016 -23.253  1.00  0.00    -0.307 OA
HETATM    6  C14         0       5.438  78.406 -22.801  1.00  0.00     0.107 C 
HETATM    7  C15         0       5.219  78.222 -21.443  1.00  0.00     0.049 C 
HETATM    8  C16         0       4.227  77.365 -20.982  1.00  0.00     0.093 C 
HETATM    9  C18         0       3.180  77.148 -21.870  1.00  0.00     0.048 C 
HETATM   10  C19         0       3.350  77.368 -23.230  1.00  0.00     0.096 C 
HETATM   11  C21         0       4.555  77.818 -23.699  1.00  0.00     0.084 C 
ENDROOT
BRANCH  10  12
HETATM   12  O20         0       2.487  76.754 -24.132  1.00  0.00    -0.359 OA
HETATM   13  H20         0       2.253  75.847 -23.977  1.00  0.00     0.218 HD
ENDBRANCH  10  12
BRANCH   4  14
HETATM   14  C5          0       8.361  78.994 -24.781  1.00  0.00     0.025 C 
HETATM   15  C6          0       9.339  78.713 -23.839  1.00  0.00     0.004 C 
HETATM   16  C7          0      10.496  78.078 -24.280  1.00  0.00     0.026 C 
HETATM   17  C8          0      10.732  77.850 -25.631  1.00  0.00     0.112 C 
HETATM   18  C10         0      10.046  78.697 -26.491  1.00  0.00     0.112 C 
HETATM   19  C12         0       8.849  79.252 -26.056  1.00  0.00     0.028 C 
BRANCH  17  20
HETATM   20  O9          0      11.428  76.730 -26.050  1.00  0.00    -0.357 OA
HETATM   21  H9          0      12.339  76.745 -26.321  1.00  0.00     0.218 HD
ENDBRANCH  17  20
BRANCH  18  22
HETATM   22  O11         0      10.388  78.640 -27.835  1.00  0.00    -0.357 OA
HETATM   23  H11         0      10.019  79.308 -28.401  1.00  0.00     0.218 HD
ENDBRANCH  18  22
ENDBRANCH   4  14
BRANCH   8  24
HETATM   24  O17         0       4.437  76.535 -19.875  1.00  0.00    -0.359 OA
HETATM   25  H17         0       5.007  75.777 -19.920  1.00  0.00     0.218 HD
ENDBRANCH   8  24
TORSDOF 5
ENDMDL
