MODEL 1
REMARK VINA RESULT:      -8.3      0.000      0.000
REMARK  5 active torsions:
REMARK  status: ('A' for Active; 'I' for Inactive)
REMARK    1  A    between atoms: C4_4  and  C5_5 
REMARK    2  A    between atoms: C8_8  and  O9_9 
REMARK    3  A    between atoms: C10_11  and  O11_12 
REMARK    4  A    between atoms: C16_18  and  O17_19 
REMARK    5  A    between atoms: C19_22  and  O20_23 
ROOT
HETATM    1  O1          0      33.656  60.080 -13.760  1.00  0.00    -0.286 OA
HETATM    2  C2          0      33.332  60.614 -12.664  1.00  0.00     0.201 C 
HETATM    3  C3          0      32.019  60.709 -12.234  1.00  0.00     0.067 C 
HETATM    4  C4          0      31.680  61.393 -11.073  1.00  0.00     0.103 C 
HETATM    5  O13         0      32.644  61.946 -10.357  1.00  0.00    -0.307 OA
HETATM    6  C14         0      33.902  61.918 -10.740  1.00  0.00     0.107 C 
HETATM    7  C15         0      34.839  62.808 -10.235  1.00  0.00     0.049 C 
HETATM    8  C16         0      36.092  62.945 -10.819  1.00  0.00     0.093 C 
HETATM    9  C18         0      36.532  61.836 -11.532  1.00  0.00     0.048 C 
HETATM   10  C19         0      35.625  60.901 -12.012  1.00  0.00     0.096 C 
HETATM   11  C21         0      34.289  61.063 -11.766  1.00  0.00     0.084 C 
ENDROOT
BRANCH  10  12
HETATM   12  O20         0      35.999  60.066 -13.060  1.00  0.00    -0.359 OA
HETATM   13  H20         0      36.084  60.448 -13.925  1.00  0.00     0.218 HD
ENDBRANCH  10  12
BRANCH   4  14
HETATM   14  C5          0      30.333  61.961 -10.999  1.00  0.00     0.025 C 
HETATM   15  C6          0      30.074  63.309 -11.200  1.00  0.00     0.004 C 
HETATM   16  C7          0      28.914  63.647 -11.890  1.00  0.00     0.026 C 
HETATM   17  C8          0      27.975  62.687 -12.251  1.00  0.00     0.112 C 
HETATM   18  C10         0      28.002  61.531 -11.482  1.00  0.00     0.112 C 
HETATM   19  C12         0      29.198  61.171 -10.872  1.00  0.00     0.028 C 
BRANCH  17  20
HETATM   20  O9          0      27.239  62.818 -13.416  1.00  0.00    -0.357 OA
HETATM   21  H9          0      27.180  63.624 -13.915  1.00  0.00     0.218 HD
ENDBRANCH  17  20
BRANCH  18  22
HETATM   22  O11         0      26.969  60.624 -11.674  1.00  0.00    -0.357 OA
HETATM   23  H11         0      27.022  59.805 -11.196  1.00  0.00     0.218 HD
ENDBRANCH  18  22
ENDBRANCH   4  14
BRANCH   8  24
HETATM   24  O17         0      36.697  64.199 -10.962  1.00  0.00    -0.359 OA
HETATM   25  H17         0      36.687  64.666 -11.789  1.00  0.00     0.218 HD
ENDBRANCH   8  24
TORSDOF 5
ENDMDL
MODEL 2
REMARK VINA RESULT:      -8.1      4.461      7.551
REMARK  5 active torsions:
REMARK  status: ('A' for Active; 'I' for Inactive)
REMARK    1  A    between atoms: C4_4  and  C5_5 
REMARK    2  A    between atoms: C8_8  and  O9_9 
REMARK    3  A    between atoms: C10_11  and  O11_12 
REMARK    4  A    between atoms: C16_18  and  O17_19 
REMARK    5  A    between atoms: C19_22  and  O20_23 
ROOT
HETATM    1  O1          0      27.451  65.263 -10.509  1.00  0.00    -0.286 OA
HETATM    2  C2          0      26.815  64.269 -10.955  1.00  0.00     0.201 C 
HETATM    3  C3          0      25.434  64.188 -10.928  1.00  0.00     0.067 C 
HETATM    4  C4          0      24.763  63.038 -11.331  1.00  0.00     0.103 C 
HETATM    5  O13         0      25.471  62.011 -11.766  1.00  0.00    -0.307 OA
HETATM    6  C14         0      26.785  62.021 -11.777  1.00  0.00     0.107 C 
HETATM    7  C15         0      27.525  60.849 -11.842  1.00  0.00     0.049 C 
HETATM    8  C16         0      28.893  60.845 -11.598  1.00  0.00     0.093 C 
HETATM    9  C18         0      29.533  62.059 -11.817  1.00  0.00     0.048 C 
HETATM   10  C19         0      28.815  63.247 -11.805  1.00  0.00     0.096 C 
HETATM   11  C21         0      27.463  63.221 -11.591  1.00  0.00     0.084 C 
ENDROOT
BRANCH  10  12
HETATM   12  O20         0      29.487  64.446 -11.588  1.00  0.00    -0.359 OA
HETATM   13  H20         0      30.410  64.406 -11.370  1.00  0.00     0.218 HD
ENDBRANCH  10  12
BRANCH   4  14
HETATM   14  C5          0      23.448  62.788 -10.739  1.00  0.00     0.025 C 
HETATM   15  C6          0      23.256  61.925  -9.670  1.00  0.00     0.004 C 
HETATM   16  C7          0      22.326  62.293  -8.703  1.00  0.00     0.026 C 
HETATM   17  C8          0      21.516  63.413  -8.858  1.00  0.00     0.112 C 
HETATM   18  C10         0      21.332  63.817 -10.174  1.00  0.00     0.112 C 
HETATM   19  C12         0      22.318  63.509 -11.104  1.00  0.00     0.028 C 
BRANCH  17  20
HETATM   20  O9          0      21.123  64.161  -7.763  1.00  0.00    -0.357 OA
HETATM   21  H9          0      21.560  64.956  -7.482  1.00  0.00     0.218 HD
ENDBRANCH  17  20
BRANCH  18  22
HETATM   22  O11         0      20.387  64.807 -10.401  1.00  0.00    -0.357 OA
HETATM   23  H11         0      19.729  64.937  -9.727  1.00  0.00     0.218 HD
ENDBRANCH  18  22
ENDBRANCH   4  14
BRANCH   8  24
HETATM   24  O17         0      29.501  59.814 -10.873  1.00  0.00    -0.359 OA
HETATM   25  H17         0      30.116  59.214 -11.278  1.00  0.00     0.218 HD
ENDBRANCH   8  24
TORSDOF 5
ENDMDL
MODEL 3
REMARK VINA RESULT:      -8.1      2.724      4.669
REMARK  5 active torsions:
REMARK  status: ('A' for Active; 'I' for Inactive)
REMARK    1  A    between atoms: C4_4  and  C5_5 
REMARK    2  A    between atoms: C8_8  and  O9_9 
REMARK    3  A    between atoms: C10_11  and  O11_12 
REMARK    4  A    between atoms: C16_18  and  O17_19 
REMARK    5  A    between atoms: C19_22  and  O20_23 
ROOT
HETATM    1  O1          0      36.621  64.130 -11.072  1.00  0.00    -0.286 OA
HETATM    2  C2          0      35.424  63.880 -10.761  1.00  0.00     0.201 C 
HETATM    3  C3          0      34.837  62.643 -10.971  1.00  0.00     0.067 C 
HETATM    4  C4          0      33.488  62.424 -10.715  1.00  0.00     0.103 C 
HETATM    5  O13         0      32.762  63.421 -10.241  1.00  0.00    -0.307 OA
HETATM    6  C14         0      33.260  64.624 -10.059  1.00  0.00     0.107 C 
HETATM    7  C15         0      32.448  65.743  -9.953  1.00  0.00     0.049 C 
HETATM    8  C16         0      32.976  67.027 -10.017  1.00  0.00     0.093 C 
HETATM    9  C18         0      34.315  67.130  -9.658  1.00  0.00     0.048 C 
HETATM   10  C19         0      35.145  66.019  -9.707  1.00  0.00     0.096 C 
HETATM   11  C21         0      34.638  64.809 -10.096  1.00  0.00     0.084 C 
ENDROOT
BRANCH  10  12
HETATM   12  O20         0      36.523  66.202  -9.777  1.00  0.00    -0.359 OA
HETATM   13  H20         0      37.030  66.067  -8.985  1.00  0.00     0.218 HD
ENDBRANCH  10  12
BRANCH   4  14
HETATM   14  C5          0      32.823  61.371 -11.485  1.00  0.00     0.025 C 
HETATM   15  C6          0      33.519  60.374 -12.153  1.00  0.00     0.004 C 
HETATM   16  C7          0      32.976  59.093 -12.145  1.00  0.00     0.026 C 
HETATM   17  C8          0      31.719  58.837 -11.609  1.00  0.00     0.112 C 
HETATM   18  C10         0      30.875  59.938 -11.558  1.00  0.00     0.112 C 
HETATM   19  C12         0      31.444  61.204 -11.480  1.00  0.00     0.028 C 
BRANCH  17  20
HETATM   20  O9          0      31.444  57.629 -10.992  1.00  0.00    -0.357 OA
HETATM   21  H9          0      31.539  57.480 -10.058  1.00  0.00     0.218 HD
ENDBRANCH  17  20
BRANCH  18  22
HETATM   22  O11         0      29.553  59.701 -11.210  1.00  0.00    -0.357 OA
HETATM   23  H11         0      29.015  60.461 -11.019  1.00  0.00     0.218 HD
ENDBRANCH  18  22
ENDBRANCH   4  14
BRANCH   8  24
HETATM   24  O17         0      32.318  68.053 -10.705  1.00  0.00    -0.359 OA
HETATM   25  H17         0      32.741  68.535 -11.406  1.00  0.00     0.218 HD
ENDBRANCH   8  24
TORSDOF 5
ENDMDL
MODEL 4
REMARK VINA RESULT:      -7.8      2.106      6.945
REMARK  5 active torsions:
REMARK  status: ('A' for Active; 'I' for Inactive)
REMARK    1  A    between atoms: C4_4  and  C5_5 
REMARK    2  A    between atoms: C8_8  and  O9_9 
REMARK    3  A    between atoms: C10_11  and  O11_12 
REMARK    4  A    between atoms: C16_18  and  O17_19 
REMARK    5  A    between atoms: C19_22  and  O20_23 
ROOT
HETATM    1  O1          0      29.220  60.176 -11.119  1.00  0.00    -0.286 OA
HETATM    2  C2          0      29.559  61.376 -11.310  1.00  0.00     0.201 C 
HETATM    3  C3          0      30.881  61.783 -11.370  1.00  0.00     0.067 C 
HETATM    4  C4          0      31.226  63.125 -11.479  1.00  0.00     0.103 C 
HETATM    5  O13         0      30.262  64.025 -11.547  1.00  0.00    -0.307 OA
HETATM    6  C14         0      28.991  63.697 -11.457  1.00  0.00     0.107 C 
HETATM    7  C15         0      28.017  64.628 -11.127  1.00  0.00     0.049 C 
HETATM    8  C16         0      26.729  64.235 -10.785  1.00  0.00     0.093 C 
HETATM    9  C18         0      26.338  63.001 -11.291  1.00  0.00     0.048 C 
HETATM   10  C19         0      27.287  62.063 -11.674  1.00  0.00     0.096 C 
HETATM   11  C21         0      28.618  62.362 -11.569  1.00  0.00     0.084 C 
ENDROOT
BRANCH  10  12
HETATM   12  O20         0      26.924  60.722 -11.757  1.00  0.00    -0.359 OA
HETATM   13  H20         0      26.010  60.500 -11.627  1.00  0.00     0.218 HD
ENDBRANCH  10  12
BRANCH   4  14
HETATM   14  C5          0      32.529  63.527 -10.945  1.00  0.00     0.025 C 
HETATM   15  C6          0      33.366  62.653 -10.267  1.00  0.00     0.004 C 
HETATM   16  C7          0      34.734  62.761 -10.495  1.00  0.00     0.026 C 
HETATM   17  C8          0      35.265  63.789 -11.267  1.00  0.00     0.112 C 
HETATM   18  C10         0      34.464  64.920 -11.357  1.00  0.00     0.112 C 
HETATM   19  C12         0      33.091  64.770 -11.209  1.00  0.00     0.028 C 
BRANCH  17  20
HETATM   20  O9          0      36.396  63.585 -12.038  1.00  0.00    -0.357 OA
HETATM   21  H9          0      36.917  64.288 -12.407  1.00  0.00     0.218 HD
ENDBRANCH  17  20
BRANCH  18  22
HETATM   22  O11         0      35.024  66.040 -11.954  1.00  0.00    -0.357 OA
HETATM   23  H11         0      35.894  66.292 -11.665  1.00  0.00     0.218 HD
ENDBRANCH  18  22
ENDBRANCH   4  14
BRANCH   8  24
HETATM   24  O17         0      26.025  64.862  -9.751  1.00  0.00    -0.359 OA
HETATM   25  H17         0      26.324  64.826  -8.850  1.00  0.00     0.218 HD
ENDBRANCH   8  24
TORSDOF 5
ENDMDL
MODEL 5
REMARK VINA RESULT:      -7.8      5.324      8.062
REMARK  5 active torsions:
REMARK  status: ('A' for Active; 'I' for Inactive)
REMARK    1  A    between atoms: C4_4  and  C5_5 
REMARK    2  A    between atoms: C8_8  and  O9_9 
REMARK    3  A    between atoms: C10_11  and  O11_12 
REMARK    4  A    between atoms: C16_18  and  O17_19 
REMARK    5  A    between atoms: C19_22  and  O20_23 
ROOT
HETATM    1  O1          0      25.952  61.710 -12.412  1.00  0.00    -0.286 OA
HETATM    2  C2          0      25.713  62.390 -11.377  1.00  0.00     0.201 C 
HETATM    3  C3          0      24.496  62.350 -10.718  1.00  0.00     0.067 C 
HETATM    4  C4          0      24.223  63.185  -9.640  1.00  0.00     0.103 C 
HETATM    5  O13         0      25.162  64.019  -9.230  1.00  0.00    -0.307 OA
HETATM    6  C14         0      26.321  64.124  -9.843  1.00  0.00     0.107 C 
HETATM    7  C15         0      27.133  65.238  -9.687  1.00  0.00     0.049 C 
HETATM    8  C16         0      28.221  65.460 -10.521  1.00  0.00     0.093 C 
HETATM    9  C18         0      28.749  64.320 -11.115  1.00  0.00     0.048 C 
HETATM   10  C19         0      27.979  63.172 -11.246  1.00  0.00     0.096 C 
HETATM   11  C21         0      26.695  63.158 -10.771  1.00  0.00     0.084 C 
ENDROOT
BRANCH  10  12
HETATM   12  O20         0      28.334  62.219 -12.196  1.00  0.00    -0.359 OA
HETATM   13  H20         0      29.237  62.198 -12.489  1.00  0.00     0.218 HD
ENDBRANCH  10  12
BRANCH   4  14
HETATM   14  C5          0      22.821  63.528  -9.397  1.00  0.00     0.025 C 
HETATM   15  C6          0      22.391  64.158  -8.238  1.00  0.00     0.004 C 
HETATM   16  C7          0      21.389  65.115  -8.358  1.00  0.00     0.026 C 
HETATM   17  C8          0      20.741  65.345  -9.567  1.00  0.00     0.112 C 
HETATM   18  C10         0      20.780  64.280 -10.457  1.00  0.00     0.112 C 
HETATM   19  C12         0      21.839  63.384 -10.369  1.00  0.00     0.028 C 
BRANCH  17  20
HETATM   20  O9          0      20.293  66.610  -9.903  1.00  0.00    -0.357 OA
HETATM   21  H9          0      19.942  66.837 -10.756  1.00  0.00     0.218 HD
ENDBRANCH  17  20
BRANCH  18  22
HETATM   22  O11         0      19.994  64.383 -11.596  1.00  0.00    -0.357 OA
HETATM   23  H11         0      19.923  65.243 -11.993  1.00  0.00     0.218 HD
ENDBRANCH  18  22
ENDBRANCH   4  14
BRANCH   8  24
HETATM   24  O17         0      28.535  66.743 -10.985  1.00  0.00    -0.359 OA
HETATM   25  H17         0      28.401  66.992 -11.892  1.00  0.00     0.218 HD
ENDBRANCH   8  24
TORSDOF 5
ENDMDL
MODEL 6
REMARK VINA RESULT:      -7.8      2.139      2.615
REMARK  5 active torsions:
REMARK  status: ('A' for Active; 'I' for Inactive)
REMARK    1  A    between atoms: C4_4  and  C5_5 
REMARK    2  A    between atoms: C8_8  and  O9_9 
REMARK    3  A    between atoms: C10_11  and  O11_12 
REMARK    4  A    between atoms: C16_18  and  O17_19 
REMARK    5  A    between atoms: C19_22  and  O20_23 
ROOT
HETATM    1  O1          0      32.832  60.940 -13.427  1.00  0.00    -0.286 OA
HETATM    2  C2          0      32.691  61.669 -12.407  1.00  0.00     0.201 C 
HETATM    3  C3          0      31.470  62.201 -12.028  1.00  0.00     0.067 C 
HETATM    4  C4          0      31.360  63.083 -10.960  1.00  0.00     0.103 C 
HETATM    5  O13         0      32.451  63.400 -10.284  1.00  0.00    -0.307 OA
HETATM    6  C14         0      33.639  62.953 -10.624  1.00  0.00     0.107 C 
HETATM    7  C15         0      34.804  63.573 -10.195  1.00  0.00     0.049 C 
HETATM    8  C16         0      36.037  63.260 -10.756  1.00  0.00     0.093 C 
HETATM    9  C18         0      36.117  61.996 -11.328  1.00  0.00     0.048 C 
HETATM   10  C19         0      34.968  61.328 -11.726  1.00  0.00     0.096 C 
HETATM   11  C21         0      33.744  61.910 -11.538  1.00  0.00     0.084 C 
ENDROOT
BRANCH  10  12
HETATM   12  O20         0      35.066  60.304 -12.664  1.00  0.00    -0.359 OA
HETATM   13  H20         0      34.415  60.269 -13.354  1.00  0.00     0.218 HD
ENDBRANCH  10  12
BRANCH   4  14
HETATM   14  C5          0      30.247  64.034 -10.988  1.00  0.00     0.025 C 
HETATM   15  C6          0      29.085  63.810 -11.712  1.00  0.00     0.004 C 
HETATM   16  C7          0      27.882  64.210 -11.140  1.00  0.00     0.026 C 
HETATM   17  C8          0      27.844  64.929  -9.951  1.00  0.00     0.112 C 
HETATM   18  C10         0      29.006  65.630  -9.659  1.00  0.00     0.112 C 
HETATM   19  C12         0      30.208  65.159 -10.174  1.00  0.00     0.028 C 
BRANCH  17  20
HETATM   20  O9          0      26.801  64.765  -9.056  1.00  0.00    -0.357 OA
HETATM   21  H9          0      26.921  64.537  -8.142  1.00  0.00     0.218 HD
ENDBRANCH  17  20
BRANCH  18  22
HETATM   22  O11         0      28.958  66.510  -8.588  1.00  0.00    -0.357 OA
HETATM   23  H11         0      28.157  66.520  -8.075  1.00  0.00     0.218 HD
ENDBRANCH  18  22
ENDBRANCH   4  14
BRANCH   8  24
HETATM   24  O17         0      36.990  64.250 -11.020  1.00  0.00    -0.359 OA
HETATM   25  H17         0      37.398  64.748 -10.322  1.00  0.00     0.218 HD
ENDBRANCH   8  24
TORSDOF 5
ENDMDL
MODEL 7
REMARK VINA RESULT:      -7.7      2.090      6.491
REMARK  5 active torsions:
REMARK  status: ('A' for Active; 'I' for Inactive)
REMARK    1  A    between atoms: C4_4  and  C5_5 
REMARK    2  A    between atoms: C8_8  and  O9_9 
REMARK    3  A    between atoms: C10_11  and  O11_12 
REMARK    4  A    between atoms: C16_18  and  O17_19 
REMARK    5  A    between atoms: C19_22  and  O20_23 
ROOT
HETATM    1  O1          0      27.584  61.672 -10.756  1.00  0.00    -0.286 OA
HETATM    2  C2          0      28.697  62.194 -11.041  1.00  0.00     0.201 C 
HETATM    3  C3          0      29.789  61.453 -11.459  1.00  0.00     0.067 C 
HETATM    4  C4          0      31.031  62.040 -11.669  1.00  0.00     0.103 C 
HETATM    5  O13         0      31.158  63.342 -11.480  1.00  0.00    -0.307 OA
HETATM    6  C14         0      30.163  64.085 -11.048  1.00  0.00     0.107 C 
HETATM    7  C15         0      30.377  65.331 -10.475  1.00  0.00     0.049 C 
HETATM    8  C16         0      29.364  65.996  -9.794  1.00  0.00     0.093 C 
HETATM    9  C18         0      28.074  65.638 -10.166  1.00  0.00     0.048 C 
HETATM   10  C19         0      27.831  64.418 -10.784  1.00  0.00     0.096 C 
HETATM   11  C21         0      28.872  63.570 -11.044  1.00  0.00     0.084 C 
ENDROOT
BRANCH  10  12
HETATM   12  O20         0      26.546  63.885 -10.754  1.00  0.00    -0.359 OA
HETATM   13  H20         0      25.843  64.436 -10.432  1.00  0.00     0.218 HD
ENDBRANCH  10  12
BRANCH   4  14
HETATM   14  C5          0      32.211  61.187 -11.510  1.00  0.00     0.025 C 
HETATM   15  C6          0      32.199  59.828 -11.791  1.00  0.00     0.004 C 
HETATM   16  C7          0      33.331  59.285 -12.390  1.00  0.00     0.026 C 
HETATM   17  C8          0      34.487  60.035 -12.581  1.00  0.00     0.112 C 
HETATM   18  C10         0      34.619  61.123 -11.728  1.00  0.00     0.112 C 
HETATM   19  C12         0      33.466  61.700 -11.211  1.00  0.00     0.028 C 
BRANCH  17  20
HETATM   20  O9          0      35.304  59.812 -13.675  1.00  0.00    -0.357 OA
HETATM   21  H9          0      35.547  60.487 -14.298  1.00  0.00     0.218 HD
ENDBRANCH  17  20
BRANCH  18  22
HETATM   22  O11         0      35.835  61.791 -11.747  1.00  0.00    -0.357 OA
HETATM   23  H11         0      35.837  62.672 -12.103  1.00  0.00     0.218 HD
ENDBRANCH  18  22
ENDBRANCH   4  14
BRANCH   8  24
HETATM   24  O17         0      29.621  66.702  -8.614  1.00  0.00    -0.359 OA
HETATM   25  H17         0      29.234  66.445  -7.785  1.00  0.00     0.218 HD
ENDBRANCH   8  24
TORSDOF 5
ENDMDL
MODEL 8
REMARK VINA RESULT:      -7.6      2.973      7.282
REMARK  5 active torsions:
REMARK  status: ('A' for Active; 'I' for Inactive)
REMARK    1  A    between atoms: C4_4  and  C5_5 
REMARK    2  A    between atoms: C8_8  and  O9_9 
REMARK    3  A    between atoms: C10_11  and  O11_12 
REMARK    4  A    between atoms: C16_18  and  O17_19 
REMARK    5  A    between atoms: C19_22  and  O20_23 
ROOT
HETATM    1  O1          0      28.728  60.580 -11.320  1.00  0.00    -0.286 OA
HETATM    2  C2          0      28.740  61.838 -11.409  1.00  0.00     0.201 C 
HETATM    3  C3          0      29.909  62.573 -11.508  1.00  0.00     0.067 C 
HETATM    4  C4          0      29.899  63.963 -11.501  1.00  0.00     0.103 C 
HETATM    5  O13         0      28.738  64.589 -11.418  1.00  0.00    -0.307 OA
HETATM    6  C14         0      27.602  63.940 -11.285  1.00  0.00     0.107 C 
HETATM    7  C15         0      26.458  64.560 -10.804  1.00  0.00     0.049 C 
HETATM    8  C16         0      25.342  63.823 -10.426  1.00  0.00     0.093 C 
HETATM    9  C18         0      25.230  62.577 -11.030  1.00  0.00     0.048 C 
HETATM   10  C19         0      26.347  61.948 -11.563  1.00  0.00     0.096 C 
HETATM   11  C21         0      27.565  62.568 -11.509  1.00  0.00     0.084 C 
ENDROOT
BRANCH  10  12
HETATM   12  O20         0      26.323  60.571 -11.759  1.00  0.00    -0.359 OA
HETATM   13  H20         0      26.972  60.046 -11.305  1.00  0.00     0.218 HD
ENDBRANCH  10  12
BRANCH   4  14
HETATM   14  C5          0      31.101  64.639 -11.009  1.00  0.00     0.025 C 
HETATM   15  C6          0      31.067  65.887 -10.404  1.00  0.00     0.004 C 
HETATM   16  C7          0      31.922  66.105  -9.328  1.00  0.00     0.026 C 
HETATM   17  C8          0      32.874  65.164  -8.951  1.00  0.00     0.112 C 
HETATM   18  C10         0      33.250  64.284  -9.957  1.00  0.00     0.112 C 
HETATM   19  C12         0      32.343  64.019 -10.976  1.00  0.00     0.028 C 
BRANCH  17  20
HETATM   20  O9          0      33.232  65.011  -7.623  1.00  0.00    -0.357 OA
HETATM   21  H9          0      32.956  64.279  -7.083  1.00  0.00     0.218 HD
ENDBRANCH  17  20
BRANCH  18  22
HETATM   22  O11         0      34.328  63.451  -9.693  1.00  0.00    -0.357 OA
HETATM   23  H11         0      34.955  63.322 -10.395  1.00  0.00     0.218 HD
ENDBRANCH  18  22
ENDBRANCH   4  14
BRANCH   8  24
HETATM   24  O17         0      24.594  64.162  -9.292  1.00  0.00    -0.359 OA
HETATM   25  H17         0      23.828  64.721  -9.349  1.00  0.00     0.218 HD
ENDBRANCH   8  24
TORSDOF 5
ENDMDL
MODEL 9
REMARK VINA RESULT:      -7.5      5.207     10.265
REMARK  5 active torsions:
REMARK  status: ('A' for Active; 'I' for Inactive)
REMARK    1  A    between atoms: C4_4  and  C5_5 
REMARK    2  A    between atoms: C8_8  and  O9_9 
REMARK    3  A    between atoms: C10_11  and  O11_12 
REMARK    4  A    between atoms: C16_18  and  O17_19 
REMARK    5  A    between atoms: C19_22  and  O20_23 
ROOT
HETATM    1  O1          0      24.320  64.765  -7.075  1.00  0.00    -0.286 OA
HETATM    2  C2          0      24.193  64.044  -8.102  1.00  0.00     0.201 C 
HETATM    3  C3          0      25.253  63.364  -8.678  1.00  0.00     0.067 C 
HETATM    4  C4          0      25.106  62.659  -9.867  1.00  0.00     0.103 C 
HETATM    5  O13         0      23.918  62.627 -10.444  1.00  0.00    -0.307 OA
HETATM    6  C14         0      22.888  63.286  -9.960  1.00  0.00     0.107 C 
HETATM    7  C15         0      21.780  63.587 -10.739  1.00  0.00     0.049 C 
HETATM    8  C16         0      20.818  64.492 -10.308  1.00  0.00     0.093 C 
HETATM    9  C18         0      20.734  64.645  -8.929  1.00  0.00     0.048 C 
HETATM   10  C19         0      21.807  64.310  -8.115  1.00  0.00     0.096 C 
HETATM   11  C21         0      22.951  63.808  -8.672  1.00  0.00     0.084 C 
ENDROOT
BRANCH  10  12
HETATM   12  O20         0      21.889  64.856  -6.838  1.00  0.00    -0.359 OA
HETATM   13  H20         0      22.243  64.314  -6.143  1.00  0.00     0.218 HD
ENDBRANCH  10  12
BRANCH   4  14
HETATM   14  C5          0      26.299  62.498 -10.701  1.00  0.00     0.025 C 
HETATM   15  C6          0      27.542  62.998 -10.341  1.00  0.00     0.004 C 
HETATM   16  C7          0      28.659  62.223 -10.637  1.00  0.00     0.026 C 
HETATM   17  C8          0      28.559  61.055 -11.384  1.00  0.00     0.112 C 
HETATM   18  C10         0      27.441  60.986 -12.205  1.00  0.00     0.112 C 
HETATM   19  C12         0      26.309  61.704 -11.841  1.00  0.00     0.028 C 
BRANCH  17  20
HETATM   20  O9          0      29.403  59.985 -11.144  1.00  0.00    -0.357 OA
HETATM   21  H9          0      29.596  59.311 -11.785  1.00  0.00     0.218 HD
ENDBRANCH  17  20
BRANCH  18  22
HETATM   22  O11         0      27.389  59.934 -13.109  1.00  0.00    -0.357 OA
HETATM   23  H11         0      26.552  59.767 -13.527  1.00  0.00     0.218 HD
ENDBRANCH  18  22
ENDBRANCH   4  14
BRANCH   8  24
HETATM   24  O17         0      20.233  65.409 -11.187  1.00  0.00    -0.359 OA
HETATM   25  H17         0      19.324  65.672 -11.102  1.00  0.00     0.218 HD
ENDBRANCH   8  24
TORSDOF 5
ENDMDL
