MODEL 1
REMARK VINA RESULT:      -4.6      0.000      0.000
REMARK  5 active torsions:
REMARK  status: ('A' for Active; 'I' for Inactive)
REMARK    1  A    between atoms: C4_4  and  C5_5 
REMARK    2  A    between atoms: C8_8  and  O9_9 
REMARK    3  A    between atoms: C10_11  and  O11_12 
REMARK    4  A    between atoms: C16_18  and  O17_19 
REMARK    5  A    between atoms: C19_22  and  O20_23 
ROOT
HETATM    1  O1          0      50.681  79.875 -13.206  1.00  0.00    -0.286 OA
HETATM    2  C2          0      50.874  80.758 -14.087  1.00  0.00     0.201 C 
HETATM    3  C3          0      51.033  80.457 -15.429  1.00  0.00     0.067 C 
HETATM    4  C4          0      51.346  81.438 -16.363  1.00  0.00     0.103 C 
HETATM    5  O13         0      51.472  82.688 -15.953  1.00  0.00    -0.307 OA
HETATM    6  C14         0      51.367  83.022 -14.686  1.00  0.00     0.107 C 
HETATM    7  C15         0      51.880  84.216 -14.200  1.00  0.00     0.049 C 
HETATM    8  C16         0      51.997  84.449 -12.835  1.00  0.00     0.093 C 
HETATM    9  C18         0      51.125  83.716 -12.038  1.00  0.00     0.048 C 
HETATM   10  C19         0      50.557  82.541 -12.510  1.00  0.00     0.096 C 
HETATM   11  C21         0      50.844  82.109 -13.777  1.00  0.00     0.084 C 
ENDROOT
BRANCH  10  12
HETATM   12  O20         0      50.061  81.612 -11.601  1.00  0.00    -0.359 OA
HETATM   13  H20         0      50.636  81.320 -10.904  1.00  0.00     0.218 HD
ENDBRANCH  10  12
BRANCH   4  14
HETATM   14  C5          0      52.068  81.013 -17.563  1.00  0.00     0.025 C 
HETATM   15  C6          0      51.738  81.456 -18.836  1.00  0.00     0.004 C 
HETATM   16  C7          0      52.781  81.716 -19.719  1.00  0.00     0.026 C 
HETATM   17  C8          0      54.101  81.419 -19.396  1.00  0.00     0.112 C 
HETATM   18  C10         0      54.254  80.437 -18.427  1.00  0.00     0.112 C 
HETATM   19  C12         0      53.231  80.256 -17.503  1.00  0.00     0.028 C 
BRANCH  17  20
HETATM   20  O9          0      55.140  82.204 -19.865  1.00  0.00    -0.357 OA
HETATM   21  H9          0      55.019  82.948 -20.444  1.00  0.00     0.218 HD
ENDBRANCH  17  20
BRANCH  18  22
HETATM   22  O11         0      55.541  79.969 -18.203  1.00  0.00    -0.357 OA
HETATM   23  H11         0      56.170  80.590 -17.853  1.00  0.00     0.218 HD
ENDBRANCH  18  22
ENDBRANCH   4  14
BRANCH   8  24
HETATM   24  O17         0      53.113  85.100 -12.298  1.00  0.00    -0.359 OA
HETATM   25  H17         0      53.956  85.087 -12.736  1.00  0.00     0.218 HD
ENDBRANCH   8  24
TORSDOF 5
ENDMDL
MODEL 2
REMARK VINA RESULT:      -4.2      2.426      6.345
REMARK  5 active torsions:
REMARK  status: ('A' for Active; 'I' for Inactive)
REMARK    1  A    between atoms: C4_4  and  C5_5 
REMARK    2  A    between atoms: C8_8  and  O9_9 
REMARK    3  A    between atoms: C10_11  and  O11_12 
REMARK    4  A    between atoms: C16_18  and  O17_19 
REMARK    5  A    between atoms: C19_22  and  O20_23 
ROOT
HETATM    1  O1          0      53.751  81.747 -19.750  1.00  0.00    -0.286 OA
HETATM    2  C2          0      53.897  81.759 -18.497  1.00  0.00     0.201 C 
HETATM    3  C3          0      52.902  81.357 -17.622  1.00  0.00     0.067 C 
HETATM    4  C4          0      53.052  81.477 -16.245  1.00  0.00     0.103 C 
HETATM    5  O13         0      54.182  81.968 -15.769  1.00  0.00    -0.307 OA
HETATM    6  C14         0      55.143  82.399 -16.557  1.00  0.00     0.107 C 
HETATM    7  C15         0      56.130  83.261 -16.101  1.00  0.00     0.049 C 
HETATM    8  C16         0      56.985  83.911 -16.984  1.00  0.00     0.093 C 
HETATM    9  C18         0      57.157  83.276 -18.208  1.00  0.00     0.048 C 
HETATM   10  C19         0      56.211  82.372 -18.673  1.00  0.00     0.096 C 
HETATM   11  C21         0      55.110  82.090 -17.912  1.00  0.00     0.084 C 
ENDROOT
BRANCH  10  12
HETATM   12  O20         0      56.155  82.085 -20.034  1.00  0.00    -0.359 OA
HETATM   13  H20         0      55.780  82.739 -20.611  1.00  0.00     0.218 HD
ENDBRANCH  10  12
BRANCH   4  14
HETATM   14  C5          0      51.831  81.619 -15.448  1.00  0.00     0.025 C 
HETATM   15  C6          0      51.317  80.591 -14.671  1.00  0.00     0.004 C 
HETATM   16  C7          0      50.764  80.930 -13.440  1.00  0.00     0.026 C 
HETATM   17  C8          0      50.603  82.255 -13.052  1.00  0.00     0.112 C 
HETATM   18  C10         0      50.547  83.164 -14.101  1.00  0.00     0.112 C 
HETATM   19  C12         0      51.182  82.836 -15.293  1.00  0.00     0.028 C 
BRANCH  17  20
HETATM   20  O9          0      50.711  82.623 -11.722  1.00  0.00    -0.357 OA
HETATM   21  H9          0      50.250  83.360 -11.339  1.00  0.00     0.218 HD
ENDBRANCH  17  20
BRANCH  18  22
HETATM   22  O11         0      50.200  84.469 -13.783  1.00  0.00    -0.357 OA
HETATM   23  H11         0      50.896  85.116 -13.802  1.00  0.00     0.218 HD
ENDBRANCH  18  22
ENDBRANCH   4  14
BRANCH   8  24
HETATM   24  O17         0      57.361  85.244 -16.787  1.00  0.00    -0.359 OA
HETATM   25  H17         0      57.635  85.565 -15.937  1.00  0.00     0.218 HD
ENDBRANCH   8  24
TORSDOF 5
ENDMDL
MODEL 3
REMARK VINA RESULT:      -4.2      5.623      8.792
REMARK  5 active torsions:
REMARK  status: ('A' for Active; 'I' for Inactive)
REMARK    1  A    between atoms: C4_4  and  C5_5 
REMARK    2  A    between atoms: C8_8  and  O9_9 
REMARK    3  A    between atoms: C10_11  and  O11_12 
REMARK    4  A    between atoms: C16_18  and  O17_19 
REMARK    5  A    between atoms: C19_22  and  O20_23 
ROOT
HETATM    1  O1          0      54.364  84.466 -15.105  1.00  0.00    -0.286 OA
HETATM    2  C2          0      55.351  85.233 -15.271  1.00  0.00     0.201 C 
HETATM    3  C3          0      55.547  86.377 -14.516  1.00  0.00     0.067 C 
HETATM    4  C4          0      56.587  87.259 -14.787  1.00  0.00     0.103 C 
HETATM    5  O13         0      57.415  86.979 -15.779  1.00  0.00    -0.307 OA
HETATM    6  C14         0      57.252  85.926 -16.549  1.00  0.00     0.107 C 
HETATM    7  C15         0      57.846  85.837 -17.800  1.00  0.00     0.049 C 
HETATM    8  C16         0      57.472  84.853 -18.708  1.00  0.00     0.093 C 
HETATM    9  C18         0      56.919  83.711 -18.141  1.00  0.00     0.048 C 
HETATM   10  C19         0      56.358  83.754 -16.872  1.00  0.00     0.096 C 
HETATM   11  C21         0      56.365  84.926 -16.166  1.00  0.00     0.084 C 
ENDROOT
BRANCH  10  12
HETATM   12  O20         0      55.446  82.772 -16.498  1.00  0.00    -0.359 OA
HETATM   13  H20         0      55.766  82.038 -15.988  1.00  0.00     0.218 HD
ENDBRANCH  10  12
BRANCH   4  14
HETATM   14  C5          0      56.396  88.659 -14.403  1.00  0.00     0.025 C 
HETATM   15  C6          0      57.022  89.710 -15.057  1.00  0.00     0.004 C 
HETATM   16  C7          0      56.291  90.879 -15.245  1.00  0.00     0.026 C 
HETATM   17  C8          0      55.029  91.048 -14.686  1.00  0.00     0.112 C 
HETATM   18  C10         0      54.775  90.254 -13.576  1.00  0.00     0.112 C 
HETATM   19  C12         0      55.458  89.049 -13.456  1.00  0.00     0.028 C 
BRANCH  17  20
HETATM   20  O9          0      54.061  91.793 -15.335  1.00  0.00    -0.357 OA
HETATM   21  H9          0      53.129  91.709 -15.168  1.00  0.00     0.218 HD
ENDBRANCH  17  20
BRANCH  18  22
HETATM   22  O11         0      53.610  90.515 -12.869  1.00  0.00    -0.357 OA
HETATM   23  H11         0      53.169  91.336 -13.055  1.00  0.00     0.218 HD
ENDBRANCH  18  22
ENDBRANCH   4  14
BRANCH   8  24
HETATM   24  O17         0      57.348  85.131 -20.074  1.00  0.00    -0.359 OA
HETATM   25  H17         0      57.727  85.911 -20.461  1.00  0.00     0.218 HD
ENDBRANCH   8  24
TORSDOF 5
ENDMDL
MODEL 4
REMARK VINA RESULT:      -4.1      4.802      7.580
REMARK  5 active torsions:
REMARK  status: ('A' for Active; 'I' for Inactive)
REMARK    1  A    between atoms: C4_4  and  C5_5 
REMARK    2  A    between atoms: C8_8  and  O9_9 
REMARK    3  A    between atoms: C10_11  and  O11_12 
REMARK    4  A    between atoms: C16_18  and  O17_19 
REMARK    5  A    between atoms: C19_22  and  O20_23 
ROOT
HETATM    1  O1          0      57.162  86.305 -16.844  1.00  0.00    -0.286 OA
HETATM    2  C2          0      56.480  86.529 -15.807  1.00  0.00     0.201 C 
HETATM    3  C3          0      55.856  85.524 -15.087  1.00  0.00     0.067 C 
HETATM    4  C4          0      55.027  85.807 -14.008  1.00  0.00     0.103 C 
HETATM    5  O13         0      54.852  87.069 -13.656  1.00  0.00    -0.307 OA
HETATM    6  C14         0      55.391  88.063 -14.327  1.00  0.00     0.107 C 
HETATM    7  C15         0      54.908  89.360 -14.225  1.00  0.00     0.049 C 
HETATM    8  C16         0      55.306  90.349 -15.116  1.00  0.00     0.093 C 
HETATM    9  C18         0      56.538  90.134 -15.721  1.00  0.00     0.048 C 
HETATM   10  C19         0      57.072  88.855 -15.799  1.00  0.00     0.096 C 
HETATM   11  C21         0      56.388  87.800 -15.261  1.00  0.00     0.084 C 
ENDROOT
BRANCH  10  12
HETATM   12  O20         0      58.047  88.582 -16.753  1.00  0.00    -0.359 OA
HETATM   13  H20         0      58.043  87.724 -17.161  1.00  0.00     0.218 HD
ENDBRANCH  10  12
BRANCH   4  14
HETATM   14  C5          0      53.975  84.837 -13.699  1.00  0.00     0.025 C 
HETATM   15  C6          0      53.393  84.733 -12.444  1.00  0.00     0.004 C 
HETATM   16  C7          0      52.027  84.477 -12.387  1.00  0.00     0.026 C 
HETATM   17  C8          0      51.288  84.199 -13.532  1.00  0.00     0.112 C 
HETATM   18  C10         0      52.032  83.709 -14.597  1.00  0.00     0.112 C 
HETATM   19  C12         0      53.377  84.051 -14.676  1.00  0.00     0.028 C 
BRANCH  17  20
HETATM   20  O9          0      49.965  84.591 -13.634  1.00  0.00    -0.357 OA
HETATM   21  H9          0      49.400  84.745 -12.885  1.00  0.00     0.218 HD
ENDBRANCH  17  20
BRANCH  18  22
HETATM   22  O11         0      51.324  83.239 -15.694  1.00  0.00    -0.357 OA
HETATM   23  H11         0      50.722  83.846 -16.109  1.00  0.00     0.218 HD
ENDBRANCH  18  22
ENDBRANCH   4  14
BRANCH   8  24
HETATM   24  O17         0      54.398  91.292 -15.611  1.00  0.00    -0.359 OA
HETATM   25  H17         0      54.134  91.301 -16.523  1.00  0.00     0.218 HD
ENDBRANCH   8  24
TORSDOF 5
ENDMDL
MODEL 5
REMARK VINA RESULT:      -4.1      3.266      7.020
REMARK  5 active torsions:
REMARK  status: ('A' for Active; 'I' for Inactive)
REMARK    1  A    between atoms: C4_4  and  C5_5 
REMARK    2  A    between atoms: C8_8  and  O9_9 
REMARK    3  A    between atoms: C10_11  and  O11_12 
REMARK    4  A    between atoms: C16_18  and  O17_19 
REMARK    5  A    between atoms: C19_22  and  O20_23 
ROOT
HETATM    1  O1          0      56.051  81.011 -19.048  1.00  0.00    -0.286 OA
HETATM    2  C2          0      56.049  81.861 -18.115  1.00  0.00     0.201 C 
HETATM    3  C3          0      55.357  81.673 -16.931  1.00  0.00     0.067 C 
HETATM    4  C4          0      55.286  82.668 -15.963  1.00  0.00     0.103 C 
HETATM    5  O13         0      55.916  83.810 -16.179  1.00  0.00    -0.307 OA
HETATM    6  C14         0      56.556  84.053 -17.302  1.00  0.00     0.107 C 
HETATM    7  C15         0      56.866  85.346 -17.701  1.00  0.00     0.049 C 
HETATM    8  C16         0      57.307  85.616 -18.990  1.00  0.00     0.093 C 
HETATM    9  C18         0      57.912  84.547 -19.640  1.00  0.00     0.048 C 
HETATM   10  C19         0      57.660  83.243 -19.236  1.00  0.00     0.096 C 
HETATM   11  C21         0      56.824  83.008 -18.179  1.00  0.00     0.084 C 
ENDROOT
BRANCH  10  12
HETATM   12  O20         0      57.898  82.198 -20.124  1.00  0.00    -0.359 OA
HETATM   13  H20         0      57.176  81.618 -20.332  1.00  0.00     0.218 HD
ENDBRANCH  10  12
BRANCH   4  14
HETATM   14  C5          0      54.117  82.664 -15.082  1.00  0.00     0.025 C 
HETATM   15  C6          0      54.145  83.177 -13.793  1.00  0.00     0.004 C 
HETATM   16  C7          0      53.020  83.865 -13.349  1.00  0.00     0.026 C 
HETATM   17  C8          0      51.856  83.927 -14.107  1.00  0.00     0.112 C 
HETATM   18  C10         0      51.710  82.899 -15.029  1.00  0.00     0.112 C 
HETATM   19  C12         0      52.855  82.285 -15.521  1.00  0.00     0.028 C 
BRANCH  17  20
HETATM   20  O9          0      51.044  85.046 -14.068  1.00  0.00    -0.357 OA
HETATM   21  H9          0      51.223  85.810 -13.533  1.00  0.00     0.218 HD
ENDBRANCH  17  20
BRANCH  18  22
HETATM   22  O11         0      50.486  82.805 -15.676  1.00  0.00    -0.357 OA
HETATM   23  H11         0      49.707  82.886 -15.137  1.00  0.00     0.218 HD
ENDBRANCH  18  22
ENDBRANCH   4  14
BRANCH   8  24
HETATM   24  O17         0      56.876  86.751 -19.686  1.00  0.00    -0.359 OA
HETATM   25  H17         0      57.472  87.271 -20.212  1.00  0.00     0.218 HD
ENDBRANCH   8  24
TORSDOF 5
ENDMDL
MODEL 6
REMARK VINA RESULT:      -4.1      1.653      2.929
REMARK  5 active torsions:
REMARK  status: ('A' for Active; 'I' for Inactive)
REMARK    1  A    between atoms: C4_4  and  C5_5 
REMARK    2  A    between atoms: C8_8  and  O9_9 
REMARK    3  A    between atoms: C10_11  and  O11_12 
REMARK    4  A    between atoms: C16_18  and  O17_19 
REMARK    5  A    between atoms: C19_22  and  O20_23 
ROOT
HETATM    1  O1          0      51.636  85.133 -14.026  1.00  0.00    -0.286 OA
HETATM    2  C2          0      52.170  83.994 -13.925  1.00  0.00     0.201 C 
HETATM    3  C3          0      52.877  83.402 -14.957  1.00  0.00     0.067 C 
HETATM    4  C4          0      53.367  82.105 -14.855  1.00  0.00     0.103 C 
HETATM    5  O13         0      53.165  81.437 -13.733  1.00  0.00    -0.307 OA
HETATM    6  C14         0      52.469  81.938 -12.737  1.00  0.00     0.107 C 
HETATM    7  C15         0      51.919  81.131 -11.751  1.00  0.00     0.049 C 
HETATM    8  C16         0      50.981  81.627 -10.853  1.00  0.00     0.093 C 
HETATM    9  C18         0      51.031  83.000 -10.649  1.00  0.00     0.048 C 
HETATM   10  C19         0      51.616  83.833 -11.594  1.00  0.00     0.096 C 
HETATM   11  C21         0      52.162  83.295 -12.728  1.00  0.00     0.084 C 
ENDROOT
BRANCH  10  12
HETATM   12  O20         0      51.287  85.184 -11.607  1.00  0.00    -0.359 OA
HETATM   13  H20         0      51.666  85.741 -10.937  1.00  0.00     0.218 HD
ENDBRANCH  10  12
BRANCH   4  14
HETATM   14  C5          0      53.542  81.355 -16.100  1.00  0.00     0.025 C 
HETATM   15  C6          0      52.487  81.044 -16.945  1.00  0.00     0.004 C 
HETATM   16  C7          0      52.721  81.102 -18.316  1.00  0.00     0.026 C 
HETATM   17  C8          0      53.992  81.330 -18.830  1.00  0.00     0.112 C 
HETATM   18  C10         0      55.033  80.998 -17.973  1.00  0.00     0.112 C 
HETATM   19  C12         0      54.796  81.031 -16.604  1.00  0.00     0.028 C 
BRANCH  17  20
HETATM   20  O9          0      54.164  82.027 -20.013  1.00  0.00    -0.357 OA
HETATM   21  H9          0      53.991  81.661 -20.872  1.00  0.00     0.218 HD
ENDBRANCH  17  20
BRANCH  18  22
HETATM   22  O11         0      56.316  81.026 -18.500  1.00  0.00    -0.357 OA
HETATM   23  H11         0      56.906  81.688 -18.160  1.00  0.00     0.218 HD
ENDBRANCH  18  22
ENDBRANCH   4  14
BRANCH   8  24
HETATM   24  O17         0      49.875  80.865 -10.459  1.00  0.00    -0.359 OA
HETATM   25  H17         0      49.907  80.294  -9.701  1.00  0.00     0.218 HD
ENDBRANCH   8  24
TORSDOF 5
ENDMDL
MODEL 7
REMARK VINA RESULT:      -4.0      1.972      2.564
REMARK  5 active torsions:
REMARK  status: ('A' for Active; 'I' for Inactive)
REMARK    1  A    between atoms: C4_4  and  C5_5 
REMARK    2  A    between atoms: C8_8  and  O9_9 
REMARK    3  A    between atoms: C10_11  and  O11_12 
REMARK    4  A    between atoms: C16_18  and  O17_19 
REMARK    5  A    between atoms: C19_22  and  O20_23 
ROOT
HETATM    1  O1          0      55.176  82.536 -12.832  1.00  0.00    -0.286 OA
HETATM    2  C2          0      54.136  82.090 -13.389  1.00  0.00     0.201 C 
HETATM    3  C3          0      54.173  81.309 -14.531  1.00  0.00     0.067 C 
HETATM    4  C4          0      53.010  80.916 -15.184  1.00  0.00     0.103 C 
HETATM    5  O13         0      51.845  81.286 -14.682  1.00  0.00    -0.307 OA
HETATM    6  C14         0      51.754  82.059 -13.622  1.00  0.00     0.107 C 
HETATM    7  C15         0      50.598  82.768 -13.330  1.00  0.00     0.049 C 
HETATM    8  C16         0      50.588  83.769 -12.367  1.00  0.00     0.093 C 
HETATM    9  C18         0      51.572  83.655 -11.392  1.00  0.00     0.048 C 
HETATM   10  C19         0      52.722  82.915 -11.633  1.00  0.00     0.096 C 
HETATM   11  C21         0      52.880  82.278 -12.834  1.00  0.00     0.084 C 
ENDROOT
BRANCH  10  12
HETATM   12  O20         0      53.858  83.155 -10.868  1.00  0.00    -0.359 OA
HETATM   13  H20         0      53.781  83.748 -10.130  1.00  0.00     0.218 HD
ENDBRANCH  10  12
BRANCH   4  14
HETATM   14  C5          0      53.105  80.647 -16.620  1.00  0.00     0.025 C 
HETATM   15  C6          0      52.069  80.084 -17.350  1.00  0.00     0.004 C 
HETATM   16  C7          0      51.856  80.560 -18.639  1.00  0.00     0.026 C 
HETATM   17  C8          0      52.724  81.469 -19.234  1.00  0.00     0.112 C 
HETATM   18  C10         0      54.008  81.474 -18.706  1.00  0.00     0.112 C 
HETATM   19  C12         0      54.182  81.074 -17.387  1.00  0.00     0.028 C 
BRANCH  17  20
HETATM   20  O9          0      52.256  82.418 -20.125  1.00  0.00    -0.357 OA
HETATM   21  H9          0      51.817  83.219 -19.861  1.00  0.00     0.218 HD
ENDBRANCH  17  20
BRANCH  18  22
HETATM   22  O11         0      54.962  82.221 -19.382  1.00  0.00    -0.357 OA
HETATM   23  H11         0      55.858  82.160 -19.069  1.00  0.00     0.218 HD
ENDBRANCH  18  22
ENDBRANCH   4  14
BRANCH   8  24
HETATM   24  O17         0      49.876  84.958 -12.558  1.00  0.00    -0.359 OA
HETATM   25  H17         0      49.024  85.099 -12.161  1.00  0.00     0.218 HD
ENDBRANCH   8  24
TORSDOF 5
ENDMDL
MODEL 8
REMARK VINA RESULT:      -3.9      3.633      4.974
REMARK  5 active torsions:
REMARK  status: ('A' for Active; 'I' for Inactive)
REMARK    1  A    between atoms: C4_4  and  C5_5 
REMARK    2  A    between atoms: C8_8  and  O9_9 
REMARK    3  A    between atoms: C10_11  and  O11_12 
REMARK    4  A    between atoms: C16_18  and  O17_19 
REMARK    5  A    between atoms: C19_22  and  O20_23 
ROOT
HETATM    1  O1          0      52.828  84.952 -12.768  1.00  0.00    -0.286 OA
HETATM    2  C2          0      53.339  84.289 -13.712  1.00  0.00     0.201 C 
HETATM    3  C3          0      54.629  84.504 -14.169  1.00  0.00     0.067 C 
HETATM    4  C4          0      55.131  83.831 -15.277  1.00  0.00     0.103 C 
HETATM    5  O13         0      54.359  82.952 -15.889  1.00  0.00    -0.307 OA
HETATM    6  C14         0      53.115  82.736 -15.520  1.00  0.00     0.107 C 
HETATM    7  C15         0      52.193  82.140 -16.368  1.00  0.00     0.049 C 
HETATM    8  C16         0      50.835  82.146 -16.076  1.00  0.00     0.093 C 
HETATM    9  C18         0      50.525  82.274 -14.727  1.00  0.00     0.048 C 
HETATM   10  C19         0      51.442  82.823 -13.842  1.00  0.00     0.096 C 
HETATM   11  C21         0      52.668  83.226 -14.297  1.00  0.00     0.084 C 
ENDROOT
BRANCH  10  12
HETATM   12  O20         0      50.993  83.343 -12.632  1.00  0.00    -0.359 OA
HETATM   13  H20         0      51.636  83.714 -12.040  1.00  0.00     0.218 HD
ENDBRANCH  10  12
BRANCH   4  14
HETATM   14  C5          0      56.186  84.497 -16.043  1.00  0.00     0.025 C 
HETATM   15  C6          0      56.753  83.942 -17.182  1.00  0.00     0.004 C 
HETATM   16  C7          0      57.063  84.802 -18.231  1.00  0.00     0.026 C 
HETATM   17  C8          0      56.942  86.181 -18.104  1.00  0.00     0.112 C 
HETATM   18  C10         0      56.991  86.650 -16.798  1.00  0.00     0.112 C 
HETATM   19  C12         0      56.593  85.798 -15.775  1.00  0.00     0.028 C 
BRANCH  17  20
HETATM   20  O9          0      56.588  86.964 -19.189  1.00  0.00    -0.357 OA
HETATM   21  H9          0      57.203  87.503 -19.674  1.00  0.00     0.218 HD
ENDBRANCH  17  20
BRANCH  18  22
HETATM   22  O11         0      57.064  88.025 -16.627  1.00  0.00    -0.357 OA
HETATM   23  H11         0      56.325  88.446 -16.203  1.00  0.00     0.218 HD
ENDBRANCH  18  22
ENDBRANCH   4  14
BRANCH   8  24
HETATM   24  O17         0      49.875  82.349 -17.074  1.00  0.00    -0.359 OA
HETATM   25  H17         0      49.423  83.179 -17.171  1.00  0.00     0.218 HD
ENDBRANCH   8  24
TORSDOF 5
ENDMDL
MODEL 9
REMARK VINA RESULT:      -3.9      9.769     12.393
REMARK  5 active torsions:
REMARK  status: ('A' for Active; 'I' for Inactive)
REMARK    1  A    between atoms: C4_4  and  C5_5 
REMARK    2  A    between atoms: C8_8  and  O9_9 
REMARK    3  A    between atoms: C10_11  and  O11_12 
REMARK    4  A    between atoms: C16_18  and  O17_19 
REMARK    5  A    between atoms: C19_22  and  O20_23 
ROOT
HETATM    1  O1          0      56.381  93.176 -12.132  1.00  0.00    -0.286 OA
HETATM    2  C2          0      56.256  93.002 -13.375  1.00  0.00     0.201 C 
HETATM    3  C3          0      56.080  94.047 -14.266  1.00  0.00     0.067 C 
HETATM    4  C4          0      55.842  93.821 -15.617  1.00  0.00     0.103 C 
HETATM    5  O13         0      55.806  92.575 -16.055  1.00  0.00    -0.307 OA
HETATM    6  C14         0      55.930  91.545 -15.246  1.00  0.00     0.107 C 
HETATM    7  C15         0      55.504  90.276 -15.608  1.00  0.00     0.049 C 
HETATM    8  C16         0      55.401  89.255 -14.671  1.00  0.00     0.093 C 
HETATM    9  C18         0      56.214  89.399 -13.553  1.00  0.00     0.048 C 
HETATM   10  C19         0      56.697  90.649 -13.189  1.00  0.00     0.096 C 
HETATM   11  C21         0      56.383  91.745 -13.946  1.00  0.00     0.084 C 
ENDROOT
BRANCH  10  12
HETATM   12  O20         0      57.121  90.860 -11.881  1.00  0.00    -0.359 OA
HETATM   13  H20         0      56.512  91.265 -11.275  1.00  0.00     0.218 HD
ENDBRANCH  10  12
BRANCH   4  14
HETATM   14  C5          0      55.094  94.846 -16.346  1.00  0.00     0.025 C 
HETATM   15  C6          0      55.584  95.466 -17.487  1.00  0.00     0.004 C 
HETATM   16  C7          0      54.681  95.742 -18.509  1.00  0.00     0.026 C 
HETATM   17  C8          0      53.315  95.533 -18.351  1.00  0.00     0.112 C 
HETATM   18  C10         0      52.877  95.530 -17.033  1.00  0.00     0.112 C 
HETATM   19  C12         0      53.778  95.168 -16.039  1.00  0.00     0.028 C 
BRANCH  17  20
HETATM   20  O9          0      52.528  95.151 -19.423  1.00  0.00    -0.357 OA
HETATM   21  H9          0      52.198  95.756 -20.077  1.00  0.00     0.218 HD
ENDBRANCH  17  20
BRANCH  18  22
HETATM   22  O11         0      51.505  95.515 -16.827  1.00  0.00    -0.357 OA
HETATM   23  H11         0      50.974  96.018 -17.433  1.00  0.00     0.218 HD
ENDBRANCH  18  22
ENDBRANCH   4  14
BRANCH   8  24
HETATM   24  O17         0      54.333  88.351 -14.692  1.00  0.00    -0.359 OA
HETATM   25  H17         0      53.812  88.211 -15.474  1.00  0.00     0.218 HD
ENDBRANCH   8  24
TORSDOF 5
ENDMDL
