MODEL 1
REMARK VINA RESULT:      -1.6      0.000      0.000
REMARK  5 active torsions:
REMARK  status: ('A' for Active; 'I' for Inactive)
REMARK    1  A    between atoms: C4_4  and  C5_5 
REMARK    2  A    between atoms: C8_8  and  O9_9 
REMARK    3  A    between atoms: C10_11  and  O11_12 
REMARK    4  A    between atoms: C16_18  and  O17_19 
REMARK    5  A    between atoms: C19_22  and  O20_23 
ROOT
HETATM    1  O1          0      54.312  80.710  11.012  1.00  0.00    -0.286 OA
HETATM    2  C2          0      53.134  80.899  10.601  1.00  0.00     0.201 C 
HETATM    3  C3          0      52.575  82.160  10.480  1.00  0.00     0.067 C 
HETATM    4  C4          0      51.243  82.335  10.124  1.00  0.00     0.103 C 
HETATM    5  O13         0      50.506  81.266   9.877  1.00  0.00    -0.307 OA
HETATM    6  C14         0      50.977  80.046  10.013  1.00  0.00     0.107 C 
HETATM    7  C15         0      50.137  78.950  10.150  1.00  0.00     0.049 C 
HETATM    8  C16         0      50.627  77.711  10.546  1.00  0.00     0.093 C 
HETATM    9  C18         0      51.974  77.499  10.277  1.00  0.00     0.048 C 
HETATM   10  C19         0      52.833  78.573  10.089  1.00  0.00     0.096 C 
HETATM   11  C21         0      52.347  79.851  10.151  1.00  0.00     0.084 C 
ENDROOT
BRANCH  10  12
HETATM   12  O20         0      54.202  78.387  10.257  1.00  0.00    -0.359 OA
HETATM   13  H20         0      54.778  79.112  10.049  1.00  0.00     0.218 HD
ENDBRANCH  10  12
BRANCH   4  14
HETATM   14  C5          0      50.581  83.556  10.587  1.00  0.00     0.025 C 
HETATM   15  C6          0      49.918  83.637  11.802  1.00  0.00     0.004 C 
HETATM   16  C7          0      50.033  84.823  12.522  1.00  0.00     0.026 C 
HETATM   17  C8          0      50.673  85.938  11.992  1.00  0.00     0.112 C 
HETATM   18  C10         0      50.726  85.971  10.605  1.00  0.00     0.112 C 
HETATM   19  C12         0      50.695  84.766   9.914  1.00  0.00     0.028 C 
BRANCH  17  20
HETATM   20  O9          0      51.371  86.809  12.809  1.00  0.00    -0.357 OA
HETATM   21  H9          0      51.977  86.528  13.484  1.00  0.00     0.218 HD
ENDBRANCH  17  20
BRANCH  18  22
HETATM   22  O11         0      51.182  87.145  10.021  1.00  0.00    -0.357 OA
HETATM   23  H11         0      50.849  87.352   9.156  1.00  0.00     0.218 HD
ENDBRANCH  18  22
ENDBRANCH   4  14
BRANCH   8  24
HETATM   24  O17         0      49.917  76.896  11.435  1.00  0.00    -0.359 OA
HETATM   25  H17         0      49.457  77.257  12.183  1.00  0.00     0.218 HD
ENDBRANCH   8  24
TORSDOF 5
ENDMDL
MODEL 2
REMARK VINA RESULT:      -1.6      2.240      6.838
REMARK  5 active torsions:
REMARK  status: ('A' for Active; 'I' for Inactive)
REMARK    1  A    between atoms: C4_4  and  C5_5 
REMARK    2  A    between atoms: C8_8  and  O9_9 
REMARK    3  A    between atoms: C10_11  and  O11_12 
REMARK    4  A    between atoms: C16_18  and  O17_19 
REMARK    5  A    between atoms: C19_22  and  O20_23 
ROOT
HETATM    1  O1          0      54.590  84.382  12.073  1.00  0.00    -0.286 OA
HETATM    2  C2          0      53.333  84.386  12.187  1.00  0.00     0.201 C 
HETATM    3  C3          0      52.592  83.229  12.359  1.00  0.00     0.067 C 
HETATM    4  C4          0      51.202  83.250  12.379  1.00  0.00     0.103 C 
HETATM    5  O13         0      50.583  84.410  12.250  1.00  0.00    -0.307 OA
HETATM    6  C14         0      51.238  85.533  12.046  1.00  0.00     0.107 C 
HETATM    7  C15         0      50.616  86.656  11.521  1.00  0.00     0.049 C 
HETATM    8  C16         0      51.353  87.745  11.072  1.00  0.00     0.093 C 
HETATM    9  C18         0      52.612  87.878  11.645  1.00  0.00     0.048 C 
HETATM   10  C19         0      53.244  86.784  12.222  1.00  0.00     0.096 C 
HETATM   11  C21         0      52.614  85.570  12.242  1.00  0.00     0.084 C 
ENDROOT
BRANCH  10  12
HETATM   12  O20         0      54.625  86.806  12.389  1.00  0.00    -0.359 OA
HETATM   13  H20         0      54.965  86.847  13.274  1.00  0.00     0.218 HD
ENDBRANCH  10  12
BRANCH   4  14
HETATM   14  C5          0      50.508  82.030  11.963  1.00  0.00     0.025 C 
HETATM   15  C6          0      49.885  81.904  10.730  1.00  0.00     0.004 C 
HETATM   16  C7          0      49.977  80.675  10.084  1.00  0.00     0.026 C 
HETATM   17  C8          0      50.552  79.569  10.700  1.00  0.00     0.112 C 
HETATM   18  C10         0      50.556  79.615  12.088  1.00  0.00     0.112 C 
HETATM   19  C12         0      50.550  80.859  12.707  1.00  0.00     0.028 C 
BRANCH  17  20
HETATM   20  O9          0      51.243  78.625   9.961  1.00  0.00    -0.357 OA
HETATM   21  H9          0      50.824  77.920   9.480  1.00  0.00     0.218 HD
ENDBRANCH  17  20
BRANCH  18  22
HETATM   22  O11         0      50.944  78.461  12.754  1.00  0.00    -0.357 OA
HETATM   23  H11         0      51.660  77.965  12.374  1.00  0.00     0.218 HD
ENDBRANCH  18  22
ENDBRANCH   4  14
BRANCH   8  24
HETATM   24  O17         0      50.997  88.438   9.909  1.00  0.00    -0.359 OA
HETATM   25  H17         0      50.183  88.922   9.846  1.00  0.00     0.218 HD
ENDBRANCH   8  24
TORSDOF 5
ENDMDL
MODEL 3
REMARK VINA RESULT:      -1.4      3.787      5.345
REMARK  5 active torsions:
REMARK  status: ('A' for Active; 'I' for Inactive)
REMARK    1  A    between atoms: C4_4  and  C5_5 
REMARK    2  A    between atoms: C8_8  and  O9_9 
REMARK    3  A    between atoms: C10_11  and  O11_12 
REMARK    4  A    between atoms: C16_18  and  O17_19 
REMARK    5  A    between atoms: C19_22  and  O20_23 
ROOT
HETATM    1  O1          0      51.708  78.728  14.716  1.00  0.00    -0.286 OA
HETATM    2  C2          0      51.096  79.761  14.328  1.00  0.00     0.201 C 
HETATM    3  C3          0      50.993  80.116  12.994  1.00  0.00     0.067 C 
HETATM    4  C4          0      50.402  81.311  12.601  1.00  0.00     0.103 C 
HETATM    5  O13         0      49.911  82.112  13.531  1.00  0.00    -0.307 OA
HETATM    6  C14         0      50.016  81.841  14.813  1.00  0.00     0.107 C 
HETATM    7  C15         0      49.877  82.824  15.782  1.00  0.00     0.049 C 
HETATM    8  C16         0      50.237  82.591  17.104  1.00  0.00     0.093 C 
HETATM    9  C18         0      50.217  81.257  17.491  1.00  0.00     0.048 C 
HETATM   10  C19         0      50.307  80.246  16.543  1.00  0.00     0.096 C 
HETATM   11  C21         0      50.399  80.566  15.216  1.00  0.00     0.084 C 
ENDROOT
BRANCH  10  12
HETATM   12  O20         0      50.721  78.978  16.939  1.00  0.00    -0.359 OA
HETATM   13  H20         0      50.626  78.744  17.854  1.00  0.00     0.218 HD
ENDBRANCH  10  12
BRANCH   4  14
HETATM   14  C5          0      50.845  81.892  11.332  1.00  0.00     0.025 C 
HETATM   15  C6          0      50.012  82.648  10.520  1.00  0.00     0.004 C 
HETATM   16  C7          0      50.566  83.749   9.875  1.00  0.00     0.026 C 
HETATM   17  C8          0      51.931  84.013   9.926  1.00  0.00     0.112 C 
HETATM   18  C10         0      52.726  82.908  10.199  1.00  0.00     0.112 C 
HETATM   19  C12         0      52.171  81.857  10.920  1.00  0.00     0.028 C 
BRANCH  17  20
HETATM   20  O9          0      52.401  85.314   9.914  1.00  0.00    -0.357 OA
HETATM   21  H9          0      52.602  85.796   9.120  1.00  0.00     0.218 HD
ENDBRANCH  17  20
BRANCH  18  22
HETATM   22  O11         0      54.098  83.075  10.076  1.00  0.00    -0.357 OA
HETATM   23  H11         0      54.402  83.616   9.356  1.00  0.00     0.218 HD
ENDBRANCH  18  22
ENDBRANCH   4  14
BRANCH   8  24
HETATM   24  O17         0      50.885  83.569  17.867  1.00  0.00    -0.359 OA
HETATM   25  H17         0      51.752  83.427  18.228  1.00  0.00     0.218 HD
ENDBRANCH   8  24
TORSDOF 5
ENDMDL
MODEL 4
REMARK VINA RESULT:      -1.2      3.340      8.414
REMARK  5 active torsions:
REMARK  status: ('A' for Active; 'I' for Inactive)
REMARK    1  A    between atoms: C4_4  and  C5_5 
REMARK    2  A    between atoms: C8_8  and  O9_9 
REMARK    3  A    between atoms: C10_11  and  O11_12 
REMARK    4  A    between atoms: C16_18  and  O17_19 
REMARK    5  A    between atoms: C19_22  and  O20_23 
ROOT
HETATM    1  O1          0      52.566  78.247  14.051  1.00  0.00    -0.286 OA
HETATM    2  C2          0      51.798  77.913  13.108  1.00  0.00     0.201 C 
HETATM    3  C3          0      51.743  76.624  12.605  1.00  0.00     0.067 C 
HETATM    4  C4          0      50.963  76.307  11.499  1.00  0.00     0.103 C 
HETATM    5  O13         0      50.246  77.261  10.933  1.00  0.00    -0.307 OA
HETATM    6  C14         0      50.290  78.508  11.347  1.00  0.00     0.107 C 
HETATM    7  C15         0      49.876  79.561  10.544  1.00  0.00     0.049 C 
HETATM    8  C16         0      50.159  80.879  10.879  1.00  0.00     0.093 C 
HETATM    9  C18         0      50.371  81.108  12.233  1.00  0.00     0.048 C 
HETATM   10  C19         0      50.740  80.068  13.075  1.00  0.00     0.096 C 
HETATM   11  C21         0      50.881  78.804  12.571  1.00  0.00     0.084 C 
ENDROOT
BRANCH  10  12
HETATM   12  O20         0      51.360  80.360  14.286  1.00  0.00    -0.359 OA
HETATM   13  H20         0      51.435  81.273  14.539  1.00  0.00     0.218 HD
ENDBRANCH  10  12
BRANCH   4  14
HETATM   14  C5          0      51.391  75.169  10.683  1.00  0.00     0.025 C 
HETATM   15  C6          0      52.725  74.842  10.488  1.00  0.00     0.004 C 
HETATM   16  C7          0      53.060  73.492  10.458  1.00  0.00     0.026 C 
HETATM   17  C8          0      52.088  72.498  10.487  1.00  0.00     0.112 C 
HETATM   18  C10         0      50.834  72.901  10.048  1.00  0.00     0.112 C 
HETATM   19  C12         0      50.492  74.243  10.168  1.00  0.00     0.028 C 
BRANCH  17  20
HETATM   20  O9          0      52.332  71.285  11.106  1.00  0.00    -0.357 OA
HETATM   21  H9          0      51.778  70.520  11.005  1.00  0.00     0.218 HD
ENDBRANCH  17  20
BRANCH  18  22
HETATM   22  O11         0      49.879  71.909   9.877  1.00  0.00    -0.357 OA
HETATM   23  H11         0      49.071  72.000  10.370  1.00  0.00     0.218 HD
ENDBRANCH  18  22
ENDBRANCH   4  14
BRANCH   8  24
HETATM   24  O17         0      50.533  81.815   9.908  1.00  0.00    -0.359 OA
HETATM   25  H17         0      50.234  82.716   9.942  1.00  0.00     0.218 HD
ENDBRANCH   8  24
TORSDOF 5
ENDMDL
MODEL 5
REMARK VINA RESULT:      -1.2      3.099      7.500
REMARK  5 active torsions:
REMARK  status: ('A' for Active; 'I' for Inactive)
REMARK    1  A    between atoms: C4_4  and  C5_5 
REMARK    2  A    between atoms: C8_8  and  O9_9 
REMARK    3  A    between atoms: C10_11  and  O11_12 
REMARK    4  A    between atoms: C16_18  and  O17_19 
REMARK    5  A    between atoms: C19_22  and  O20_23 
ROOT
HETATM    1  O1          0      50.768  79.595  15.925  1.00  0.00    -0.286 OA
HETATM    2  C2          0      50.443  79.621  14.707  1.00  0.00     0.201 C 
HETATM    3  C3          0      50.383  78.482  13.922  1.00  0.00     0.067 C 
HETATM    4  C4          0      50.122  78.550  12.558  1.00  0.00     0.103 C 
HETATM    5  O13         0      49.908  79.733  12.011  1.00  0.00    -0.307 OA
HETATM    6  C14         0      49.990  80.849  12.703  1.00  0.00     0.107 C 
HETATM    7  C15         0      50.165  82.080  12.088  1.00  0.00     0.049 C 
HETATM    8  C16         0      50.504  83.211  12.820  1.00  0.00     0.093 C 
HETATM    9  C18         0      50.140  83.173  14.160  1.00  0.00     0.048 C 
HETATM   10  C19         0      49.911  81.960  14.796  1.00  0.00     0.096 C 
HETATM   11  C21         0      50.029  80.793  14.092  1.00  0.00     0.084 C 
ENDROOT
BRANCH  10  12
HETATM   12  O20         0      49.981  81.895  16.184  1.00  0.00    -0.359 OA
HETATM   13  H20         0      50.590  81.277  16.570  1.00  0.00     0.218 HD
ENDBRANCH  10  12
BRANCH   4  14
HETATM   14  C5          0      50.651  77.472  11.720  1.00  0.00     0.025 C 
HETATM   15  C6          0      51.250  77.700  10.490  1.00  0.00     0.004 C 
HETATM   16  C7          0      52.353  76.921  10.155  1.00  0.00     0.026 C 
HETATM   17  C8          0      52.766  75.861  10.954  1.00  0.00     0.112 C 
HETATM   18  C10         0      51.777  75.331  11.771  1.00  0.00     0.112 C 
HETATM   19  C12         0      50.729  76.157  12.161  1.00  0.00     0.028 C 
BRANCH  17  20
HETATM   20  O9          0      54.106  75.530  11.056  1.00  0.00    -0.357 OA
HETATM   21  H9          0      54.655  75.773  11.792  1.00  0.00     0.218 HD
ENDBRANCH  17  20
BRANCH  18  22
HETATM   22  O11         0      52.082  74.157  12.446  1.00  0.00    -0.357 OA
HETATM   23  H11         0      52.994  74.015  12.671  1.00  0.00     0.218 HD
ENDBRANCH  18  22
ENDBRANCH   4  14
BRANCH   8  24
HETATM   24  O17         0      51.426  84.145  12.334  1.00  0.00    -0.359 OA
HETATM   25  H17         0      52.187  83.880  11.832  1.00  0.00     0.218 HD
ENDBRANCH   8  24
TORSDOF 5
ENDMDL
MODEL 6
REMARK VINA RESULT:      -1.1      1.843      1.888
REMARK  5 active torsions:
REMARK  status: ('A' for Active; 'I' for Inactive)
REMARK    1  A    between atoms: C4_4  and  C5_5 
REMARK    2  A    between atoms: C8_8  and  O9_9 
REMARK    3  A    between atoms: C10_11  and  O11_12 
REMARK    4  A    between atoms: C16_18  and  O17_19 
REMARK    5  A    between atoms: C19_22  and  O20_23 
ROOT
HETATM    1  O1          0      54.756  80.114  12.179  1.00  0.00    -0.286 OA
HETATM    2  C2          0      53.590  80.279  11.726  1.00  0.00     0.201 C 
HETATM    3  C3          0      53.225  81.385  10.978  1.00  0.00     0.067 C 
HETATM    4  C4          0      51.910  81.592  10.578  1.00  0.00     0.103 C 
HETATM    5  O13         0      50.997  80.695  10.909  1.00  0.00    -0.307 OA
HETATM    6  C14         0      51.283  79.647  11.650  1.00  0.00     0.107 C 
HETATM    7  C15         0      50.300  78.938  12.324  1.00  0.00     0.049 C 
HETATM    8  C16         0      50.624  78.001  13.298  1.00  0.00     0.093 C 
HETATM    9  C18         0      51.893  77.447  13.179  1.00  0.00     0.048 C 
HETATM   10  C19         0      52.888  78.107  12.471  1.00  0.00     0.096 C 
HETATM   11  C21         0      52.613  79.306  11.871  1.00  0.00     0.084 C 
ENDROOT
BRANCH  10  12
HETATM   12  O20         0      54.221  77.790  12.714  1.00  0.00    -0.359 OA
HETATM   13  H20         0      54.873  78.465  12.570  1.00  0.00     0.218 HD
ENDBRANCH  10  12
BRANCH   4  14
HETATM   14  C5          0      51.488  82.975  10.352  1.00  0.00     0.025 C 
HETATM   15  C6          0      50.225  83.441  10.686  1.00  0.00     0.004 C 
HETATM   16  C7          0      50.129  84.728  11.205  1.00  0.00     0.026 C 
HETATM   17  C8          0      51.231  85.574  11.266  1.00  0.00     0.112 C 
HETATM   18  C10         0      52.243  85.274  10.364  1.00  0.00     0.112 C 
HETATM   19  C12         0      52.369  83.961   9.926  1.00  0.00     0.028 C 
BRANCH  17  20
HETATM   20  O9          0      51.365  86.491  12.294  1.00  0.00    -0.357 OA
HETATM   21  H9          0      50.949  86.397  13.143  1.00  0.00     0.218 HD
ENDBRANCH  17  20
BRANCH  18  22
HETATM   22  O11         0      53.277  86.193  10.251  1.00  0.00    -0.357 OA
HETATM   23  H11         0      53.632  86.336   9.381  1.00  0.00     0.218 HD
ENDBRANCH  18  22
ENDBRANCH   4  14
BRANCH   8  24
HETATM   24  O17         0      49.878  77.885  14.476  1.00  0.00    -0.359 OA
HETATM   25  H17         0      50.274  77.599  15.291  1.00  0.00     0.218 HD
ENDBRANCH   8  24
TORSDOF 5
ENDMDL
MODEL 7
REMARK VINA RESULT:      -1.1      2.504      7.128
REMARK  5 active torsions:
REMARK  status: ('A' for Active; 'I' for Inactive)
REMARK    1  A    between atoms: C4_4  and  C5_5 
REMARK    2  A    between atoms: C8_8  and  O9_9 
REMARK    3  A    between atoms: C10_11  and  O11_12 
REMARK    4  A    between atoms: C16_18  and  O17_19 
REMARK    5  A    between atoms: C19_22  and  O20_23 
ROOT
HETATM    1  O1          0      49.910  82.460  13.620  1.00  0.00    -0.286 OA
HETATM    2  C2          0      50.289  81.577  12.803  1.00  0.00     0.201 C 
HETATM    3  C3          0      50.083  80.224  13.011  1.00  0.00     0.067 C 
HETATM    4  C4          0      50.600  79.266  12.146  1.00  0.00     0.103 C 
HETATM    5  O13         0      51.287  79.668  11.091  1.00  0.00    -0.307 OA
HETATM    6  C14         0      51.544  80.938  10.867  1.00  0.00     0.107 C 
HETATM    7  C15         0      52.570  81.339  10.023  1.00  0.00     0.049 C 
HETATM    8  C16         0      53.000  82.659   9.987  1.00  0.00     0.093 C 
HETATM    9  C18         0      52.057  83.596  10.393  1.00  0.00     0.048 C 
HETATM   10  C19         0      50.992  83.220  11.200  1.00  0.00     0.096 C 
HETATM   11  C21         0      50.860  81.914  11.585  1.00  0.00     0.084 C 
ENDROOT
BRANCH  10  12
HETATM   12  O20         0      50.326  84.190  11.943  1.00  0.00    -0.359 OA
HETATM   13  H20         0      50.808  84.971  12.188  1.00  0.00     0.218 HD
ENDBRANCH  10  12
BRANCH   4  14
HETATM   14  C5          0      50.874  77.940  12.702  1.00  0.00     0.025 C 
HETATM   15  C6          0      49.940  77.224  13.437  1.00  0.00     0.004 C 
HETATM   16  C7          0      49.885  75.848  13.244  1.00  0.00     0.026 C 
HETATM   17  C8          0      50.815  75.185  12.450  1.00  0.00     0.112 C 
HETATM   18  C10         0      52.024  75.850  12.295  1.00  0.00     0.112 C 
HETATM   19  C12         0      52.035  77.235  12.409  1.00  0.00     0.028 C 
BRANCH  17  20
HETATM   20  O9          0      50.455  74.066  11.720  1.00  0.00    -0.357 OA
HETATM   21  H9          0      49.901  73.371  12.058  1.00  0.00     0.218 HD
ENDBRANCH  17  20
BRANCH  18  22
HETATM   22  O11         0      53.050  75.152  11.674  1.00  0.00    -0.357 OA
HETATM   23  H11         0      53.692  74.738  12.238  1.00  0.00     0.218 HD
ENDBRANCH  18  22
ENDBRANCH   4  14
BRANCH   8  24
HETATM   24  O17         0      54.358  82.981   9.881  1.00  0.00    -0.359 OA
HETATM   25  H17         0      54.908  82.607   9.203  1.00  0.00     0.218 HD
ENDBRANCH   8  24
TORSDOF 5
ENDMDL
MODEL 8
REMARK VINA RESULT:      -1.1      2.209      2.440
REMARK  5 active torsions:
REMARK  status: ('A' for Active; 'I' for Inactive)
REMARK    1  A    between atoms: C4_4  and  C5_5 
REMARK    2  A    between atoms: C8_8  and  O9_9 
REMARK    3  A    between atoms: C10_11  and  O11_12 
REMARK    4  A    between atoms: C16_18  and  O17_19 
REMARK    5  A    between atoms: C19_22  and  O20_23 
ROOT
HETATM    1  O1          0      53.782  79.565  14.627  1.00  0.00    -0.286 OA
HETATM    2  C2          0      53.132  79.747  13.561  1.00  0.00     0.201 C 
HETATM    3  C3          0      52.545  80.958  13.238  1.00  0.00     0.067 C 
HETATM    4  C4          0      51.749  81.104  12.108  1.00  0.00     0.103 C 
HETATM    5  O13         0      51.569  80.059  11.319  1.00  0.00    -0.307 OA
HETATM    6  C14         0      52.072  78.877  11.599  1.00  0.00     0.107 C 
HETATM    7  C15         0      51.577  77.716  11.023  1.00  0.00     0.049 C 
HETATM    8  C16         0      51.932  76.462  11.506  1.00  0.00     0.093 C 
HETATM    9  C18         0      53.146  76.415  12.180  1.00  0.00     0.048 C 
HETATM   10  C19         0      53.694  77.566  12.728  1.00  0.00     0.096 C 
HETATM   11  C21         0      53.041  78.761  12.590  1.00  0.00     0.084 C 
ENDROOT
BRANCH  10  12
HETATM   12  O20         0      54.641  77.453  13.742  1.00  0.00    -0.359 OA
HETATM   13  H20         0      54.441  76.885  14.476  1.00  0.00     0.218 HD
ENDBRANCH  10  12
BRANCH   4  14
HETATM   14  C5          0      50.720  82.145  12.143  1.00  0.00     0.025 C 
HETATM   15  C6          0      50.185  82.633  13.326  1.00  0.00     0.004 C 
HETATM   16  C7          0      49.909  83.995  13.395  1.00  0.00     0.026 C 
HETATM   17  C8          0      50.035  84.822  12.283  1.00  0.00     0.112 C 
HETATM   18  C10         0      49.950  84.168  11.062  1.00  0.00     0.112 C 
HETATM   19  C12         0      50.312  82.827  11.004  1.00  0.00     0.028 C 
BRANCH  17  20
HETATM   20  O9          0      50.424  86.142  12.422  1.00  0.00    -0.357 OA
HETATM   21  H9          0      49.874  86.882  12.191  1.00  0.00     0.218 HD
ENDBRANCH  17  20
BRANCH  18  22
HETATM   22  O11         0      49.879  84.963   9.927  1.00  0.00    -0.357 OA
HETATM   23  H11         0      49.491  84.572   9.152  1.00  0.00     0.218 HD
ENDBRANCH  18  22
ENDBRANCH   4  14
BRANCH   8  24
HETATM   24  O17         0      50.996  75.426  11.603  1.00  0.00    -0.359 OA
HETATM   25  H17         0      50.296  75.444  12.245  1.00  0.00     0.218 HD
ENDBRANCH   8  24
TORSDOF 5
ENDMDL
MODEL 9
REMARK VINA RESULT:      -0.9      2.581      6.920
REMARK  5 active torsions:
REMARK  status: ('A' for Active; 'I' for Inactive)
REMARK    1  A    between atoms: C4_4  and  C5_5 
REMARK    2  A    between atoms: C8_8  and  O9_9 
REMARK    3  A    between atoms: C10_11  and  O11_12 
REMARK    4  A    between atoms: C16_18  and  O17_19 
REMARK    5  A    between atoms: C19_22  and  O20_23 
ROOT
HETATM    1  O1          0      53.920  83.745  13.967  1.00  0.00    -0.286 OA
HETATM    2  C2          0      52.909  83.053  13.664  1.00  0.00     0.201 C 
HETATM    3  C3          0      52.872  81.676  13.805  1.00  0.00     0.067 C 
HETATM    4  C4          0      51.786  80.928  13.367  1.00  0.00     0.103 C 
HETATM    5  O13         0      50.759  81.557  12.823  1.00  0.00    -0.307 OA
HETATM    6  C14         0      50.759  82.858  12.631  1.00  0.00     0.107 C 
HETATM    7  C15         0      49.900  83.464  11.726  1.00  0.00     0.049 C 
HETATM    8  C16         0      50.073  84.788  11.340  1.00  0.00     0.093 C 
HETATM    9  C18         0      50.756  85.580  12.255  1.00  0.00     0.048 C 
HETATM   10  C19         0      51.588  85.004  13.205  1.00  0.00     0.096 C 
HETATM   11  C21         0      51.724  83.644  13.252  1.00  0.00     0.084 C 
ENDROOT
BRANCH  10  12
HETATM   12  O20         0      52.575  85.780  13.805  1.00  0.00    -0.359 OA
HETATM   13  H20         0      53.097  85.383  14.492  1.00  0.00     0.218 HD
ENDBRANCH  10  12
BRANCH   4  14
HETATM   14  C5          0      52.039  79.536  12.990  1.00  0.00     0.025 C 
HETATM   15  C6          0      53.094  78.797  13.507  1.00  0.00     0.004 C 
HETATM   16  C7          0      52.863  77.455  13.789  1.00  0.00     0.026 C 
HETATM   17  C8          0      51.668  76.832  13.445  1.00  0.00     0.112 C 
HETATM   18  C10         0      50.972  77.443  12.411  1.00  0.00     0.112 C 
HETATM   19  C12         0      51.157  78.805  12.204  1.00  0.00     0.028 C 
BRANCH  17  20
HETATM   20  O9          0      51.144  75.820  14.231  1.00  0.00    -0.357 OA
HETATM   21  H9          0      51.183  75.815  15.180  1.00  0.00     0.218 HD
ENDBRANCH  17  20
BRANCH  18  22
HETATM   22  O11         0      49.875  76.762  11.903  1.00  0.00    -0.357 OA
HETATM   23  H11         0      49.083  77.268  11.760  1.00  0.00     0.218 HD
ENDBRANCH  18  22
ENDBRANCH   4  14
BRANCH   8  24
HETATM   24  O17         0      49.880  85.193  10.015  1.00  0.00    -0.359 OA
HETATM   25  H17         0      49.492  84.615   9.368  1.00  0.00     0.218 HD
ENDBRANCH   8  24
TORSDOF 5
ENDMDL
