MODEL 1
REMARK VINA RESULT:      -6.4      0.000      0.000
REMARK  5 active torsions:
REMARK  status: ('A' for Active; 'I' for Inactive)
REMARK    1  A    between atoms: C4_4  and  C5_5 
REMARK    2  A    between atoms: C8_8  and  O9_9 
REMARK    3  A    between atoms: C10_11  and  O11_12 
REMARK    4  A    between atoms: C16_18  and  O17_19 
REMARK    5  A    between atoms: C19_22  and  O20_23 
ROOT
HETATM    1  O1          0      55.237  56.253  23.831  1.00  0.00    -0.286 OA
HETATM    2  C2          0      54.480  55.510  24.516  1.00  0.00     0.201 C 
HETATM    3  C3          0      54.759  55.159  25.826  1.00  0.00     0.067 C 
HETATM    4  C4          0      53.963  54.258  26.523  1.00  0.00     0.103 C 
HETATM    5  O13         0      52.905  53.745  25.919  1.00  0.00    -0.307 OA
HETATM    6  C14         0      52.617  54.016  24.665  1.00  0.00     0.107 C 
HETATM    7  C15         0      51.777  53.204  23.916  1.00  0.00     0.049 C 
HETATM    8  C16         0      51.678  53.346  22.537  1.00  0.00     0.093 C 
HETATM    9  C18         0      52.007  54.606  22.051  1.00  0.00     0.048 C 
HETATM   10  C19         0      52.806  55.462  22.796  1.00  0.00     0.096 C 
HETATM   11  C21         0      53.261  55.070  24.025  1.00  0.00     0.084 C 
ENDROOT
BRANCH  10  12
HETATM   12  O20         0      53.477  56.498  22.153  1.00  0.00    -0.359 OA
HETATM   13  H20         0      52.990  57.290  21.958  1.00  0.00     0.218 HD
ENDBRANCH  10  12
BRANCH   4  14
HETATM   14  C5          0      54.599  53.494  27.598  1.00  0.00     0.025 C 
HETATM   15  C6          0      55.030  54.077  28.781  1.00  0.00     0.004 C 
HETATM   16  C7          0      54.854  53.354  29.957  1.00  0.00     0.026 C 
HETATM   17  C8          0      54.390  52.043  29.945  1.00  0.00     0.112 C 
HETATM   18  C10         0      54.596  51.366  28.750  1.00  0.00     0.112 C 
HETATM   19  C12         0      54.683  52.108  27.578  1.00  0.00     0.028 C 
BRANCH  17  20
HETATM   20  O9          0      53.606  51.559  30.977  1.00  0.00    -0.357 OA
HETATM   21  H9          0      53.712  51.816  31.885  1.00  0.00     0.218 HD
ENDBRANCH  17  20
BRANCH  18  22
HETATM   22  O11         0      54.326  50.005  28.744  1.00  0.00    -0.357 OA
HETATM   23  H11         0      54.631  49.509  27.993  1.00  0.00     0.218 HD
ENDBRANCH  18  22
ENDBRANCH   4  14
BRANCH   8  24
HETATM   24  O17         0      51.589  52.233  21.694  1.00  0.00    -0.359 OA
HETATM   25  H17         0      51.305  51.385  22.015  1.00  0.00     0.218 HD
ENDBRANCH   8  24
TORSDOF 5
ENDMDL
MODEL 2
REMARK VINA RESULT:      -6.3      1.998      3.440
REMARK  5 active torsions:
REMARK  status: ('A' for Active; 'I' for Inactive)
REMARK    1  A    between atoms: C4_4  and  C5_5 
REMARK    2  A    between atoms: C8_8  and  O9_9 
REMARK    3  A    between atoms: C10_11  and  O11_12 
REMARK    4  A    between atoms: C16_18  and  O17_19 
REMARK    5  A    between atoms: C19_22  and  O20_23 
ROOT
HETATM    1  O1          0      51.389  51.507  23.779  1.00  0.00    -0.286 OA
HETATM    2  C2          0      52.143  52.478  24.059  1.00  0.00     0.201 C 
HETATM    3  C3          0      52.822  52.579  25.262  1.00  0.00     0.067 C 
HETATM    4  C4          0      53.565  53.709  25.586  1.00  0.00     0.103 C 
HETATM    5  O13         0      53.635  54.695  24.710  1.00  0.00    -0.307 OA
HETATM    6  C14         0      52.981  54.666  23.570  1.00  0.00     0.107 C 
HETATM    7  C15         0      52.723  55.821  22.846  1.00  0.00     0.049 C 
HETATM    8  C16         0      51.822  55.823  21.787  1.00  0.00     0.093 C 
HETATM    9  C18         0      51.628  54.589  21.180  1.00  0.00     0.048 C 
HETATM   10  C19         0      51.919  53.414  21.860  1.00  0.00     0.096 C 
HETATM   11  C21         0      52.418  53.472  23.132  1.00  0.00     0.084 C 
ENDROOT
BRANCH  10  12
HETATM   12  O20         0      51.333  52.223  21.442  1.00  0.00    -0.359 OA
HETATM   13  H20         0      51.094  51.588  22.107  1.00  0.00     0.218 HD
ENDBRANCH  10  12
BRANCH   4  14
HETATM   14  C5          0      53.731  54.015  27.008  1.00  0.00     0.025 C 
HETATM   15  C6          0      53.823  53.033  27.983  1.00  0.00     0.004 C 
HETATM   16  C7          0      54.712  53.247  29.032  1.00  0.00     0.026 C 
HETATM   17  C8          0      55.389  54.453  29.180  1.00  0.00     0.112 C 
HETATM   18  C10         0      54.777  55.539  28.569  1.00  0.00     0.112 C 
HETATM   19  C12         0      53.959  55.305  27.470  1.00  0.00     0.028 C 
BRANCH  17  20
HETATM   20  O9          0      56.665  54.489  29.712  1.00  0.00    -0.357 OA
HETATM   21  H9          0      57.408  54.890  29.275  1.00  0.00     0.218 HD
ENDBRANCH  17  20
BRANCH  18  22
HETATM   22  O11         0      55.304  56.793  28.843  1.00  0.00    -0.357 OA
HETATM   23  H11         0      54.987  57.232  29.624  1.00  0.00     0.218 HD
ENDBRANCH  18  22
ENDBRANCH   4  14
BRANCH   8  24
HETATM   24  O17         0      50.943  56.892  21.580  1.00  0.00    -0.359 OA
HETATM   25  H17         0      50.262  57.106  22.206  1.00  0.00     0.218 HD
ENDBRANCH   8  24
TORSDOF 5
ENDMDL
MODEL 3
REMARK VINA RESULT:      -6.3      1.431      2.804
REMARK  5 active torsions:
REMARK  status: ('A' for Active; 'I' for Inactive)
REMARK    1  A    between atoms: C4_4  and  C5_5 
REMARK    2  A    between atoms: C8_8  and  O9_9 
REMARK    3  A    between atoms: C10_11  and  O11_12 
REMARK    4  A    between atoms: C16_18  and  O17_19 
REMARK    5  A    between atoms: C19_22  and  O20_23 
ROOT
HETATM    1  O1          0      51.530  52.188  24.425  1.00  0.00    -0.286 OA
HETATM    2  C2          0      52.524  52.796  24.908  1.00  0.00     0.201 C 
HETATM    3  C3          0      52.995  52.564  26.189  1.00  0.00     0.067 C 
HETATM    4  C4          0      54.027  53.321  26.734  1.00  0.00     0.103 C 
HETATM    5  O13         0      54.577  54.269  25.996  1.00  0.00    -0.307 OA
HETATM    6  C14         0      54.142  54.555  24.788  1.00  0.00     0.107 C 
HETATM    7  C15         0      54.425  55.769  24.179  1.00  0.00     0.049 C 
HETATM    8  C16         0      53.761  56.169  23.025  1.00  0.00     0.093 C 
HETATM    9  C18         0      53.244  55.133  22.256  1.00  0.00     0.048 C 
HETATM   10  C19         0      52.993  53.891  22.824  1.00  0.00     0.096 C 
HETATM   11  C21         0      53.273  53.680  24.146  1.00  0.00     0.084 C 
ENDROOT
BRANCH  10  12
HETATM   12  O20         0      52.099  53.026  22.200  1.00  0.00    -0.359 OA
HETATM   13  H20         0      51.171  53.197  22.301  1.00  0.00     0.218 HD
ENDBRANCH  10  12
BRANCH   4  14
HETATM   14  C5          0      54.063  53.452  28.192  1.00  0.00     0.025 C 
HETATM   15  C6          0      53.518  54.537  28.863  1.00  0.00     0.004 C 
HETATM   16  C7          0      52.872  54.290  30.070  1.00  0.00     0.026 C 
HETATM   17  C8          0      52.882  53.030  30.658  1.00  0.00     0.112 C 
HETATM   18  C10         0      53.938  52.217  30.268  1.00  0.00     0.112 C 
HETATM   19  C12         0      54.510  52.431  29.020  1.00  0.00     0.028 C 
BRANCH  17  20
HETATM   20  O9          0      51.801  52.584  31.397  1.00  0.00    -0.357 OA
HETATM   21  H9          0      51.301  53.136  31.987  1.00  0.00     0.218 HD
ENDBRANCH  17  20
BRANCH  18  22
HETATM   22  O11         0      54.104  51.027  30.962  1.00  0.00    -0.357 OA
HETATM   23  H11         0      53.464  50.829  31.636  1.00  0.00     0.218 HD
ENDBRANCH  18  22
ENDBRANCH   4  14
BRANCH   8  24
HETATM   24  O17         0      53.358  57.496  22.838  1.00  0.00    -0.359 OA
HETATM   25  H17         0      53.967  58.219  22.925  1.00  0.00     0.218 HD
ENDBRANCH   8  24
TORSDOF 5
ENDMDL
MODEL 4
REMARK VINA RESULT:      -6.2      1.939      6.758
REMARK  5 active torsions:
REMARK  status: ('A' for Active; 'I' for Inactive)
REMARK    1  A    between atoms: C4_4  and  C5_5 
REMARK    2  A    between atoms: C8_8  and  O9_9 
REMARK    3  A    between atoms: C10_11  and  O11_12 
REMARK    4  A    between atoms: C16_18  and  O17_19 
REMARK    5  A    between atoms: C19_22  and  O20_23 
ROOT
HETATM    1  O1          0      54.097  51.364  28.589  1.00  0.00    -0.286 OA
HETATM    2  C2          0      53.780  52.535  28.243  1.00  0.00     0.201 C 
HETATM    3  C3          0      53.218  52.827  27.011  1.00  0.00     0.067 C 
HETATM    4  C4          0      52.973  54.136  26.614  1.00  0.00     0.103 C 
HETATM    5  O13         0      53.269  55.118  27.448  1.00  0.00    -0.307 OA
HETATM    6  C14         0      53.839  54.899  28.613  1.00  0.00     0.107 C 
HETATM    7  C15         0      54.505  55.902  29.301  1.00  0.00     0.049 C 
HETATM    8  C16         0      55.315  55.613  30.393  1.00  0.00     0.093 C 
HETATM    9  C18         0      55.007  54.431  31.055  1.00  0.00     0.048 C 
HETATM   10  C19         0      54.300  53.424  30.411  1.00  0.00     0.096 C 
HETATM   11  C21         0      53.889  53.604  29.118  1.00  0.00     0.084 C 
ENDROOT
BRANCH  10  12
HETATM   12  O20         0      54.375  52.123  30.897  1.00  0.00    -0.359 OA
HETATM   13  H20         0      54.613  51.433  30.289  1.00  0.00     0.218 HD
ENDBRANCH  10  12
BRANCH   4  14
HETATM   14  C5          0      52.968  54.410  25.176  1.00  0.00     0.025 C 
HETATM   15  C6          0      53.522  55.557  24.627  1.00  0.00     0.004 C 
HETATM   16  C7          0      54.195  55.432  23.416  1.00  0.00     0.026 C 
HETATM   17  C8          0      54.203  54.236  22.706  1.00  0.00     0.112 C 
HETATM   18  C10         0      53.143  53.386  22.991  1.00  0.00     0.112 C 
HETATM   19  C12         0      52.543  53.475  24.242  1.00  0.00     0.028 C 
BRANCH  17  20
HETATM   20  O9          0      55.302  53.867  21.951  1.00  0.00    -0.357 OA
HETATM   21  H9          0      55.306  53.133  21.348  1.00  0.00     0.218 HD
ENDBRANCH  17  20
BRANCH  18  22
HETATM   22  O11         0      52.998  52.269  22.181  1.00  0.00    -0.357 OA
HETATM   23  H11         0      53.793  51.889  21.825  1.00  0.00     0.218 HD
ENDBRANCH  18  22
ENDBRANCH   4  14
BRANCH   8  24
HETATM   24  O17         0      56.533  56.272  30.592  1.00  0.00    -0.359 OA
HETATM   25  H17         0      56.706  57.126  30.213  1.00  0.00     0.218 HD
ENDBRANCH   8  24
TORSDOF 5
ENDMDL
MODEL 5
REMARK VINA RESULT:      -6.1      1.808      6.232
REMARK  5 active torsions:
REMARK  status: ('A' for Active; 'I' for Inactive)
REMARK    1  A    between atoms: C4_4  and  C5_5 
REMARK    2  A    between atoms: C8_8  and  O9_9 
REMARK    3  A    between atoms: C10_11  and  O11_12 
REMARK    4  A    between atoms: C16_18  and  O17_19 
REMARK    5  A    between atoms: C19_22  and  O20_23 
ROOT
HETATM    1  O1          0      54.793  57.134  27.968  1.00  0.00    -0.286 OA
HETATM    2  C2          0      54.706  56.037  27.351  1.00  0.00     0.201 C 
HETATM    3  C3          0      54.427  55.957  25.997  1.00  0.00     0.067 C 
HETATM    4  C4          0      54.235  54.734  25.364  1.00  0.00     0.103 C 
HETATM    5  O13         0      54.344  53.626  26.076  1.00  0.00    -0.307 OA
HETATM    6  C14         0      54.570  53.647  27.372  1.00  0.00     0.107 C 
HETATM    7  C15         0      54.292  52.554  28.180  1.00  0.00     0.049 C 
HETATM    8  C16         0      54.289  52.664  29.565  1.00  0.00     0.093 C 
HETATM    9  C18         0      55.065  53.698  30.074  1.00  0.00     0.048 C 
HETATM   10  C19         0      55.401  54.785  29.278  1.00  0.00     0.096 C 
HETATM   11  C21         0      54.979  54.830  27.977  1.00  0.00     0.084 C 
ENDROOT
BRANCH  10  12
HETATM   12  O20         0      55.781  55.979  29.883  1.00  0.00    -0.359 OA
HETATM   13  H20         0      56.625  56.010  30.317  1.00  0.00     0.218 HD
ENDBRANCH  10  12
BRANCH   4  14
HETATM   14  C5          0      53.389  54.724  24.170  1.00  0.00     0.025 C 
HETATM   15  C6          0      53.902  54.619  22.885  1.00  0.00     0.004 C 
HETATM   16  C7          0      53.192  53.850  21.968  1.00  0.00     0.026 C 
HETATM   17  C8          0      51.947  53.313  22.276  1.00  0.00     0.112 C 
HETATM   18  C10         0      51.264  53.975  23.287  1.00  0.00     0.112 C 
HETATM   19  C12         0      52.003  54.666  24.240  1.00  0.00     0.028 C 
BRANCH  17  20
HETATM   20  O9          0      51.549  52.098  21.748  1.00  0.00    -0.357 OA
HETATM   21  H9          0      50.855  52.003  21.106  1.00  0.00     0.218 HD
ENDBRANCH  17  20
BRANCH  18  22
HETATM   22  O11         0      49.945  53.601  23.504  1.00  0.00    -0.357 OA
HETATM   23  H11         0      49.318  53.824  22.826  1.00  0.00     0.218 HD
ENDBRANCH  18  22
ENDBRANCH   4  14
BRANCH   8  24
HETATM   24  O17         0      53.328  52.012  30.347  1.00  0.00    -0.359 OA
HETATM   25  H17         0      52.720  52.494  30.895  1.00  0.00     0.218 HD
ENDBRANCH   8  24
TORSDOF 5
ENDMDL
MODEL 6
REMARK VINA RESULT:      -5.9      3.024      6.643
REMARK  5 active torsions:
REMARK  status: ('A' for Active; 'I' for Inactive)
REMARK    1  A    between atoms: C4_4  and  C5_5 
REMARK    2  A    between atoms: C8_8  and  O9_9 
REMARK    3  A    between atoms: C10_11  and  O11_12 
REMARK    4  A    between atoms: C16_18  and  O17_19 
REMARK    5  A    between atoms: C19_22  and  O20_23 
ROOT
HETATM    1  O1          0      53.199  54.476  26.231  1.00  0.00    -0.286 OA
HETATM    2  C2          0      53.709  54.567  25.081  1.00  0.00     0.201 C 
HETATM    3  C3          0      54.626  55.548  24.742  1.00  0.00     0.067 C 
HETATM    4  C4          0      55.094  55.689  23.441  1.00  0.00     0.103 C 
HETATM    5  O13         0      54.663  54.849  22.516  1.00  0.00    -0.307 OA
HETATM    6  C14         0      53.765  53.924  22.776  1.00  0.00     0.107 C 
HETATM    7  C15         0      53.025  53.321  21.770  1.00  0.00     0.049 C 
HETATM    8  C16         0      51.912  52.540  22.061  1.00  0.00     0.093 C 
HETATM    9  C18         0      51.906  51.978  23.332  1.00  0.00     0.048 C 
HETATM   10  C19         0      52.672  52.528  24.351  1.00  0.00     0.096 C 
HETATM   11  C21         0      53.452  53.624  24.098  1.00  0.00     0.084 C 
ENDROOT
BRANCH  10  12
HETATM   12  O20         0      52.341  52.255  25.674  1.00  0.00    -0.359 OA
HETATM   13  H20         0      52.204  51.348  25.921  1.00  0.00     0.218 HD
ENDBRANCH  10  12
BRANCH   4  14
HETATM   14  C5          0      55.538  57.022  23.029  1.00  0.00     0.025 C 
HETATM   15  C6          0      56.837  57.473  23.215  1.00  0.00     0.004 C 
HETATM   16  C7          0      57.397  58.254  22.209  1.00  0.00     0.026 C 
HETATM   17  C8          0      56.650  58.686  21.119  1.00  0.00     0.112 C 
HETATM   18  C10         0      55.280  58.732  21.337  1.00  0.00     0.112 C 
HETATM   19  C12         0      54.734  57.879  22.288  1.00  0.00     0.028 C 
BRANCH  17  20
HETATM   20  O9          0      57.236  58.842  19.875  1.00  0.00    -0.357 OA
HETATM   21  H9          0      58.167  58.739  19.714  1.00  0.00     0.218 HD
ENDBRANCH  17  20
BRANCH  18  22
HETATM   22  O11         0      54.507  59.331  20.353  1.00  0.00    -0.357 OA
HETATM   23  H11         0      54.890  60.071  19.896  1.00  0.00     0.218 HD
ENDBRANCH  18  22
ENDBRANCH   4  14
BRANCH   8  24
HETATM   24  O17         0      50.755  52.599  21.278  1.00  0.00    -0.359 OA
HETATM   25  H17         0      50.711  53.131  20.492  1.00  0.00     0.218 HD
ENDBRANCH   8  24
TORSDOF 5
ENDMDL
MODEL 7
REMARK VINA RESULT:      -5.8      2.750      6.619
REMARK  5 active torsions:
REMARK  status: ('A' for Active; 'I' for Inactive)
REMARK    1  A    between atoms: C4_4  and  C5_5 
REMARK    2  A    between atoms: C8_8  and  O9_9 
REMARK    3  A    between atoms: C10_11  and  O11_12 
REMARK    4  A    between atoms: C16_18  and  O17_19 
REMARK    5  A    between atoms: C19_22  and  O20_23 
ROOT
HETATM    1  O1          0      53.243  52.747  22.509  1.00  0.00    -0.286 OA
HETATM    2  C2          0      53.506  53.791  23.167  1.00  0.00     0.201 C 
HETATM    3  C3          0      53.907  54.974  22.568  1.00  0.00     0.067 C 
HETATM    4  C4          0      54.290  56.078  23.321  1.00  0.00     0.103 C 
HETATM    5  O13         0      54.248  55.993  24.639  1.00  0.00    -0.307 OA
HETATM    6  C14         0      53.911  54.883  25.258  1.00  0.00     0.107 C 
HETATM    7  C15         0      54.241  54.657  26.587  1.00  0.00     0.049 C 
HETATM    8  C16         0      54.112  53.397  27.158  1.00  0.00     0.093 C 
HETATM    9  C18         0      53.183  52.566  26.544  1.00  0.00     0.048 C 
HETATM   10  C19         0      52.795  52.791  25.230  1.00  0.00     0.096 C 
HETATM   11  C21         0      53.319  53.850  24.539  1.00  0.00     0.084 C 
ENDROOT
BRANCH  10  12
HETATM   12  O20         0      52.232  51.749  24.499  1.00  0.00    -0.359 OA
HETATM   13  H20         0      51.285  51.713  24.434  1.00  0.00     0.218 HD
ENDBRANCH  10  12
BRANCH   4  14
HETATM   14  C5          0      55.232  57.015  22.705  1.00  0.00     0.025 C 
HETATM   15  C6          0      54.824  58.162  22.040  1.00  0.00     0.004 C 
HETATM   16  C7          0      55.597  59.308  22.198  1.00  0.00     0.026 C 
HETATM   17  C8          0      56.807  59.282  22.884  1.00  0.00     0.112 C 
HETATM   18  C10         0      57.412  58.035  22.945  1.00  0.00     0.112 C 
HETATM   19  C12         0      56.606  56.905  22.870  1.00  0.00     0.028 C 
BRANCH  17  20
HETATM   20  O9          0      57.232  60.380  23.612  1.00  0.00    -0.357 OA
HETATM   21  H9          0      58.036  60.398  24.117  1.00  0.00     0.218 HD
ENDBRANCH  17  20
BRANCH  18  22
HETATM   22  O11         0      58.704  57.987  23.450  1.00  0.00    -0.357 OA
HETATM   23  H11         0      59.341  57.483  22.956  1.00  0.00     0.218 HD
ENDBRANCH  18  22
ENDBRANCH   4  14
BRANCH   8  24
HETATM   24  O17         0      55.070  52.899  28.048  1.00  0.00    -0.359 OA
HETATM   25  H17         0      54.839  52.619  28.925  1.00  0.00     0.218 HD
ENDBRANCH   8  24
TORSDOF 5
ENDMDL
MODEL 8
REMARK VINA RESULT:      -5.7      2.100      2.759
REMARK  5 active torsions:
REMARK  status: ('A' for Active; 'I' for Inactive)
REMARK    1  A    between atoms: C4_4  and  C5_5 
REMARK    2  A    between atoms: C8_8  and  O9_9 
REMARK    3  A    between atoms: C10_11  and  O11_12 
REMARK    4  A    between atoms: C16_18  and  O17_19 
REMARK    5  A    between atoms: C19_22  and  O20_23 
ROOT
HETATM    1  O1          0      52.046  57.153  26.154  1.00  0.00    -0.286 OA
HETATM    2  C2          0      52.844  56.209  25.904  1.00  0.00     0.201 C 
HETATM    3  C3          0      53.066  55.162  26.782  1.00  0.00     0.067 C 
HETATM    4  C4          0      54.026  54.189  26.529  1.00  0.00     0.103 C 
HETATM    5  O13         0      54.725  54.264  25.410  1.00  0.00    -0.307 OA
HETATM    6  C14         0      54.580  55.257  24.560  1.00  0.00     0.107 C 
HETATM    7  C15         0      55.553  55.561  23.619  1.00  0.00     0.049 C 
HETATM    8  C16         0      55.517  56.751  22.902  1.00  0.00     0.093 C 
HETATM    9  C18         0      54.257  57.324  22.778  1.00  0.00     0.048 C 
HETATM   10  C19         0      53.247  57.006  23.676  1.00  0.00     0.096 C 
HETATM   11  C21         0      53.488  56.109  24.681  1.00  0.00     0.084 C 
ENDROOT
BRANCH  10  12
HETATM   12  O20         0      52.168  57.874  23.821  1.00  0.00    -0.359 OA
HETATM   13  H20         0      51.378  57.687  23.329  1.00  0.00     0.218 HD
ENDBRANCH  10  12
BRANCH   4  14
HETATM   14  C5          0      54.617  53.514  27.685  1.00  0.00     0.025 C 
HETATM   15  C6          0      54.949  54.180  28.856  1.00  0.00     0.004 C 
HETATM   16  C7          0      54.723  53.520  30.060  1.00  0.00     0.026 C 
HETATM   17  C8          0      54.307  52.193  30.097  1.00  0.00     0.112 C 
HETATM   18  C10         0      54.614  51.457  28.960  1.00  0.00     0.112 C 
HETATM   19  C12         0      54.751  52.133  27.753  1.00  0.00     0.028 C 
BRANCH  17  20
HETATM   20  O9          0      53.474  51.739  31.104  1.00  0.00    -0.357 OA
HETATM   21  H9          0      53.783  51.466  31.961  1.00  0.00     0.218 HD
ENDBRANCH  17  20
BRANCH  18  22
HETATM   22  O11         0      54.392  50.089  29.019  1.00  0.00    -0.357 OA
HETATM   23  H11         0      54.137  49.659  28.210  1.00  0.00     0.218 HD
ENDBRANCH  18  22
ENDBRANCH   4  14
BRANCH   8  24
HETATM   24  O17         0      56.684  57.474  22.630  1.00  0.00    -0.359 OA
HETATM   25  H17         0      56.864  58.306  23.050  1.00  0.00     0.218 HD
ENDBRANCH   8  24
TORSDOF 5
ENDMDL
MODEL 9
REMARK VINA RESULT:      -5.7     13.346     15.497
REMARK  5 active torsions:
REMARK  status: ('A' for Active; 'I' for Inactive)
REMARK    1  A    between atoms: C4_4  and  C5_5 
REMARK    2  A    between atoms: C8_8  and  O9_9 
REMARK    3  A    between atoms: C10_11  and  O11_12 
REMARK    4  A    between atoms: C16_18  and  O17_19 
REMARK    5  A    between atoms: C19_22  and  O20_23 
ROOT
HETATM    1  O1          0      64.116  56.262  35.054  1.00  0.00    -0.286 OA
HETATM    2  C2          0      63.368  55.843  35.980  1.00  0.00     0.201 C 
HETATM    3  C3          0      62.082  56.315  36.177  1.00  0.00     0.067 C 
HETATM    4  C4          0      61.316  55.912  37.265  1.00  0.00     0.103 C 
HETATM    5  O13         0      61.832  55.042  38.116  1.00  0.00    -0.307 OA
HETATM    6  C14         0      63.061  54.592  37.996  1.00  0.00     0.107 C 
HETATM    7  C15         0      63.736  54.016  39.063  1.00  0.00     0.049 C 
HETATM    8  C16         0      65.104  53.777  39.008  1.00  0.00     0.093 C 
HETATM    9  C18         0      65.624  53.637  37.727  1.00  0.00     0.048 C 
HETATM   10  C19         0      64.951  54.160  36.631  1.00  0.00     0.096 C 
HETATM   11  C21         0      63.758  54.805  36.812  1.00  0.00     0.084 C 
ENDROOT
BRANCH  10  12
HETATM   12  O20         0      65.653  54.404  35.455  1.00  0.00    -0.359 OA
HETATM   13  H20         0      65.154  54.538  34.658  1.00  0.00     0.218 HD
ENDBRANCH  10  12
BRANCH   4  14
HETATM   14  C5          0      60.289  56.839  37.741  1.00  0.00     0.025 C 
HETATM   15  C6          0      59.864  57.934  37.003  1.00  0.00     0.004 C 
HETATM   16  C7          0      58.509  58.251  37.041  1.00  0.00     0.026 C 
HETATM   17  C8          0      57.629  57.587  37.888  1.00  0.00     0.112 C 
HETATM   18  C10         0      58.224  56.992  38.993  1.00  0.00     0.112 C 
HETATM   19  C12         0      59.556  56.608  38.898  1.00  0.00     0.028 C 
BRANCH  17  20
HETATM   20  O9          0      56.313  57.375  37.517  1.00  0.00    -0.357 OA
HETATM   21  H9          0      55.967  57.580  36.656  1.00  0.00     0.218 HD
ENDBRANCH  17  20
BRANCH  18  22
HETATM   22  O11         0      57.375  56.481  39.965  1.00  0.00    -0.357 OA
HETATM   23  H11         0      56.453  56.701  39.889  1.00  0.00     0.218 HD
ENDBRANCH  18  22
ENDBRANCH   4  14
BRANCH   8  24
HETATM   24  O17         0      65.928  54.000  40.117  1.00  0.00    -0.359 OA
HETATM   25  H17         0      65.818  54.760  40.676  1.00  0.00     0.218 HD
ENDBRANCH   8  24
TORSDOF 5
ENDMDL
