MODEL 1
REMARK VINA RESULT:      -5.3      0.000      0.000
REMARK  5 active torsions:
REMARK  status: ('A' for Active; 'I' for Inactive)
REMARK    1  A    between atoms: C4_4  and  C5_5 
REMARK    2  A    between atoms: C8_8  and  O9_9 
REMARK    3  A    between atoms: C10_11  and  O11_12 
REMARK    4  A    between atoms: C16_18  and  O17_19 
REMARK    5  A    between atoms: C19_22  and  O20_23 
ROOT
HETATM    1  O1          0      24.120 112.365  13.724  1.00  0.00    -0.286 OA
HETATM    2  C2          0      25.366 112.286  13.905  1.00  0.00     0.201 C 
HETATM    3  C3          0      25.995 111.116  14.297  1.00  0.00     0.067 C 
HETATM    4  C4          0      27.354 111.082  14.589  1.00  0.00     0.103 C 
HETATM    5  O13         0      28.057 112.194  14.466  1.00  0.00    -0.307 OA
HETATM    6  C14         0      27.503 113.339  14.133  1.00  0.00     0.107 C 
HETATM    7  C15         0      28.125 114.553  14.386  1.00  0.00     0.049 C 
HETATM    8  C16         0      27.437 115.755  14.270  1.00  0.00     0.093 C 
HETATM    9  C18         0      26.342 115.724  13.415  1.00  0.00     0.048 C 
HETATM   10  C19         0      25.724 114.520  13.103  1.00  0.00     0.096 C 
HETATM   11  C21         0      26.207 113.353  13.628  1.00  0.00     0.084 C 
ENDROOT
BRANCH  10  12
HETATM   12  O20         0      24.417 114.530  12.627  1.00  0.00    -0.359 OA
HETATM   13  H20         0      24.068 115.350  12.299  1.00  0.00     0.218 HD
ENDBRANCH  10  12
BRANCH   4  14
HETATM   14  C5          0      27.811 110.059  15.531  1.00  0.00     0.025 C 
HETATM   15  C6          0      27.759 108.701  15.250  1.00  0.00     0.004 C 
HETATM   16  C7          0      28.818 107.912  15.687  1.00  0.00     0.026 C 
HETATM   17  C8          0      29.828 108.427  16.492  1.00  0.00     0.112 C 
HETATM   18  C10         0      29.473 109.557  17.216  1.00  0.00     0.112 C 
HETATM   19  C12         0      28.469 110.376  16.712  1.00  0.00     0.028 C 
BRANCH  17  20
HETATM   20  O9          0      31.125 107.956  16.390  1.00  0.00    -0.357 OA
HETATM   21  H9          0      31.437 107.419  15.671  1.00  0.00     0.218 HD
ENDBRANCH  17  20
BRANCH  18  22
HETATM   22  O11         0      30.375 110.000  18.173  1.00  0.00    -0.357 OA
HETATM   23  H11         0      30.570 109.405  18.887  1.00  0.00     0.218 HD
ENDBRANCH  18  22
ENDBRANCH   4  14
BRANCH   8  24
HETATM   24  O17         0      27.624 116.794  15.188  1.00  0.00    -0.359 OA
HETATM   25  H17         0      27.833 117.677  14.907  1.00  0.00     0.218 HD
ENDBRANCH   8  24
TORSDOF 5
ENDMDL
MODEL 2
REMARK VINA RESULT:      -5.2      3.595      7.171
REMARK  5 active torsions:
REMARK  status: ('A' for Active; 'I' for Inactive)
REMARK    1  A    between atoms: C4_4  and  C5_5 
REMARK    2  A    between atoms: C8_8  and  O9_9 
REMARK    3  A    between atoms: C10_11  and  O11_12 
REMARK    4  A    between atoms: C16_18  and  O17_19 
REMARK    5  A    between atoms: C19_22  and  O20_23 
ROOT
HETATM    1  O1          0      26.295 111.314  13.002  1.00  0.00    -0.286 OA
HETATM    2  C2          0      25.486 112.282  13.018  1.00  0.00     0.201 C 
HETATM    3  C3          0      24.143 112.143  12.711  1.00  0.00     0.067 C 
HETATM    4  C4          0      23.295 113.242  12.636  1.00  0.00     0.103 C 
HETATM    5  O13         0      23.788 114.442  12.885  1.00  0.00    -0.307 OA
HETATM    6  C14         0      25.063 114.634  13.144  1.00  0.00     0.107 C 
HETATM    7  C15         0      25.656 115.881  13.011  1.00  0.00     0.049 C 
HETATM    8  C16         0      27.038 116.029  13.036  1.00  0.00     0.093 C 
HETATM    9  C18         0      27.724 115.025  13.708  1.00  0.00     0.048 C 
HETATM   10  C19         0      27.141 113.780  13.900  1.00  0.00     0.096 C 
HETATM   11  C21         0      25.875 113.544  13.439  1.00  0.00     0.084 C 
ENDROOT
BRANCH  10  12
HETATM   12  O20         0      27.955 112.682  14.164  1.00  0.00    -0.359 OA
HETATM   13  H20         0      28.464 112.323  13.448  1.00  0.00     0.218 HD
ENDBRANCH  10  12
BRANCH   4  14
HETATM   14  C5          0      22.126 113.127  11.762  1.00  0.00     0.025 C 
HETATM   15  C6          0      21.768 114.112  10.853  1.00  0.00     0.004 C 
HETATM   16  C7          0      21.273 113.701   9.619  1.00  0.00     0.026 C 
HETATM   17  C8          0      21.016 112.362   9.346  1.00  0.00     0.112 C 
HETATM   18  C10         0      20.799 111.573  10.467  1.00  0.00     0.112 C 
HETATM   19  C12         0      21.376 111.962  11.670  1.00  0.00     0.028 C 
BRANCH  17  20
HETATM   20  O9          0      21.182 111.855   8.069  1.00  0.00    -0.357 OA
HETATM   21  H9          0      21.506 112.366   7.336  1.00  0.00     0.218 HD
ENDBRANCH  17  20
BRANCH  18  22
HETATM   22  O11         0      20.354 110.277  10.247  1.00  0.00    -0.357 OA
HETATM   23  H11         0      20.531 109.901   9.392  1.00  0.00     0.218 HD
ENDBRANCH  18  22
ENDBRANCH   4  14
BRANCH   8  24
HETATM   24  O17         0      27.692 116.918  12.174  1.00  0.00    -0.359 OA
HETATM   25  H17         0      27.423 117.825  12.096  1.00  0.00     0.218 HD
ENDBRANCH   8  24
TORSDOF 5
ENDMDL
MODEL 3
REMARK VINA RESULT:      -5.2      2.260      6.535
REMARK  5 active torsions:
REMARK  status: ('A' for Active; 'I' for Inactive)
REMARK    1  A    between atoms: C4_4  and  C5_5 
REMARK    2  A    between atoms: C8_8  and  O9_9 
REMARK    3  A    between atoms: C10_11  and  O11_12 
REMARK    4  A    between atoms: C16_18  and  O17_19 
REMARK    5  A    between atoms: C19_22  and  O20_23 
ROOT
HETATM    1  O1          0      28.066 111.058  16.014  1.00  0.00    -0.286 OA
HETATM    2  C2          0      27.426 111.588  15.065  1.00  0.00     0.201 C 
HETATM    3  C3          0      27.713 112.853  14.581  1.00  0.00     0.067 C 
HETATM    4  C4          0      26.928 113.454  13.604  1.00  0.00     0.103 C 
HETATM    5  O13         0      25.896 112.786  13.118  1.00  0.00    -0.307 OA
HETATM    6  C14         0      25.558 111.598  13.570  1.00  0.00     0.107 C 
HETATM    7  C15         0      24.289 111.075  13.369  1.00  0.00     0.049 C 
HETATM    8  C16         0      23.856 109.947  14.056  1.00  0.00     0.093 C 
HETATM    9  C18         0      24.870 109.106  14.501  1.00  0.00     0.048 C 
HETATM   10  C19         0      26.162 109.586  14.668  1.00  0.00     0.096 C 
HETATM   11  C21         0      26.444 110.893  14.376  1.00  0.00     0.084 C 
ENDROOT
BRANCH  10  12
HETATM   12  O20         0      27.040 108.899  15.500  1.00  0.00    -0.359 OA
HETATM   13  H20         0      26.818 108.009  15.744  1.00  0.00     0.218 HD
ENDBRANCH  10  12
BRANCH   4  14
HETATM   14  C5          0      26.894 114.918  13.579  1.00  0.00     0.025 C 
HETATM   15  C6          0      26.118 115.667  14.451  1.00  0.00     0.004 C 
HETATM   16  C7          0      26.659 116.852  14.940  1.00  0.00     0.026 C 
HETATM   17  C8          0      27.874 117.345  14.476  1.00  0.00     0.112 C 
HETATM   18  C10         0      28.237 116.897  13.213  1.00  0.00     0.112 C 
HETATM   19  C12         0      27.750 115.668  12.783  1.00  0.00     0.028 C 
BRANCH  17  20
HETATM   20  O9          0      28.721 118.048  15.314  1.00  0.00    -0.357 OA
HETATM   21  H9          0      28.427 118.522  16.084  1.00  0.00     0.218 HD
ENDBRANCH  17  20
BRANCH  18  22
HETATM   22  O11         0      29.340 117.500  12.625  1.00  0.00    -0.357 OA
HETATM   23  H11         0      29.302 118.442  12.506  1.00  0.00     0.218 HD
ENDBRANCH  18  22
ENDBRANCH   4  14
BRANCH   8  24
HETATM   24  O17         0      22.550 109.848  14.548  1.00  0.00    -0.359 OA
HETATM   25  H17         0      21.804 109.760  13.967  1.00  0.00     0.218 HD
ENDBRANCH   8  24
TORSDOF 5
ENDMDL
MODEL 4
REMARK VINA RESULT:      -5.2      3.515      5.989
REMARK  5 active torsions:
REMARK  status: ('A' for Active; 'I' for Inactive)
REMARK    1  A    between atoms: C4_4  and  C5_5 
REMARK    2  A    between atoms: C8_8  and  O9_9 
REMARK    3  A    between atoms: C10_11  and  O11_12 
REMARK    4  A    between atoms: C16_18  and  O17_19 
REMARK    5  A    between atoms: C19_22  and  O20_23 
ROOT
HETATM    1  O1          0      27.339 112.268  14.368  1.00  0.00    -0.286 OA
HETATM    2  C2          0      27.175 113.458  13.983  1.00  0.00     0.201 C 
HETATM    3  C3          0      28.129 114.444  14.166  1.00  0.00     0.067 C 
HETATM    4  C4          0      27.882 115.769  13.826  1.00  0.00     0.103 C 
HETATM    5  O13         0      26.712 116.081  13.297  1.00  0.00    -0.307 OA
HETATM    6  C14         0      25.758 115.191  13.136  1.00  0.00     0.107 C 
HETATM    7  C15         0      24.432 115.563  12.969  1.00  0.00     0.049 C 
HETATM    8  C16         0      23.404 114.631  13.056  1.00  0.00     0.093 C 
HETATM    9  C18         0      23.776 113.320  12.783  1.00  0.00     0.048 C 
HETATM   10  C19         0      25.102 112.925  12.895  1.00  0.00     0.096 C 
HETATM   11  C21         0      26.054 113.838  13.261  1.00  0.00     0.084 C 
ENDROOT
BRANCH  10  12
HETATM   12  O20         0      25.399 111.575  13.051  1.00  0.00    -0.359 OA
HETATM   13  H20         0      24.859 110.944  12.590  1.00  0.00     0.218 HD
ENDBRANCH  10  12
BRANCH   4  14
HETATM   14  C5          0      28.621 116.798  14.560  1.00  0.00     0.025 C 
HETATM   15  C6          0      28.003 117.705  15.409  1.00  0.00     0.004 C 
HETATM   16  C7          0      28.669 118.045  16.583  1.00  0.00     0.026 C 
HETATM   17  C8          0      29.963 117.606  16.841  1.00  0.00     0.112 C 
HETATM   18  C10         0      30.696 117.267  15.712  1.00  0.00     0.112 C 
HETATM   19  C12         0      30.009 116.848  14.579  1.00  0.00     0.028 C 
BRANCH  17  20
HETATM   20  O9          0      30.375 117.338  18.134  1.00  0.00    -0.357 OA
HETATM   21  H9          0      31.232 116.991  18.354  1.00  0.00     0.218 HD
ENDBRANCH  17  20
BRANCH  18  22
HETATM   22  O11         0      32.046 117.004  15.895  1.00  0.00    -0.357 OA
HETATM   23  H11         0      32.475 116.474  15.233  1.00  0.00     0.218 HD
ENDBRANCH  18  22
ENDBRANCH   4  14
BRANCH   8  24
HETATM   24  O17         0      22.195 114.936  13.691  1.00  0.00    -0.359 OA
HETATM   25  H17         0      22.160 115.168  14.611  1.00  0.00     0.218 HD
ENDBRANCH   8  24
TORSDOF 5
ENDMDL
MODEL 5
REMARK VINA RESULT:      -5.1      1.553      2.997
REMARK  5 active torsions:
REMARK  status: ('A' for Active; 'I' for Inactive)
REMARK    1  A    between atoms: C4_4  and  C5_5 
REMARK    2  A    between atoms: C8_8  and  O9_9 
REMARK    3  A    between atoms: C10_11  and  O11_12 
REMARK    4  A    between atoms: C16_18  and  O17_19 
REMARK    5  A    between atoms: C19_22  and  O20_23 
ROOT
HETATM    1  O1          0      28.155 113.881  14.242  1.00  0.00    -0.286 OA
HETATM    2  C2          0      27.345 112.974  14.577  1.00  0.00     0.201 C 
HETATM    3  C3          0      27.683 111.949  15.444  1.00  0.00     0.067 C 
HETATM    4  C4          0      26.806 110.906  15.717  1.00  0.00     0.103 C 
HETATM    5  O13         0      25.615 110.912  15.145  1.00  0.00    -0.307 OA
HETATM    6  C14         0      25.257 111.841  14.285  1.00  0.00     0.107 C 
HETATM    7  C15         0      24.208 111.650  13.397  1.00  0.00     0.049 C 
HETATM    8  C16         0      23.998 112.516  12.331  1.00  0.00     0.093 C 
HETATM    9  C18         0      24.508 113.797  12.507  1.00  0.00     0.048 C 
HETATM   10  C19         0      25.526 114.032  13.421  1.00  0.00     0.096 C 
HETATM   11  C21         0      26.021 112.997  14.167  1.00  0.00     0.084 C 
ENDROOT
BRANCH  10  12
HETATM   12  O20         0      26.312 115.173  13.286  1.00  0.00    -0.359 OA
HETATM   13  H20         0      27.010 115.159  12.642  1.00  0.00     0.218 HD
ENDBRANCH  10  12
BRANCH   4  14
HETATM   14  C5          0      27.392 109.623  16.110  1.00  0.00     0.025 C 
HETATM   15  C6          0      26.747 108.410  15.915  1.00  0.00     0.004 C 
HETATM   16  C7          0      27.525 107.321  15.535  1.00  0.00     0.026 C 
HETATM   17  C8          0      28.912 107.398  15.480  1.00  0.00     0.112 C 
HETATM   18  C10         0      29.469 108.392  16.274  1.00  0.00     0.112 C 
HETATM   19  C12         0      28.698 109.511  16.569  1.00  0.00     0.028 C 
BRANCH  17  20
HETATM   20  O9          0      29.626 106.674  14.543  1.00  0.00    -0.357 OA
HETATM   21  H9          0      29.875 105.764  14.656  1.00  0.00     0.218 HD
ENDBRANCH  17  20
BRANCH  18  22
HETATM   22  O11         0      30.850 108.392  16.405  1.00  0.00    -0.357 OA
HETATM   23  H11         0      31.242 107.640  16.834  1.00  0.00     0.218 HD
ENDBRANCH  18  22
ENDBRANCH   4  14
BRANCH   8  24
HETATM   24  O17         0      23.615 112.043  11.071  1.00  0.00    -0.359 OA
HETATM   25  H17         0      23.802 112.530  10.277  1.00  0.00     0.218 HD
ENDBRANCH   8  24
TORSDOF 5
ENDMDL
MODEL 6
REMARK VINA RESULT:      -4.9      2.039      3.648
REMARK  5 active torsions:
REMARK  status: ('A' for Active; 'I' for Inactive)
REMARK    1  A    between atoms: C4_4  and  C5_5 
REMARK    2  A    between atoms: C8_8  and  O9_9 
REMARK    3  A    between atoms: C10_11  and  O11_12 
REMARK    4  A    between atoms: C16_18  and  O17_19 
REMARK    5  A    between atoms: C19_22  and  O20_23 
ROOT
HETATM    1  O1          0      28.354 116.092  12.433  1.00  0.00    -0.286 OA
HETATM    2  C2          0      27.469 115.659  13.221  1.00  0.00     0.201 C 
HETATM    3  C3          0      27.659 114.549  14.027  1.00  0.00     0.067 C 
HETATM    4  C4          0      26.632 114.033  14.809  1.00  0.00     0.103 C 
HETATM    5  O13         0      25.456 114.636  14.792  1.00  0.00    -0.307 OA
HETATM    6  C14         0      25.212 115.670  14.018  1.00  0.00     0.107 C 
HETATM    7  C15         0      23.918 116.051  13.692  1.00  0.00     0.049 C 
HETATM    8  C16         0      23.669 116.972  12.682  1.00  0.00     0.093 C 
HETATM    9  C18         0      24.716 117.846  12.414  1.00  0.00     0.048 C 
HETATM   10  C19         0      26.018 117.517  12.768  1.00  0.00     0.096 C 
HETATM   11  C21         0      26.270 116.331  13.402  1.00  0.00     0.084 C 
ENDROOT
BRANCH  10  12
HETATM   12  O20         0      27.078 118.154  12.131  1.00  0.00    -0.359 OA
HETATM   13  H20         0      27.687 118.648  12.666  1.00  0.00     0.218 HD
ENDBRANCH  10  12
BRANCH   4  14
HETATM   14  C5          0      26.688 112.606  15.131  1.00  0.00     0.025 C 
HETATM   15  C6          0      26.390 111.615  14.206  1.00  0.00     0.004 C 
HETATM   16  C7          0      27.161 110.457  14.232  1.00  0.00     0.026 C 
HETATM   17  C8          0      28.107 110.232  15.226  1.00  0.00     0.112 C 
HETATM   18  C10         0      27.888 110.935  16.404  1.00  0.00     0.112 C 
HETATM   19  C12         0      27.187 112.133  16.337  1.00  0.00     0.028 C 
BRANCH  17  20
HETATM   20  O9          0      29.267 109.530  14.955  1.00  0.00    -0.357 OA
HETATM   21  H9          0      29.463 109.140  14.111  1.00  0.00     0.218 HD
ENDBRANCH  17  20
BRANCH  18  22
HETATM   22  O11         0      28.688 110.607  17.489  1.00  0.00    -0.357 OA
HETATM   23  H11         0      29.455 110.075  17.312  1.00  0.00     0.218 HD
ENDBRANCH  18  22
ENDBRANCH   4  14
BRANCH   8  24
HETATM   24  O17         0      22.600 116.810  11.794  1.00  0.00    -0.359 OA
HETATM   25  H17         0      22.740 116.662  10.867  1.00  0.00     0.218 HD
ENDBRANCH   8  24
TORSDOF 5
ENDMDL
MODEL 7
REMARK VINA RESULT:      -4.9      3.011      6.027
REMARK  5 active torsions:
REMARK  status: ('A' for Active; 'I' for Inactive)
REMARK    1  A    between atoms: C4_4  and  C5_5 
REMARK    2  A    between atoms: C8_8  and  O9_9 
REMARK    3  A    between atoms: C10_11  and  O11_12 
REMARK    4  A    between atoms: C16_18  and  O17_19 
REMARK    5  A    between atoms: C19_22  and  O20_23 
ROOT
HETATM    1  O1          0      30.648 109.632  18.604  1.00  0.00    -0.286 OA
HETATM    2  C2          0      30.032 108.970  17.724  1.00  0.00     0.201 C 
HETATM    3  C3          0      30.366 107.668  17.394  1.00  0.00     0.067 C 
HETATM    4  C4          0      29.739 106.997  16.350  1.00  0.00     0.103 C 
HETATM    5  O13         0      28.788 107.620  15.676  1.00  0.00    -0.307 OA
HETATM    6  C14         0      28.459 108.868  15.923  1.00  0.00     0.107 C 
HETATM    7  C15         0      27.776 109.642  14.996  1.00  0.00     0.049 C 
HETATM    8  C16         0      27.655 111.017  15.153  1.00  0.00     0.093 C 
HETATM    9  C18         0      27.759 111.470  16.462  1.00  0.00     0.048 C 
HETATM   10  C19         0      28.395 110.700  17.427  1.00  0.00     0.096 C 
HETATM   11  C21         0      28.909 109.478  17.089  1.00  0.00     0.084 C 
ENDROOT
BRANCH  10  12
HETATM   12  O20         0      28.875 111.314  18.580  1.00  0.00    -0.359 OA
HETATM   13  H20         0      29.810 111.288  18.742  1.00  0.00     0.218 HD
ENDBRANCH  10  12
BRANCH   4  14
HETATM   14  C5          0      30.498 105.937  15.683  1.00  0.00     0.025 C 
HETATM   15  C6          0      31.755 105.532  16.106  1.00  0.00     0.004 C 
HETATM   16  C7          0      32.049 104.174  16.044  1.00  0.00     0.026 C 
HETATM   17  C8          0      31.176 103.264  15.457  1.00  0.00     0.112 C 
HETATM   18  C10         0      30.297 103.817  14.535  1.00  0.00     0.112 C 
HETATM   19  C12         0      29.954 105.157  14.671  1.00  0.00     0.028 C 
BRANCH  17  20
HETATM   20  O9          0      31.076 101.969  15.933  1.00  0.00    -0.357 OA
HETATM   21  H9          0      30.801 101.231  15.401  1.00  0.00     0.218 HD
ENDBRANCH  17  20
BRANCH  18  22
HETATM   22  O11         0      29.536 102.932  13.784  1.00  0.00    -0.357 OA
HETATM   23  H11         0      29.580 102.014  14.026  1.00  0.00     0.218 HD
ENDBRANCH  18  22
ENDBRANCH   4  14
BRANCH   8  24
HETATM   24  O17         0      27.764 111.888  14.062  1.00  0.00    -0.359 OA
HETATM   25  H17         0      28.568 112.357  13.876  1.00  0.00     0.218 HD
ENDBRANCH   8  24
TORSDOF 5
ENDMDL
MODEL 8
REMARK VINA RESULT:      -4.9      6.977      9.881
REMARK  5 active torsions:
REMARK  status: ('A' for Active; 'I' for Inactive)
REMARK    1  A    between atoms: C4_4  and  C5_5 
REMARK    2  A    between atoms: C8_8  and  O9_9 
REMARK    3  A    between atoms: C10_11  and  O11_12 
REMARK    4  A    between atoms: C16_18  and  O17_19 
REMARK    5  A    between atoms: C19_22  and  O20_23 
ROOT
HETATM    1  O1          0      30.943 107.365  16.530  1.00  0.00    -0.286 OA
HETATM    2  C2          0      30.761 106.268  15.935  1.00  0.00     0.201 C 
HETATM    3  C3          0      29.620 105.991  15.202  1.00  0.00     0.067 C 
HETATM    4  C4          0      29.399 104.738  14.642  1.00  0.00     0.103 C 
HETATM    5  O13         0      30.316 103.801  14.803  1.00  0.00    -0.307 OA
HETATM    6  C14         0      31.400 103.999  15.521  1.00  0.00     0.107 C 
HETATM    7  C15         0      32.148 102.943  16.022  1.00  0.00     0.049 C 
HETATM    8  C16         0      33.132 103.147  16.982  1.00  0.00     0.093 C 
HETATM    9  C18         0      33.673 104.427  17.004  1.00  0.00     0.048 C 
HETATM   10  C19         0      32.972 105.499  16.469  1.00  0.00     0.096 C 
HETATM   11  C21         0      31.745 105.291  15.900  1.00  0.00     0.084 C 
ENDROOT
BRANCH  10  12
HETATM   12  O20         0      33.295 106.791  16.871  1.00  0.00    -0.359 OA
HETATM   13  H20         0      33.758 106.899  17.693  1.00  0.00     0.218 HD
ENDBRANCH  10  12
BRANCH   4  14
HETATM   14  C5          0      28.008 104.334  14.432  1.00  0.00     0.025 C 
HETATM   15  C6          0      26.937 105.193  14.634  1.00  0.00     0.004 C 
HETATM   16  C7          0      25.870 105.113  13.744  1.00  0.00     0.026 C 
HETATM   17  C8          0      25.807 104.124  12.768  1.00  0.00     0.112 C 
HETATM   18  C10         0      26.552 102.986  13.046  1.00  0.00     0.112 C 
HETATM   19  C12         0      27.664 103.111  13.871  1.00  0.00     0.028 C 
BRANCH  17  20
HETATM   20  O9          0      25.215 104.375  11.543  1.00  0.00    -0.357 OA
HETATM   21  H9          0      25.068 103.708  10.882  1.00  0.00     0.218 HD
ENDBRANCH  17  20
BRANCH  18  22
HETATM   22  O11         0      26.377 101.898  12.203  1.00  0.00    -0.357 OA
HETATM   23  H11         0      27.160 101.519  11.822  1.00  0.00     0.218 HD
ENDBRANCH  18  22
ENDBRANCH   4  14
BRANCH   8  24
HETATM   24  O17         0      33.312 102.253  18.043  1.00  0.00    -0.359 OA
HETATM   25  H17         0      33.560 101.348  17.896  1.00  0.00     0.218 HD
ENDBRANCH   8  24
TORSDOF 5
ENDMDL
MODEL 9
REMARK VINA RESULT:      -4.8      1.764      2.777
REMARK  5 active torsions:
REMARK  status: ('A' for Active; 'I' for Inactive)
REMARK    1  A    between atoms: C4_4  and  C5_5 
REMARK    2  A    between atoms: C8_8  and  O9_9 
REMARK    3  A    between atoms: C10_11  and  O11_12 
REMARK    4  A    between atoms: C16_18  and  O17_19 
REMARK    5  A    between atoms: C19_22  and  O20_23 
ROOT
HETATM    1  O1          0      26.887 115.615  17.785  1.00  0.00    -0.286 OA
HETATM    2  C2          0      26.824 114.925  16.730  1.00  0.00     0.201 C 
HETATM    3  C3          0      26.677 113.548  16.742  1.00  0.00     0.067 C 
HETATM    4  C4          0      26.714 112.802  15.570  1.00  0.00     0.103 C 
HETATM    5  O13         0      26.874 113.433  14.420  1.00  0.00    -0.307 OA
HETATM    6  C14         0      27.056 114.734  14.356  1.00  0.00     0.107 C 
HETATM    7  C15         0      27.612 115.340  13.239  1.00  0.00     0.049 C 
HETATM    8  C16         0      28.035 116.663  13.271  1.00  0.00     0.093 C 
HETATM    9  C18         0      27.412 117.456  14.228  1.00  0.00     0.048 C 
HETATM   10  C19         0      26.805 116.878  15.335  1.00  0.00     0.096 C 
HETATM   11  C21         0      26.805 115.518  15.477  1.00  0.00     0.084 C 
ENDROOT
BRANCH  10  12
HETATM   12  O20         0      26.581 117.653  16.469  1.00  0.00    -0.359 OA
HETATM   13  H20         0      26.212 117.227  17.233  1.00  0.00     0.218 HD
ENDBRANCH  10  12
BRANCH   4  14
HETATM   14  C5          0      27.154 111.409  15.676  1.00  0.00     0.025 C 
HETATM   15  C6          0      27.542 110.657  14.577  1.00  0.00     0.004 C 
HETATM   16  C7          0      28.613 109.784  14.740  1.00  0.00     0.026 C 
HETATM   17  C8          0      29.192 109.564  15.985  1.00  0.00     0.112 C 
HETATM   18  C10         0      28.367 109.844  17.066  1.00  0.00     0.112 C 
HETATM   19  C12         0      27.358 110.785  16.900  1.00  0.00     0.028 C 
BRANCH  17  20
HETATM   20  O9          0      30.545 109.296  16.099  1.00  0.00    -0.357 OA
HETATM   21  H9          0      31.147 109.292  15.364  1.00  0.00     0.218 HD
ENDBRANCH  17  20
BRANCH  18  22
HETATM   22  O11         0      28.825 109.466  18.320  1.00  0.00    -0.357 OA
HETATM   23  H11         0      28.740 110.104  19.019  1.00  0.00     0.218 HD
ENDBRANCH  18  22
ENDBRANCH   4  14
BRANCH   8  24
HETATM   24  O17         0      29.215 117.068  12.636  1.00  0.00    -0.359 OA
HETATM   25  H17         0      30.041 116.625  12.789  1.00  0.00     0.218 HD
ENDBRANCH   8  24
TORSDOF 5
ENDMDL
