MODEL 1
REMARK VINA RESULT:      -3.0      0.000      0.000
REMARK  5 active torsions:
REMARK  status: ('A' for Active; 'I' for Inactive)
REMARK    1  A    between atoms: C4_4  and  C5_5 
REMARK    2  A    between atoms: C8_8  and  O9_9 
REMARK    3  A    between atoms: C10_11  and  O11_12 
REMARK    4  A    between atoms: C16_18  and  O17_19 
REMARK    5  A    between atoms: C19_22  and  O20_23 
ROOT
HETATM    1  O1          0      49.875  98.381  -2.669  1.00  0.00    -0.286 OA
HETATM    2  C2          0      50.359  97.745  -1.694  1.00  0.00     0.201 C 
HETATM    3  C3          0      50.365  96.362  -1.628  1.00  0.00     0.067 C 
HETATM    4  C4          0      50.812  95.688  -0.497  1.00  0.00     0.103 C 
HETATM    5  O13         0      51.257  96.393   0.527  1.00  0.00    -0.307 OA
HETATM    6  C14         0      51.239  97.708   0.532  1.00  0.00     0.107 C 
HETATM    7  C15         0      51.318  98.436   1.710  1.00  0.00     0.049 C 
HETATM    8  C16         0      51.043  99.798   1.737  1.00  0.00     0.093 C 
HETATM    9  C18         0      51.218 100.455   0.526  1.00  0.00     0.048 C 
HETATM   10  C19         0      51.191  99.751  -0.670  1.00  0.00     0.096 C 
HETATM   11  C21         0      51.008  98.395  -0.655  1.00  0.00     0.084 C 
ENDROOT
BRANCH  10  12
HETATM   12  O20         0      50.929 100.431  -1.855  1.00  0.00    -0.359 OA
HETATM   13  H20         0      51.043 101.374  -1.862  1.00  0.00     0.218 HD
ENDBRANCH  10  12
BRANCH   4  14
HETATM   14  C5          0      50.255  94.356  -0.248  1.00  0.00     0.025 C 
HETATM   15  C6          0      50.148  93.389  -1.236  1.00  0.00     0.004 C 
HETATM   16  C7          0      50.404  92.069  -0.877  1.00  0.00     0.026 C 
HETATM   17  C8          0      50.626  91.704   0.446  1.00  0.00     0.112 C 
HETATM   18  C10         0      50.098  92.579   1.386  1.00  0.00     0.112 C 
HETATM   19  C12         0      49.933  93.911   1.028  1.00  0.00     0.028 C 
BRANCH  17  20
HETATM   20  O9          0      51.487  90.667   0.760  1.00  0.00    -0.357 OA
HETATM   21  H9          0      52.352  90.566   0.380  1.00  0.00     0.218 HD
ENDBRANCH  17  20
BRANCH  18  22
HETATM   22  O11         0      50.126  92.169   2.711  1.00  0.00    -0.357 OA
HETATM   23  H11         0      50.331  92.830   3.362  1.00  0.00     0.218 HD
ENDBRANCH  18  22
ENDBRANCH   4  14
BRANCH   8  24
HETATM   24  O17         0      50.332 100.378   2.793  1.00  0.00    -0.359 OA
HETATM   25  H17         0      50.658 101.141   3.255  1.00  0.00     0.218 HD
ENDBRANCH   8  24
TORSDOF 5
ENDMDL
MODEL 2
REMARK VINA RESULT:      -2.8      3.284      4.181
REMARK  5 active torsions:
REMARK  status: ('A' for Active; 'I' for Inactive)
REMARK    1  A    between atoms: C4_4  and  C5_5 
REMARK    2  A    between atoms: C8_8  and  O9_9 
REMARK    3  A    between atoms: C10_11  and  O11_12 
REMARK    4  A    between atoms: C16_18  and  O17_19 
REMARK    5  A    between atoms: C19_22  and  O20_23 
ROOT
HETATM    1  O1          0      50.088 100.729  -3.768  1.00  0.00    -0.286 OA
HETATM    2  C2          0      50.866  99.958  -3.143  1.00  0.00     0.201 C 
HETATM    3  C3          0      51.460  98.853  -3.729  1.00  0.00     0.067 C 
HETATM    4  C4          0      52.230  97.962  -2.991  1.00  0.00     0.103 C 
HETATM    5  O13         0      52.412  98.195  -1.703  1.00  0.00    -0.307 OA
HETATM    6  C14         0      51.841  99.208  -1.089  1.00  0.00     0.107 C 
HETATM    7  C15         0      51.692  99.238   0.290  1.00  0.00     0.049 C 
HETATM    8  C16         0      50.872 100.174   0.908  1.00  0.00     0.093 C 
HETATM    9  C18         0      50.663 101.341   0.183  1.00  0.00     0.048 C 
HETATM   10  C19         0      50.848 101.359  -1.193  1.00  0.00     0.096 C 
HETATM   11  C21         0      51.255 100.223  -1.839  1.00  0.00     0.084 C 
ENDROOT
BRANCH  10  12
HETATM   12  O20         0      50.237 102.355  -1.948  1.00  0.00    -0.359 OA
HETATM   13  H20         0      49.645 102.088  -2.642  1.00  0.00     0.218 HD
ENDBRANCH  10  12
BRANCH   4  14
HETATM   14  C5          0      52.307  96.583  -3.475  1.00  0.00     0.025 C 
HETATM   15  C6          0      52.398  95.491  -2.624  1.00  0.00     0.004 C 
HETATM   16  C7          0      51.699  94.340  -2.975  1.00  0.00     0.026 C 
HETATM   17  C8          0      51.042  94.230  -4.196  1.00  0.00     0.112 C 
HETATM   18  C10         0      51.525  95.068  -5.192  1.00  0.00     0.112 C 
HETATM   19  C12         0      52.144  96.254  -4.815  1.00  0.00     0.028 C 
BRANCH  17  20
HETATM   20  O9          0      49.875  93.495  -4.309  1.00  0.00    -0.357 OA
HETATM   21  H9          0      49.195  93.479  -3.646  1.00  0.00     0.218 HD
ENDBRANCH  17  20
BRANCH  18  22
HETATM   22  O11         0      51.035  94.867  -6.475  1.00  0.00    -0.357 OA
HETATM   23  H11         0      50.120  95.074  -6.623  1.00  0.00     0.218 HD
ENDBRANCH  18  22
ENDBRANCH   4  14
BRANCH   8  24
HETATM   24  O17         0      50.062  99.829   1.996  1.00  0.00    -0.359 OA
HETATM   25  H17         0      50.432  99.520   2.815  1.00  0.00     0.218 HD
ENDBRANCH   8  24
TORSDOF 5
ENDMDL
MODEL 3
REMARK VINA RESULT:      -2.7      3.563      6.520
REMARK  5 active torsions:
REMARK  status: ('A' for Active; 'I' for Inactive)
REMARK    1  A    between atoms: C4_4  and  C5_5 
REMARK    2  A    between atoms: C8_8  and  O9_9 
REMARK    3  A    between atoms: C10_11  and  O11_12 
REMARK    4  A    between atoms: C16_18  and  O17_19 
REMARK    5  A    between atoms: C19_22  and  O20_23 
ROOT
HETATM    1  O1          0      51.827 100.725   5.379  1.00  0.00    -0.286 OA
HETATM    2  C2          0      51.242 100.923   4.279  1.00  0.00     0.201 C 
HETATM    3  C3          0      51.251 100.000   3.248  1.00  0.00     0.067 C 
HETATM    4  C4          0      50.686 100.285   2.010  1.00  0.00     0.103 C 
HETATM    5  O13         0      50.112 101.461   1.830  1.00  0.00    -0.307 OA
HETATM    6  C14         0      50.109 102.388   2.764  1.00  0.00     0.107 C 
HETATM    7  C15         0      49.880 103.724   2.467  1.00  0.00     0.049 C 
HETATM    8  C16         0      50.128 104.723   3.400  1.00  0.00     0.093 C 
HETATM    9  C18         0      50.086 104.310   4.727  1.00  0.00     0.048 C 
HETATM   10  C19         0      50.264 102.973   5.056  1.00  0.00     0.096 C 
HETATM   11  C21         0      50.466 102.052   4.065  1.00  0.00     0.084 C 
ENDROOT
BRANCH  10  12
HETATM   12  O20         0      50.652 102.637   6.349  1.00  0.00    -0.359 OA
HETATM   13  H20         0      50.741 101.716   6.561  1.00  0.00     0.218 HD
ENDBRANCH  10  12
BRANCH   4  14
HETATM   14  C5          0      51.231  99.581   0.847  1.00  0.00     0.025 C 
HETATM   15  C6          0      51.654  98.261   0.898  1.00  0.00     0.004 C 
HETATM   16  C7          0      51.388  97.456  -0.205  1.00  0.00     0.026 C 
HETATM   17  C8          0      50.840  97.977  -1.373  1.00  0.00     0.112 C 
HETATM   18  C10         0      51.045  99.338  -1.553  1.00  0.00     0.112 C 
HETATM   19  C12         0      51.224 100.133  -0.427  1.00  0.00     0.028 C 
BRANCH  17  20
HETATM   20  O9          0      49.988  97.218  -2.155  1.00  0.00    -0.357 OA
HETATM   21  H9          0      49.139  97.520  -2.458  1.00  0.00     0.218 HD
ENDBRANCH  17  20
BRANCH  18  22
HETATM   22  O11         0      50.686  99.870  -2.783  1.00  0.00    -0.357 OA
HETATM   23  H11         0      51.100  99.494  -3.552  1.00  0.00     0.218 HD
ENDBRANCH  18  22
ENDBRANCH   4  14
BRANCH   8  24
HETATM   24  O17         0      50.701 105.944   3.027  1.00  0.00    -0.359 OA
HETATM   25  H17         0      51.108 106.519   3.664  1.00  0.00     0.218 HD
ENDBRANCH   8  24
TORSDOF 5
ENDMDL
MODEL 4
REMARK VINA RESULT:      -2.4      3.909      5.852
REMARK  5 active torsions:
REMARK  status: ('A' for Active; 'I' for Inactive)
REMARK    1  A    between atoms: C4_4  and  C5_5 
REMARK    2  A    between atoms: C8_8  and  O9_9 
REMARK    3  A    between atoms: C10_11  and  O11_12 
REMARK    4  A    between atoms: C16_18  and  O17_19 
REMARK    5  A    between atoms: C19_22  and  O20_23 
ROOT
HETATM    1  O1          0      51.492  98.528   1.691  1.00  0.00    -0.286 OA
HETATM    2  C2          0      51.209  99.114   0.610  1.00  0.00     0.201 C 
HETATM    3  C3          0      51.167  98.459  -0.609  1.00  0.00     0.067 C 
HETATM    4  C4          0      50.953  99.147  -1.798  1.00  0.00     0.103 C 
HETATM    5  O13         0      50.767 100.455  -1.750  1.00  0.00    -0.307 OA
HETATM    6  C14         0      50.833 101.130  -0.624  1.00  0.00     0.107 C 
HETATM    7  C15         0      51.039 102.502  -0.605  1.00  0.00     0.049 C 
HETATM    8  C16         0      51.361 103.167   0.572  1.00  0.00     0.093 C 
HETATM    9  C18         0      50.951 102.531   1.737  1.00  0.00     0.048 C 
HETATM   10  C19         0      50.692 101.167   1.742  1.00  0.00     0.096 C 
HETATM   11  C21         0      50.825 100.446   0.587  1.00  0.00     0.084 C 
ENDROOT
BRANCH  10  12
HETATM   12  O20         0      50.715 100.475   2.949  1.00  0.00    -0.359 OA
HETATM   13  H20         0      50.146  99.720   3.040  1.00  0.00     0.218 HD
ENDBRANCH  10  12
BRANCH   4  14
HETATM   14  C5          0      51.502  98.558  -3.021  1.00  0.00     0.025 C 
HETATM   15  C6          0      51.688  97.192  -3.180  1.00  0.00     0.004 C 
HETATM   16  C7          0      51.419  96.647  -4.431  1.00  0.00     0.026 C 
HETATM   17  C8          0      51.106  97.448  -5.524  1.00  0.00     0.112 C 
HETATM   18  C10         0      51.558  98.757  -5.431  1.00  0.00     0.112 C 
HETATM   19  C12         0      51.737  99.306  -4.167  1.00  0.00     0.028 C 
BRANCH  17  20
HETATM   20  O9          0      50.234  97.003  -6.502  1.00  0.00    -0.357 OA
HETATM   21  H9          0      50.459  96.346  -7.151  1.00  0.00     0.218 HD
ENDBRANCH  17  20
BRANCH  18  22
HETATM   22  O11         0      51.441  99.544  -6.568  1.00  0.00    -0.357 OA
HETATM   23  H11         0      51.944  99.279  -7.329  1.00  0.00     0.218 HD
ENDBRANCH  18  22
ENDBRANCH   4  14
BRANCH   8  24
HETATM   24  O17         0      52.306 104.199   0.590  1.00  0.00    -0.359 OA
HETATM   25  H17         0      53.209 104.045   0.838  1.00  0.00     0.218 HD
ENDBRANCH   8  24
TORSDOF 5
ENDMDL
MODEL 5
REMARK VINA RESULT:      -2.4      1.898      2.519
REMARK  5 active torsions:
REMARK  status: ('A' for Active; 'I' for Inactive)
REMARK    1  A    between atoms: C4_4  and  C5_5 
REMARK    2  A    between atoms: C8_8  and  O9_9 
REMARK    3  A    between atoms: C10_11  and  O11_12 
REMARK    4  A    between atoms: C16_18  and  O17_19 
REMARK    5  A    between atoms: C19_22  and  O20_23 
ROOT
HETATM    1  O1          0      50.668  97.545  -1.436  1.00  0.00    -0.286 OA
HETATM    2  C2          0      51.232  97.567  -0.308  1.00  0.00     0.201 C 
HETATM    3  C3          0      51.686  96.424   0.327  1.00  0.00     0.067 C 
HETATM    4  C4          0      52.210  96.464   1.614  1.00  0.00     0.103 C 
HETATM    5  O13         0      52.291  97.630   2.230  1.00  0.00    -0.307 OA
HETATM    6  C14         0      51.839  98.740   1.688  1.00  0.00     0.107 C 
HETATM    7  C15         0      51.553  99.862   2.452  1.00  0.00     0.049 C 
HETATM    8  C16         0      50.844 100.933   1.922  1.00  0.00     0.093 C 
HETATM    9  C18         0      50.916 101.059   0.540  1.00  0.00     0.048 C 
HETATM   10  C19         0      51.246  99.967  -0.251  1.00  0.00     0.096 C 
HETATM   11  C21         0      51.519  98.762   0.335  1.00  0.00     0.084 C 
ENDROOT
BRANCH  10  12
HETATM   12  O20         0      50.899  99.974  -1.598  1.00  0.00    -0.359 OA
HETATM   13  H20         0      51.421 100.502  -2.190  1.00  0.00     0.218 HD
ENDBRANCH  10  12
BRANCH   4  14
HETATM   14  C5          0      52.100  95.246   2.420  1.00  0.00     0.025 C 
HETATM   15  C6          0      51.255  95.143   3.515  1.00  0.00     0.004 C 
HETATM   16  C7          0      50.598  93.932   3.710  1.00  0.00     0.026 C 
HETATM   17  C8          0      50.874  92.818   2.924  1.00  0.00     0.112 C 
HETATM   18  C10         0      52.125  92.829   2.321  1.00  0.00     0.112 C 
HETATM   19  C12         0      52.721  94.057   2.060  1.00  0.00     0.028 C 
BRANCH  17  20
HETATM   20  O9          0      49.883  91.902   2.621  1.00  0.00    -0.357 OA
HETATM   21  H9          0      49.883  91.363   1.838  1.00  0.00     0.218 HD
ENDBRANCH  17  20
BRANCH  18  22
HETATM   22  O11         0      52.525  91.664   1.684  1.00  0.00    -0.357 OA
HETATM   23  H11         0      51.859  91.185   1.204  1.00  0.00     0.218 HD
ENDBRANCH  18  22
ENDBRANCH   4  14
BRANCH   8  24
HETATM   24  O17         0      49.876 101.610   2.673  1.00  0.00    -0.359 OA
HETATM   25  H17         0      49.022 101.231   2.845  1.00  0.00     0.218 HD
ENDBRANCH   8  24
TORSDOF 5
ENDMDL
MODEL 6
REMARK VINA RESULT:      -2.4      4.243      7.296
REMARK  5 active torsions:
REMARK  status: ('A' for Active; 'I' for Inactive)
REMARK    1  A    between atoms: C4_4  and  C5_5 
REMARK    2  A    between atoms: C8_8  and  O9_9 
REMARK    3  A    between atoms: C10_11  and  O11_12 
REMARK    4  A    between atoms: C16_18  and  O17_19 
REMARK    5  A    between atoms: C19_22  and  O20_23 
ROOT
HETATM    1  O1          0      54.356  98.498  -1.282  1.00  0.00    -0.286 OA
HETATM    2  C2          0      53.204  98.985  -1.446  1.00  0.00     0.201 C 
HETATM    3  C3          0      52.675  99.958  -0.616  1.00  0.00     0.067 C 
HETATM    4  C4          0      51.366 100.403  -0.756  1.00  0.00     0.103 C 
HETATM    5  O13         0      50.622  99.893  -1.722  1.00  0.00    -0.307 OA
HETATM    6  C14         0      51.063  98.940  -2.514  1.00  0.00     0.107 C 
HETATM    7  C15         0      50.197  98.136  -3.241  1.00  0.00     0.049 C 
HETATM    8  C16         0      50.643  96.979  -3.870  1.00  0.00     0.093 C 
HETATM    9  C18         0      51.998  96.966  -4.181  1.00  0.00     0.048 C 
HETATM   10  C19         0      52.885  97.792  -3.506  1.00  0.00     0.096 C 
HETATM   11  C21         0      52.420  98.640  -2.537  1.00  0.00     0.084 C 
ENDROOT
BRANCH  10  12
HETATM   12  O20         0      54.240  97.476  -3.500  1.00  0.00    -0.359 OA
HETATM   13  H20         0      54.706  97.529  -2.675  1.00  0.00     0.218 HD
ENDBRANCH  10  12
BRANCH   4  14
HETATM   14  C5          0      50.705 100.927   0.440  1.00  0.00     0.025 C 
HETATM   15  C6          0      50.740 100.276   1.665  1.00  0.00     0.004 C 
HETATM   16  C7          0      50.854 101.060   2.809  1.00  0.00     0.026 C 
HETATM   17  C8          0      50.800 102.449   2.750  1.00  0.00     0.112 C 
HETATM   18  C10         0      50.147 102.956   1.634  1.00  0.00     0.112 C 
HETATM   19  C12         0      50.121 102.187   0.477  1.00  0.00     0.028 C 
BRANCH  17  20
HETATM   20  O9          0      51.530 103.225   3.632  1.00  0.00    -0.357 OA
HETATM   21  H9          0      51.725 102.967   4.525  1.00  0.00     0.218 HD
ENDBRANCH  17  20
BRANCH  18  22
HETATM   22  O11         0      49.899 104.322   1.619  1.00  0.00    -0.357 OA
HETATM   23  H11         0      50.303 104.824   0.920  1.00  0.00     0.218 HD
ENDBRANCH  18  22
ENDBRANCH   4  14
BRANCH   8  24
HETATM   24  O17         0      49.875  95.810  -3.876  1.00  0.00    -0.359 OA
HETATM   25  H17         0      49.971  95.146  -3.204  1.00  0.00     0.218 HD
ENDBRANCH   8  24
TORSDOF 5
ENDMDL
MODEL 7
REMARK VINA RESULT:      -2.4      2.462      3.736
REMARK  5 active torsions:
REMARK  status: ('A' for Active; 'I' for Inactive)
REMARK    1  A    between atoms: C4_4  and  C5_5 
REMARK    2  A    between atoms: C8_8  and  O9_9 
REMARK    3  A    between atoms: C10_11  and  O11_12 
REMARK    4  A    between atoms: C16_18  and  O17_19 
REMARK    5  A    between atoms: C19_22  and  O20_23 
ROOT
HETATM    1  O1          0      50.930 101.944   0.084  1.00  0.00    -0.286 OA
HETATM    2  C2          0      51.140 100.720   0.308  1.00  0.00     0.201 C 
HETATM    3  C3          0      51.096  99.757  -0.686  1.00  0.00     0.067 C 
HETATM    4  C4          0      51.230  98.404  -0.396  1.00  0.00     0.103 C 
HETATM    5  O13         0      51.424  98.041   0.859  1.00  0.00    -0.307 OA
HETATM    6  C14         0      51.437  98.911   1.845  1.00  0.00     0.107 C 
HETATM    7  C15         0      51.239  98.525   3.163  1.00  0.00     0.049 C 
HETATM    8  C16         0      51.001  99.462   4.161  1.00  0.00     0.093 C 
HETATM    9  C18         0      51.487 100.737   3.898  1.00  0.00     0.048 C 
HETATM   10  C19         0      51.741 101.140   2.594  1.00  0.00     0.096 C 
HETATM   11  C21         0      51.526 100.269   1.561  1.00  0.00     0.084 C 
ENDROOT
BRANCH  10  12
HETATM   12  O20         0      51.799 102.499   2.301  1.00  0.00    -0.359 OA
HETATM   13  H20         0      52.444 102.790   1.668  1.00  0.00     0.218 HD
ENDBRANCH  10  12
BRANCH   4  14
HETATM   14  C5          0      50.596  97.457  -1.314  1.00  0.00     0.025 C 
HETATM   15  C6          0      50.510  97.677  -2.681  1.00  0.00     0.004 C 
HETATM   16  C7          0      50.679  96.582  -3.523  1.00  0.00     0.026 C 
HETATM   17  C8          0      50.795  95.289  -3.023  1.00  0.00     0.112 C 
HETATM   18  C10         0      50.247  95.104  -1.761  1.00  0.00     0.112 C 
HETATM   19  C12         0      50.168  96.199  -0.908  1.00  0.00     0.028 C 
BRANCH  17  20
HETATM   20  O9          0      51.583  94.350  -3.663  1.00  0.00    -0.357 OA
HETATM   21  H9          0      52.302  93.891  -3.245  1.00  0.00     0.218 HD
ENDBRANCH  17  20
BRANCH  18  22
HETATM   22  O11         0      50.166  93.799  -1.296  1.00  0.00    -0.357 OA
HETATM   23  H11         0      50.377  93.655  -0.380  1.00  0.00     0.218 HD
ENDBRANCH  18  22
ENDBRANCH   4  14
BRANCH   8  24
HETATM   24  O17         0      50.063  99.227   5.174  1.00  0.00    -0.359 OA
HETATM   25  H17         0      49.183  98.927   4.979  1.00  0.00     0.218 HD
ENDBRANCH   8  24
TORSDOF 5
ENDMDL
MODEL 8
REMARK VINA RESULT:      -2.3      3.550      6.388
REMARK  5 active torsions:
REMARK  status: ('A' for Active; 'I' for Inactive)
REMARK    1  A    between atoms: C4_4  and  C5_5 
REMARK    2  A    between atoms: C8_8  and  O9_9 
REMARK    3  A    between atoms: C10_11  and  O11_12 
REMARK    4  A    between atoms: C16_18  and  O17_19 
REMARK    5  A    between atoms: C19_22  and  O20_23 
ROOT
HETATM    1  O1          0      52.978  96.235   4.597  1.00  0.00    -0.286 OA
HETATM    2  C2          0      52.269  97.126   4.054  1.00  0.00     0.201 C 
HETATM    3  C3          0      52.084  97.205   2.684  1.00  0.00     0.067 C 
HETATM    4  C4          0      51.383  98.256   2.103  1.00  0.00     0.103 C 
HETATM    5  O13         0      50.869  99.187   2.887  1.00  0.00    -0.307 OA
HETATM    6  C14         0      51.048  99.180   4.190  1.00  0.00     0.107 C 
HETATM    7  C15         0      50.871 100.322   4.958  1.00  0.00     0.049 C 
HETATM    8  C16         0      51.302 100.377   6.278  1.00  0.00     0.093 C 
HETATM    9  C18         0      51.405  99.146   6.914  1.00  0.00     0.048 C 
HETATM   10  C19         0      51.536  97.979   6.175  1.00  0.00     0.096 C 
HETATM   11  C21         0      51.547  98.039   4.808  1.00  0.00     0.084 C 
ENDROOT
BRANCH  10  12
HETATM   12  O20         0      52.066  96.844   6.783  1.00  0.00    -0.359 OA
HETATM   13  H20         0      52.917  96.918   7.197  1.00  0.00     0.218 HD
ENDBRANCH  10  12
BRANCH   4  14
HETATM   14  C5          0      51.725  98.607   0.723  1.00  0.00     0.025 C 
HETATM   15  C6          0      52.169  97.674  -0.202  1.00  0.00     0.004 C 
HETATM   16  C7          0      51.724  97.806  -1.514  1.00  0.00     0.026 C 
HETATM   17  C8          0      50.974  98.902  -1.923  1.00  0.00     0.112 C 
HETATM   18  C10         0      51.126 100.036  -1.135  1.00  0.00     0.112 C 
HETATM   19  C12         0      51.488  99.870   0.196  1.00  0.00     0.028 C 
BRANCH  17  20
HETATM   20  O9          0      50.008  98.774  -2.906  1.00  0.00    -0.357 OA
HETATM   21  H9          0      49.462  98.003  -3.012  1.00  0.00     0.218 HD
ENDBRANCH  17  20
BRANCH  18  22
HETATM   22  O11         0      50.550 101.208  -1.604  1.00  0.00    -0.357 OA
HETATM   23  H11         0      50.327 101.866  -0.956  1.00  0.00     0.218 HD
ENDBRANCH  18  22
ENDBRANCH   4  14
BRANCH   8  24
HETATM   24  O17         0      51.901 101.529   6.802  1.00  0.00    -0.359 OA
HETATM   25  H17         0      51.698 101.844   7.674  1.00  0.00     0.218 HD
ENDBRANCH   8  24
TORSDOF 5
ENDMDL
MODEL 9
REMARK VINA RESULT:      -2.3      2.233      4.171
REMARK  5 active torsions:
REMARK  status: ('A' for Active; 'I' for Inactive)
REMARK    1  A    between atoms: C4_4  and  C5_5 
REMARK    2  A    between atoms: C8_8  and  O9_9 
REMARK    3  A    between atoms: C10_11  and  O11_12 
REMARK    4  A    between atoms: C16_18  and  O17_19 
REMARK    5  A    between atoms: C19_22  and  O20_23 
ROOT
HETATM    1  O1          0      52.695 100.060  -1.699  1.00  0.00    -0.286 OA
HETATM    2  C2          0      51.914  99.076  -1.584  1.00  0.00     0.201 C 
HETATM    3  C3          0      51.889  98.265  -0.462  1.00  0.00     0.067 C 
HETATM    4  C4          0      51.092  97.127  -0.404  1.00  0.00     0.103 C 
HETATM    5  O13         0      50.330  96.832  -1.441  1.00  0.00    -0.307 OA
HETATM    6  C14         0      50.344  97.547  -2.545  1.00  0.00     0.107 C 
HETATM    7  C15         0      49.875  97.041  -3.749  1.00  0.00     0.049 C 
HETATM    8  C16         0      50.123  97.694  -4.951  1.00  0.00     0.093 C 
HETATM    9  C18         0      50.361  99.058  -4.840  1.00  0.00     0.048 C 
HETATM   10  C19         0      50.786  99.605  -3.636  1.00  0.00     0.096 C 
HETATM   11  C21         0      50.955  98.796  -2.546  1.00  0.00     0.084 C 
ENDROOT
BRANCH  10  12
HETATM   12  O20         0      51.426 100.840  -3.638  1.00  0.00    -0.359 OA
HETATM   13  H20         0      50.917 101.606  -3.403  1.00  0.00     0.218 HD
ENDBRANCH  10  12
BRANCH   4  14
HETATM   14  C5          0      51.536  96.044   0.476  1.00  0.00     0.025 C 
HETATM   15  C6          0      52.516  96.214   1.442  1.00  0.00     0.004 C 
HETATM   16  C7          0      52.345  95.556   2.656  1.00  0.00     0.026 C 
HETATM   17  C8          0      51.306  94.654   2.857  1.00  0.00     0.112 C 
HETATM   18  C10         0      50.795  94.090   1.696  1.00  0.00     0.112 C 
HETATM   19  C12         0      50.904  94.807   0.510  1.00  0.00     0.028 C 
BRANCH  17  20
HETATM   20  O9          0      50.716  94.518   4.101  1.00  0.00    -0.357 OA
HETATM   21  H9          0      50.136  93.802   4.335  1.00  0.00     0.218 HD
ENDBRANCH  17  20
BRANCH  18  22
HETATM   22  O11         0      49.891  93.048   1.848  1.00  0.00    -0.357 OA
HETATM   23  H11         0      49.828  92.426   1.132  1.00  0.00     0.218 HD
ENDBRANCH  18  22
ENDBRANCH   4  14
BRANCH   8  24
HETATM   24  O17         0      50.441  96.984  -6.114  1.00  0.00    -0.359 OA
HETATM   25  H17         0      50.959  97.372  -6.810  1.00  0.00     0.218 HD
ENDBRANCH   8  24
TORSDOF 5
ENDMDL
