MODEL 1
REMARK VINA RESULT:      -5.1      0.000      0.000
REMARK  5 active torsions:
REMARK  status: ('A' for Active; 'I' for Inactive)
REMARK    1  A    between atoms: C4_4  and  C5_5 
REMARK    2  A    between atoms: C8_8  and  O9_9 
REMARK    3  A    between atoms: C10_11  and  O11_12 
REMARK    4  A    between atoms: C16_18  and  O17_19 
REMARK    5  A    between atoms: C19_22  and  O20_23 
ROOT
HETATM    1  O1          0      38.875  53.951  22.036  1.00  0.00    -0.286 OA
HETATM    2  C2          0      39.538  54.972  22.368  1.00  0.00     0.201 C 
HETATM    3  C3          0      40.879  55.128  22.063  1.00  0.00     0.067 C 
HETATM    4  C4          0      41.611  56.214  22.529  1.00  0.00     0.103 C 
HETATM    5  O13         0      40.997  57.125  23.264  1.00  0.00    -0.307 OA
HETATM    6  C14         0      39.735  57.006  23.614  1.00  0.00     0.107 C 
HETATM    7  C15         0      39.203  57.714  24.681  1.00  0.00     0.049 C 
HETATM    8  C16         0      37.954  57.400  25.205  1.00  0.00     0.093 C 
HETATM    9  C18         0      37.091  56.763  24.322  1.00  0.00     0.048 C 
HETATM   10  C19         0      37.587  56.084  23.217  1.00  0.00     0.096 C 
HETATM   11  C21         0      38.935  56.057  22.985  1.00  0.00     0.084 C 
ENDROOT
BRANCH  10  12
HETATM   12  O20         0      36.801  55.112  22.606  1.00  0.00    -0.359 OA
HETATM   13  H20         0      37.225  54.505  22.012  1.00  0.00     0.218 HD
ENDBRANCH  10  12
BRANCH   4  14
HETATM   14  C5          0      43.053  56.027  22.698  1.00  0.00     0.025 C 
HETATM   15  C6          0      43.723  54.899  22.247  1.00  0.00     0.004 C 
HETATM   16  C7          0      44.991  55.077  21.704  1.00  0.00     0.026 C 
HETATM   17  C8          0      45.629  56.312  21.729  1.00  0.00     0.112 C 
HETATM   18  C10         0      45.183  57.175  22.721  1.00  0.00     0.112 C 
HETATM   19  C12         0      43.882  57.029  23.187  1.00  0.00     0.028 C 
BRANCH  17  20
HETATM   20  O9          0      46.478  56.693  20.705  1.00  0.00    -0.357 OA
HETATM   21  H9          0      46.707  57.596  20.517  1.00  0.00     0.218 HD
ENDBRANCH  17  20
BRANCH  18  22
HETATM   22  O11         0      45.909  58.342  22.912  1.00  0.00    -0.357 OA
HETATM   23  H11         0      46.471  58.378  23.678  1.00  0.00     0.218 HD
ENDBRANCH  18  22
ENDBRANCH   4  14
BRANCH   8  24
HETATM   24  O17         0      37.716  57.417  26.584  1.00  0.00    -0.359 OA
HETATM   25  H17         0      37.511  58.221  27.045  1.00  0.00     0.218 HD
ENDBRANCH   8  24
TORSDOF 5
ENDMDL
MODEL 2
REMARK VINA RESULT:      -4.8      2.016      7.135
REMARK  5 active torsions:
REMARK  status: ('A' for Active; 'I' for Inactive)
REMARK    1  A    between atoms: C4_4  and  C5_5 
REMARK    2  A    between atoms: C8_8  and  O9_9 
REMARK    3  A    between atoms: C10_11  and  O11_12 
REMARK    4  A    between atoms: C16_18  and  O17_19 
REMARK    5  A    between atoms: C19_22  and  O20_23 
ROOT
HETATM    1  O1          0      45.611  55.931  20.396  1.00  0.00    -0.286 OA
HETATM    2  C2          0      45.174  56.486  21.442  1.00  0.00     0.201 C 
HETATM    3  C3          0      43.897  56.267  21.930  1.00  0.00     0.067 C 
HETATM    4  C4          0      43.405  56.968  23.025  1.00  0.00     0.103 C 
HETATM    5  O13         0      44.191  57.849  23.620  1.00  0.00    -0.307 OA
HETATM    6  C14         0      45.398  58.122  23.174  1.00  0.00     0.107 C 
HETATM    7  C15         0      46.059  59.290  23.524  1.00  0.00     0.049 C 
HETATM    8  C16         0      47.211  59.694  22.860  1.00  0.00     0.093 C 
HETATM    9  C18         0      47.928  58.670  22.252  1.00  0.00     0.048 C 
HETATM   10  C19         0      47.309  57.469  21.931  1.00  0.00     0.096 C 
HETATM   11  C21         0      45.986  57.287  22.230  1.00  0.00     0.084 C 
ENDROOT
BRANCH  10  12
HETATM   12  O20         0      47.878  56.647  20.964  1.00  0.00    -0.359 OA
HETATM   13  H20         0      47.365  55.916  20.642  1.00  0.00     0.218 HD
ENDBRANCH  10  12
BRANCH   4  14
HETATM   14  C5          0      41.955  57.149  23.109  1.00  0.00     0.025 C 
HETATM   15  C6          0      41.053  56.136  22.817  1.00  0.00     0.004 C 
HETATM   16  C7          0      39.912  56.041  23.608  1.00  0.00     0.026 C 
HETATM   17  C8          0      39.609  57.000  24.569  1.00  0.00     0.112 C 
HETATM   18  C10         0      40.190  58.242  24.352  1.00  0.00     0.112 C 
HETATM   19  C12         0      41.377  58.299  23.630  1.00  0.00     0.028 C 
BRANCH  17  20
HETATM   20  O9          0      38.958  56.650  25.738  1.00  0.00    -0.357 OA
HETATM   21  H9          0      38.280  57.179  26.143  1.00  0.00     0.218 HD
ENDBRANCH  17  20
BRANCH  18  22
HETATM   22  O11         0      39.773  59.283  25.170  1.00  0.00    -0.357 OA
HETATM   23  H11         0      38.872  59.259  25.469  1.00  0.00     0.218 HD
ENDBRANCH  18  22
ENDBRANCH   4  14
BRANCH   8  24
HETATM   24  O17         0      47.438  61.038  22.544  1.00  0.00    -0.359 OA
HETATM   25  H17         0      48.312  61.411  22.548  1.00  0.00     0.218 HD
ENDBRANCH   8  24
TORSDOF 5
ENDMDL
MODEL 3
REMARK VINA RESULT:      -4.8      1.595      3.017
REMARK  5 active torsions:
REMARK  status: ('A' for Active; 'I' for Inactive)
REMARK    1  A    between atoms: C4_4  and  C5_5 
REMARK    2  A    between atoms: C8_8  and  O9_9 
REMARK    3  A    between atoms: C10_11  and  O11_12 
REMARK    4  A    between atoms: C16_18  and  O17_19 
REMARK    5  A    between atoms: C19_22  and  O20_23 
ROOT
HETATM    1  O1          0      41.476  59.395  24.000  1.00  0.00    -0.286 OA
HETATM    2  C2          0      41.709  58.160  23.889  1.00  0.00     0.201 C 
HETATM    3  C3          0      42.989  57.648  23.755  1.00  0.00     0.067 C 
HETATM    4  C4          0      43.211  56.294  23.531  1.00  0.00     0.103 C 
HETATM    5  O13         0      42.171  55.482  23.466  1.00  0.00    -0.307 OA
HETATM    6  C14         0      40.934  55.922  23.549  1.00  0.00     0.107 C 
HETATM    7  C15         0      39.860  55.172  23.092  1.00  0.00     0.049 C 
HETATM    8  C16         0      38.598  55.735  22.946  1.00  0.00     0.093 C 
HETATM    9  C18         0      38.354  56.845  23.746  1.00  0.00     0.048 C 
HETATM   10  C19         0      39.407  57.590  24.259  1.00  0.00     0.096 C 
HETATM   11  C21         0      40.696  57.219  23.988  1.00  0.00     0.084 C 
ENDROOT
BRANCH  10  12
HETATM   12  O20         0      39.177  58.899  24.669  1.00  0.00    -0.359 OA
HETATM   13  H20         0      38.714  59.478  24.075  1.00  0.00     0.218 HD
ENDBRANCH  10  12
BRANCH   4  14
HETATM   14  C5          0      44.439  55.925  22.823  1.00  0.00     0.025 C 
HETATM   15  C6          0      44.502  55.798  21.443  1.00  0.00     0.004 C 
HETATM   16  C7          0      45.657  56.242  20.807  1.00  0.00     0.026 C 
HETATM   17  C8          0      46.766  56.674  21.527  1.00  0.00     0.112 C 
HETATM   18  C10         0      46.845  56.179  22.822  1.00  0.00     0.112 C 
HETATM   19  C12         0      45.666  55.822  23.466  1.00  0.00     0.028 C 
BRANCH  17  20
HETATM   20  O9          0      47.582  57.677  21.037  1.00  0.00    -0.357 OA
HETATM   21  H9          0      47.579  58.569  21.366  1.00  0.00     0.218 HD
ENDBRANCH  17  20
BRANCH  18  22
HETATM   22  O11         0      48.021  56.423  23.517  1.00  0.00    -0.357 OA
HETATM   23  H11         0      48.612  55.689  23.633  1.00  0.00     0.218 HD
ENDBRANCH  18  22
ENDBRANCH   4  14
BRANCH   8  24
HETATM   24  O17         0      37.782  55.423  21.853  1.00  0.00    -0.359 OA
HETATM   25  H17         0      38.137  55.319  20.978  1.00  0.00     0.218 HD
ENDBRANCH   8  24
TORSDOF 5
ENDMDL
MODEL 4
REMARK VINA RESULT:      -4.8      2.939      7.815
REMARK  5 active torsions:
REMARK  status: ('A' for Active; 'I' for Inactive)
REMARK    1  A    between atoms: C4_4  and  C5_5 
REMARK    2  A    between atoms: C8_8  and  O9_9 
REMARK    3  A    between atoms: C10_11  and  O11_12 
REMARK    4  A    between atoms: C16_18  and  O17_19 
REMARK    5  A    between atoms: C19_22  and  O20_23 
ROOT
HETATM    1  O1          0      38.507  55.054  22.179  1.00  0.00    -0.286 OA
HETATM    2  C2          0      38.297  55.680  23.254  1.00  0.00     0.201 C 
HETATM    3  C3          0      37.138  55.529  23.997  1.00  0.00     0.067 C 
HETATM    4  C4          0      36.887  56.307  25.122  1.00  0.00     0.103 C 
HETATM    5  O13         0      37.792  57.195  25.494  1.00  0.00    -0.307 OA
HETATM    6  C14         0      38.891  57.405  24.804  1.00  0.00     0.107 C 
HETATM    7  C15         0      39.631  58.570  24.943  1.00  0.00     0.049 C 
HETATM    8  C16         0      40.635  58.900  24.041  1.00  0.00     0.093 C 
HETATM    9  C18         0      41.198  57.821  23.369  1.00  0.00     0.048 C 
HETATM   10  C19         0      40.504  56.624  23.251  1.00  0.00     0.096 C 
HETATM   11  C21         0      39.264  56.500  23.816  1.00  0.00     0.084 C 
ENDROOT
BRANCH  10  12
HETATM   12  O20         0      40.855  55.732  22.243  1.00  0.00    -0.359 OA
HETATM   13  H20         0      41.758  55.724  21.950  1.00  0.00     0.218 HD
ENDBRANCH  10  12
BRANCH   4  14
HETATM   14  C5          0      35.486  56.536  25.478  1.00  0.00     0.025 C 
HETATM   15  C6          0      35.101  57.380  26.510  1.00  0.00     0.004 C 
HETATM   16  C7          0      33.963  58.157  26.317  1.00  0.00     0.026 C 
HETATM   17  C8          0      33.158  58.005  25.193  1.00  0.00     0.112 C 
HETATM   18  C10         0      33.252  56.764  24.576  1.00  0.00     0.112 C 
HETATM   19  C12         0      34.434  56.046  24.716  1.00  0.00     0.028 C 
BRANCH  17  20
HETATM   20  O9          0      32.497  59.088  24.643  1.00  0.00    -0.357 OA
HETATM   21  H9          0      31.680  59.019  24.162  1.00  0.00     0.218 HD
ENDBRANCH  17  20
BRANCH  18  22
HETATM   22  O11         0      32.337  56.492  23.569  1.00  0.00    -0.357 OA
HETATM   23  H11         0      31.432  56.728  23.736  1.00  0.00     0.218 HD
ENDBRANCH  18  22
ENDBRANCH   4  14
BRANCH   8  24
HETATM   24  O17         0      40.820  60.216  23.605  1.00  0.00    -0.359 OA
HETATM   25  H17         0      40.208  60.907  23.828  1.00  0.00     0.218 HD
ENDBRANCH   8  24
TORSDOF 5
ENDMDL
MODEL 5
REMARK VINA RESULT:      -4.8      1.781      7.017
REMARK  5 active torsions:
REMARK  status: ('A' for Active; 'I' for Inactive)
REMARK    1  A    between atoms: C4_4  and  C5_5 
REMARK    2  A    between atoms: C8_8  and  O9_9 
REMARK    3  A    between atoms: C10_11  and  O11_12 
REMARK    4  A    between atoms: C16_18  and  O17_19 
REMARK    5  A    between atoms: C19_22  and  O20_23 
ROOT
HETATM    1  O1          0      43.653  57.550  24.283  1.00  0.00    -0.286 OA
HETATM    2  C2          0      42.737  57.049  23.575  1.00  0.00     0.201 C 
HETATM    3  C3          0      41.393  57.190  23.877  1.00  0.00     0.067 C 
HETATM    4  C4          0      40.408  56.543  23.139  1.00  0.00     0.103 C 
HETATM    5  O13         0      40.773  55.794  22.113  1.00  0.00    -0.307 OA
HETATM    6  C14         0      42.037  55.597  21.806  1.00  0.00     0.107 C 
HETATM    7  C15         0      42.439  54.529  21.017  1.00  0.00     0.049 C 
HETATM    8  C16         0      43.779  54.177  20.906  1.00  0.00     0.093 C 
HETATM    9  C18         0      44.678  55.207  21.156  1.00  0.00     0.048 C 
HETATM   10  C19         0      44.295  56.313  21.903  1.00  0.00     0.096 C 
HETATM   11  C21         0      43.016  56.398  22.383  1.00  0.00     0.084 C 
ENDROOT
BRANCH  10  12
HETATM   12  O20         0      45.272  57.097  22.508  1.00  0.00    -0.359 OA
HETATM   13  H20         0      44.990  57.761  23.126  1.00  0.00     0.218 HD
ENDBRANCH  10  12
BRANCH   4  14
HETATM   14  C5          0      39.151  56.237  23.823  1.00  0.00     0.025 C 
HETATM   15  C6          0      38.136  57.169  23.983  1.00  0.00     0.004 C 
HETATM   16  C7          0      36.824  56.722  23.862  1.00  0.00     0.026 C 
HETATM   17  C8          0      36.525  55.371  23.721  1.00  0.00     0.112 C 
HETATM   18  C10         0      37.501  54.507  24.199  1.00  0.00     0.112 C 
HETATM   19  C12         0      38.818  54.952  24.230  1.00  0.00     0.028 C 
BRANCH  17  20
HETATM   20  O9          0      35.437  54.961  22.970  1.00  0.00    -0.357 OA
HETATM   21  H9          0      34.538  55.188  23.175  1.00  0.00     0.218 HD
ENDBRANCH  17  20
BRANCH  18  22
HETATM   22  O11         0      37.175  53.160  24.256  1.00  0.00    -0.357 OA
HETATM   23  H11         0      36.458  52.867  23.706  1.00  0.00     0.218 HD
ENDBRANCH  18  22
ENDBRANCH   4  14
BRANCH   8  24
HETATM   24  O17         0      44.182  52.838  20.884  1.00  0.00    -0.359 OA
HETATM   25  H17         0      43.727  52.188  20.361  1.00  0.00     0.218 HD
ENDBRANCH   8  24
TORSDOF 5
ENDMDL
MODEL 6
REMARK VINA RESULT:      -4.7      2.318      3.700
REMARK  5 active torsions:
REMARK  status: ('A' for Active; 'I' for Inactive)
REMARK    1  A    between atoms: C4_4  and  C5_5 
REMARK    2  A    between atoms: C8_8  and  O9_9 
REMARK    3  A    between atoms: C10_11  and  O11_12 
REMARK    4  A    between atoms: C16_18  and  O17_19 
REMARK    5  A    between atoms: C19_22  and  O20_23 
ROOT
HETATM    1  O1          0      41.946  59.226  24.000  1.00  0.00    -0.286 OA
HETATM    2  C2          0      41.787  57.975  23.959  1.00  0.00     0.201 C 
HETATM    3  C3          0      42.844  57.088  23.845  1.00  0.00     0.067 C 
HETATM    4  C4          0      42.635  55.721  23.699  1.00  0.00     0.103 C 
HETATM    5  O13         0      41.394  55.266  23.691  1.00  0.00    -0.307 OA
HETATM    6  C14         0      40.355  56.069  23.758  1.00  0.00     0.107 C 
HETATM    7  C15         0      39.091  55.663  23.354  1.00  0.00     0.049 C 
HETATM    8  C16         0      38.059  56.578  23.186  1.00  0.00     0.093 C 
HETATM    9  C18         0      38.187  57.750  23.922  1.00  0.00     0.048 C 
HETATM   10  C19         0      39.431  58.161  24.381  1.00  0.00     0.096 C 
HETATM   11  C21         0      40.537  57.398  24.122  1.00  0.00     0.084 C 
ENDROOT
BRANCH  10  12
HETATM   12  O20         0      39.625  59.498  24.716  1.00  0.00    -0.359 OA
HETATM   13  H20         0      40.428  59.916  24.432  1.00  0.00     0.218 HD
ENDBRANCH  10  12
BRANCH   4  14
HETATM   14  C5          0      43.671  54.956  23.004  1.00  0.00     0.025 C 
HETATM   15  C6          0      44.722  54.338  23.667  1.00  0.00     0.004 C 
HETATM   16  C7          0      45.135  53.094  23.203  1.00  0.00     0.026 C 
HETATM   17  C8          0      44.614  52.540  22.038  1.00  0.00     0.112 C 
HETATM   18  C10         0      44.082  53.462  21.146  1.00  0.00     0.112 C 
HETATM   19  C12         0      43.598  54.664  21.648  1.00  0.00     0.028 C 
BRANCH  17  20
HETATM   20  O9          0      44.462  51.171  21.910  1.00  0.00    -0.357 OA
HETATM   21  H9          0      45.070  50.536  22.272  1.00  0.00     0.218 HD
ENDBRANCH  17  20
BRANCH  18  22
HETATM   22  O11         0      43.722  52.987  19.893  1.00  0.00    -0.357 OA
HETATM   23  H11         0      43.562  53.636  19.217  1.00  0.00     0.218 HD
ENDBRANCH  18  22
ENDBRANCH   4  14
BRANCH   8  24
HETATM   24  O17         0      37.158  56.473  22.120  1.00  0.00    -0.359 OA
HETATM   25  H17         0      37.120  55.698  21.573  1.00  0.00     0.218 HD
ENDBRANCH   8  24
TORSDOF 5
ENDMDL
MODEL 7
REMARK VINA RESULT:      -4.7      9.363     11.225
REMARK  5 active torsions:
REMARK  status: ('A' for Active; 'I' for Inactive)
REMARK    1  A    between atoms: C4_4  and  C5_5 
REMARK    2  A    between atoms: C8_8  and  O9_9 
REMARK    3  A    between atoms: C10_11  and  O11_12 
REMARK    4  A    between atoms: C16_18  and  O17_19 
REMARK    5  A    between atoms: C19_22  and  O20_23 
ROOT
HETATM    1  O1          0      35.920  69.236  25.136  1.00  0.00    -0.286 OA
HETATM    2  C2          0      36.369  68.103  25.463  1.00  0.00     0.201 C 
HETATM    3  C3          0      37.707  67.877  25.738  1.00  0.00     0.067 C 
HETATM    4  C4          0      38.192  66.600  25.995  1.00  0.00     0.103 C 
HETATM    5  O13         0      37.343  65.587  25.995  1.00  0.00    -0.307 OA
HETATM    6  C14         0      36.070  65.741  25.705  1.00  0.00     0.107 C 
HETATM    7  C15         0      35.275  64.674  25.314  1.00  0.00     0.049 C 
HETATM    8  C16         0      34.014  64.875  24.767  1.00  0.00     0.093 C 
HETATM    9  C18         0      33.406  66.075  25.119  1.00  0.00     0.048 C 
HETATM   10  C19         0      34.168  67.149  25.559  1.00  0.00     0.096 C 
HETATM   11  C21         0      35.526  67.020  25.663  1.00  0.00     0.084 C 
ENDROOT
BRANCH  10  12
HETATM   12  O20         0      33.638  68.433  25.488  1.00  0.00    -0.359 OA
HETATM   13  H20         0      33.488  68.806  24.627  1.00  0.00     0.218 HD
ENDBRANCH  10  12
BRANCH   4  14
HETATM   14  C5          0      39.598  66.341  25.680  1.00  0.00     0.025 C 
HETATM   15  C6          0      40.178  65.087  25.803  1.00  0.00     0.004 C 
HETATM   16  C7          0      41.103  64.707  24.836  1.00  0.00     0.026 C 
HETATM   17  C8          0      41.539  65.592  23.856  1.00  0.00     0.112 C 
HETATM   18  C10         0      41.407  66.934  24.186  1.00  0.00     0.112 C 
HETATM   19  C12         0      40.417  67.296  25.092  1.00  0.00     0.028 C 
BRANCH  17  20
HETATM   20  O9          0      41.869  65.141  22.590  1.00  0.00    -0.357 OA
HETATM   21  H9          0      41.384  65.369  21.805  1.00  0.00     0.218 HD
ENDBRANCH  17  20
BRANCH  18  22
HETATM   22  O11         0      41.996  67.853  23.329  1.00  0.00    -0.357 OA
HETATM   23  H11         0      42.296  67.526  22.489  1.00  0.00     0.218 HD
ENDBRANCH  18  22
ENDBRANCH   4  14
BRANCH   8  24
HETATM   24  O17         0      33.551  64.103  23.695  1.00  0.00    -0.359 OA
HETATM   25  H17         0      32.624  63.978  23.534  1.00  0.00     0.218 HD
ENDBRANCH   8  24
TORSDOF 5
ENDMDL
MODEL 8
REMARK VINA RESULT:      -4.7      2.680      5.341
REMARK  5 active torsions:
REMARK  status: ('A' for Active; 'I' for Inactive)
REMARK    1  A    between atoms: C4_4  and  C5_5 
REMARK    2  A    between atoms: C8_8  and  O9_9 
REMARK    3  A    between atoms: C10_11  and  O11_12 
REMARK    4  A    between atoms: C16_18  and  O17_19 
REMARK    5  A    between atoms: C19_22  and  O20_23 
ROOT
HETATM    1  O1          0      44.875  54.507  21.898  1.00  0.00    -0.286 OA
HETATM    2  C2          0      43.775  55.121  21.965  1.00  0.00     0.201 C 
HETATM    3  C3          0      43.640  56.355  22.578  1.00  0.00     0.067 C 
HETATM    4  C4          0      42.398  56.962  22.728  1.00  0.00     0.103 C 
HETATM    5  O13         0      41.330  56.347  22.253  1.00  0.00    -0.307 OA
HETATM    6  C14         0      41.397  55.158  21.695  1.00  0.00     0.107 C 
HETATM    7  C15         0      40.279  54.348  21.563  1.00  0.00     0.049 C 
HETATM    8  C16         0      40.395  53.008  21.213  1.00  0.00     0.093 C 
HETATM    9  C18         0      41.549  52.683  20.510  1.00  0.00     0.048 C 
HETATM   10  C19         0      42.672  53.497  20.583  1.00  0.00     0.096 C 
HETATM   11  C21         0      42.637  54.637  21.339  1.00  0.00     0.084 C 
ENDROOT
BRANCH  10  12
HETATM   12  O20         0      43.917  52.968  20.257  1.00  0.00    -0.359 OA
HETATM   13  H20         0      44.539  52.828  20.961  1.00  0.00     0.218 HD
ENDBRANCH  10  12
BRANCH   4  14
HETATM   14  C5          0      42.237  57.889  23.850  1.00  0.00     0.025 C 
HETATM   15  C6          0      43.284  58.242  24.690  1.00  0.00     0.004 C 
HETATM   16  C7          0      43.342  59.561  25.126  1.00  0.00     0.026 C 
HETATM   17  C8          0      42.324  60.468  24.849  1.00  0.00     0.112 C 
HETATM   18  C10         0      41.090  59.889  24.582  1.00  0.00     0.112 C 
HETATM   19  C12         0      41.064  58.599  24.066  1.00  0.00     0.028 C 
BRANCH  17  20
HETATM   20  O9          0      42.603  61.809  24.654  1.00  0.00    -0.357 OA
HETATM   21  H9          0      43.264  62.128  24.051  1.00  0.00     0.218 HD
ENDBRANCH  17  20
BRANCH  18  22
HETATM   22  O11         0      40.003  60.746  24.486  1.00  0.00    -0.357 OA
HETATM   23  H11         0      39.220  60.401  24.072  1.00  0.00     0.218 HD
ENDBRANCH  18  22
ENDBRANCH   4  14
BRANCH   8  24
HETATM   24  O17         0      39.596  52.026  21.809  1.00  0.00    -0.359 OA
HETATM   25  H17         0      38.900  52.250  22.416  1.00  0.00     0.218 HD
ENDBRANCH   8  24
TORSDOF 5
ENDMDL
MODEL 9
REMARK VINA RESULT:      -4.6      3.256      4.423
REMARK  5 active torsions:
REMARK  status: ('A' for Active; 'I' for Inactive)
REMARK    1  A    between atoms: C4_4  and  C5_5 
REMARK    2  A    between atoms: C8_8  and  O9_9 
REMARK    3  A    between atoms: C10_11  and  O11_12 
REMARK    4  A    between atoms: C16_18  and  O17_19 
REMARK    5  A    between atoms: C19_22  and  O20_23 
ROOT
HETATM    1  O1          0      43.320  51.272  23.088  1.00  0.00    -0.286 OA
HETATM    2  C2          0      43.398  52.334  22.411  1.00  0.00     0.201 C 
HETATM    3  C3          0      44.528  53.133  22.395  1.00  0.00     0.067 C 
HETATM    4  C4          0      44.551  54.350  21.723  1.00  0.00     0.103 C 
HETATM    5  O13         0      43.469  54.734  21.070  1.00  0.00    -0.307 OA
HETATM    6  C14         0      42.357  54.032  21.084  1.00  0.00     0.107 C 
HETATM    7  C15         0      41.132  54.596  20.757  1.00  0.00     0.049 C 
HETATM    8  C16         0      39.940  53.931  21.016  1.00  0.00     0.093 C 
HETATM    9  C18         0      40.045  52.547  21.098  1.00  0.00     0.048 C 
HETATM   10  C19         0      41.265  51.948  21.377  1.00  0.00     0.096 C 
HETATM   11  C21         0      42.378  52.724  21.557  1.00  0.00     0.084 C 
ENDROOT
BRANCH  10  12
HETATM   12  O20         0      41.287  50.651  21.881  1.00  0.00    -0.359 OA
HETATM   13  H20         0      41.072  49.940  21.289  1.00  0.00     0.218 HD
ENDBRANCH  10  12
BRANCH   4  14
HETATM   14  C5          0      45.476  55.371  22.218  1.00  0.00     0.025 C 
HETATM   15  C6          0      46.269  55.186  23.341  1.00  0.00     0.004 C 
HETATM   16  C7          0      47.562  55.699  23.308  1.00  0.00     0.026 C 
HETATM   17  C8          0      48.008  56.486  22.251  1.00  0.00     0.112 C 
HETATM   18  C10         0      47.002  57.120  21.536  1.00  0.00     0.112 C 
HETATM   19  C12         0      45.739  56.540  21.515  1.00  0.00     0.028 C 
BRANCH  17  20
HETATM   20  O9          0      49.330  56.444  21.846  1.00  0.00    -0.357 OA
HETATM   21  H9          0      49.715  55.715  21.373  1.00  0.00     0.218 HD
ENDBRANCH  17  20
BRANCH  18  22
HETATM   22  O11         0      47.397  58.061  20.596  1.00  0.00    -0.357 OA
HETATM   23  H11         0      48.198  57.882  20.118  1.00  0.00     0.218 HD
ENDBRANCH  18  22
ENDBRANCH   4  14
BRANCH   8  24
HETATM   24  O17         0      38.813  54.612  21.489  1.00  0.00    -0.359 OA
HETATM   25  H17         0      38.261  55.125  20.910  1.00  0.00     0.218 HD
ENDBRANCH   8  24
TORSDOF 5
ENDMDL
