MODEL 1
REMARK VINA RESULT:      -2.3      0.000      0.000
REMARK  5 active torsions:
REMARK  status: ('A' for Active; 'I' for Inactive)
REMARK    1  A    between atoms: C4_4  and  C5_5 
REMARK    2  A    between atoms: C8_8  and  O9_9 
REMARK    3  A    between atoms: C10_11  and  O11_12 
REMARK    4  A    between atoms: C16_18  and  O17_19 
REMARK    5  A    between atoms: C19_22  and  O20_23 
ROOT
HETATM    1  O1          0      58.003  10.707 -24.482  1.00  0.00    -0.286 OA
HETATM    2  C2          0      58.034  11.625 -23.616  1.00  0.00     0.201 C 
HETATM    3  C3          0      59.197  12.291 -23.270  1.00  0.00     0.067 C 
HETATM    4  C4          0      59.222  13.225 -22.241  1.00  0.00     0.103 C 
HETATM    5  O13         0      58.099  13.491 -21.597  1.00  0.00    -0.307 OA
HETATM    6  C14         0      56.976  12.860 -21.861  1.00  0.00     0.107 C 
HETATM    7  C15         0      55.923  12.833 -20.957  1.00  0.00     0.049 C 
HETATM    8  C16         0      54.851  11.965 -21.125  1.00  0.00     0.093 C 
HETATM    9  C18         0      54.627  11.554 -22.433  1.00  0.00     0.048 C 
HETATM   10  C19         0      55.645  11.612 -23.375  1.00  0.00     0.096 C 
HETATM   11  C21         0      56.875  12.094 -23.017  1.00  0.00     0.084 C 
ENDROOT
BRANCH  10  12
HETATM   12  O20         0      55.561  10.822 -24.517  1.00  0.00    -0.359 OA
HETATM   13  H20         0      54.754  10.347 -24.671  1.00  0.00     0.218 HD
ENDBRANCH  10  12
BRANCH   4  14
HETATM   14  C5          0      60.496  13.423 -21.546  1.00  0.00     0.025 C 
HETATM   15  C6          0      60.702  13.038 -20.230  1.00  0.00     0.004 C 
HETATM   16  C7          0      61.944  12.504 -19.902  1.00  0.00     0.026 C 
HETATM   17  C8          0      62.991  12.475 -20.817  1.00  0.00     0.112 C 
HETATM   18  C10         0      62.898  13.417 -21.833  1.00  0.00     0.112 C 
HETATM   19  C12         0      61.637  13.872 -22.199  1.00  0.00     0.028 C 
BRANCH  17  20
HETATM   20  O9          0      63.914  11.445 -20.806  1.00  0.00    -0.357 OA
HETATM   21  H9          0      64.456  11.230 -20.056  1.00  0.00     0.218 HD
ENDBRANCH  17  20
BRANCH  18  22
HETATM   22  O11         0      64.003  13.560 -22.660  1.00  0.00    -0.357 OA
HETATM   23  H11         0      64.098  12.928 -23.364  1.00  0.00     0.218 HD
ENDBRANCH  18  22
ENDBRANCH   4  14
BRANCH   8  24
HETATM   24  O17         0      54.272  11.302 -20.036  1.00  0.00    -0.359 OA
HETATM   25  H17         0      54.273  11.680 -19.165  1.00  0.00     0.218 HD
ENDBRANCH   8  24
TORSDOF 5
ENDMDL
MODEL 2
REMARK VINA RESULT:      -2.2      2.360      6.394
REMARK  5 active torsions:
REMARK  status: ('A' for Active; 'I' for Inactive)
REMARK    1  A    between atoms: C4_4  and  C5_5 
REMARK    2  A    between atoms: C8_8  and  O9_9 
REMARK    3  A    between atoms: C10_11  and  O11_12 
REMARK    4  A    between atoms: C16_18  and  O17_19 
REMARK    5  A    between atoms: C19_22  and  O20_23 
ROOT
HETATM    1  O1          0      61.505  12.514 -25.871  1.00  0.00    -0.286 OA
HETATM    2  C2          0      60.841  11.860 -25.020  1.00  0.00     0.201 C 
HETATM    3  C3          0      59.476  12.018 -24.850  1.00  0.00     0.067 C 
HETATM    4  C4          0      58.788  11.361 -23.837  1.00  0.00     0.103 C 
HETATM    5  O13         0      59.457  10.552 -23.035  1.00  0.00    -0.307 OA
HETATM    6  C14         0      60.760  10.395 -23.130  1.00  0.00     0.107 C 
HETATM    7  C15         0      61.513   9.887 -22.081  1.00  0.00     0.049 C 
HETATM    8  C16         0      62.900   9.960 -22.088  1.00  0.00     0.093 C 
HETATM    9  C18         0      63.477  10.053 -23.348  1.00  0.00     0.048 C 
HETATM   10  C19         0      62.739  10.513 -24.430  1.00  0.00     0.096 C 
HETATM   11  C21         0      61.427  10.862 -24.257  1.00  0.00     0.084 C 
ENDROOT
BRANCH  10  12
HETATM   12  O20         0      63.404  11.010 -25.546  1.00  0.00    -0.359 OA
HETATM   13  H20         0      62.913  11.102 -26.353  1.00  0.00     0.218 HD
ENDBRANCH  10  12
BRANCH   4  14
HETATM   14  C5          0      57.565  11.993 -23.339  1.00  0.00     0.025 C 
HETATM   15  C6          0      56.305  11.691 -23.835  1.00  0.00     0.004 C 
HETATM   16  C7          0      55.252  11.633 -22.928  1.00  0.00     0.026 C 
HETATM   17  C8          0      55.416  11.995 -21.595  1.00  0.00     0.112 C 
HETATM   18  C10         0      56.480  12.855 -21.355  1.00  0.00     0.112 C 
HETATM   19  C12         0      57.559  12.831 -22.231  1.00  0.00     0.028 C 
BRANCH  17  20
HETATM   20  O9          0      54.696  11.365 -20.596  1.00  0.00    -0.357 OA
HETATM   21  H9          0      55.096  10.871 -19.889  1.00  0.00     0.218 HD
ENDBRANCH  17  20
BRANCH  18  22
HETATM   22  O11         0      56.575  13.396 -20.081  1.00  0.00    -0.357 OA
HETATM   23  H11         0      57.136  12.943 -19.462  1.00  0.00     0.218 HD
ENDBRANCH  18  22
ENDBRANCH   4  14
BRANCH   8  24
HETATM   24  O17         0      63.620  10.256 -20.925  1.00  0.00    -0.359 OA
HETATM   25  H17         0      64.452   9.840 -20.733  1.00  0.00     0.218 HD
ENDBRANCH   8  24
TORSDOF 5
ENDMDL
MODEL 3
REMARK VINA RESULT:      -2.2      1.623      6.726
REMARK  5 active torsions:
REMARK  status: ('A' for Active; 'I' for Inactive)
REMARK    1  A    between atoms: C4_4  and  C5_5 
REMARK    2  A    between atoms: C8_8  and  O9_9 
REMARK    3  A    between atoms: C10_11  and  O11_12 
REMARK    4  A    between atoms: C16_18  and  O17_19 
REMARK    5  A    between atoms: C19_22  and  O20_23 
ROOT
HETATM    1  O1          0      60.767  16.073 -20.909  1.00  0.00    -0.286 OA
HETATM    2  C2          0      60.237  15.043 -21.408  1.00  0.00     0.201 C 
HETATM    3  C3          0      58.918  15.007 -21.829  1.00  0.00     0.067 C 
HETATM    4  C4          0      58.329  13.831 -22.280  1.00  0.00     0.103 C 
HETATM    5  O13         0      59.060  12.731 -22.322  1.00  0.00    -0.307 OA
HETATM    6  C14         0      60.305  12.702 -21.899  1.00  0.00     0.107 C 
HETATM    7  C15         0      60.936  11.512 -21.566  1.00  0.00     0.049 C 
HETATM    8  C16         0      62.147  11.504 -20.885  1.00  0.00     0.093 C 
HETATM    9  C18         0      62.913  12.654 -21.035  1.00  0.00     0.048 C 
HETATM   10  C19         0      62.321  13.851 -21.413  1.00  0.00     0.096 C 
HETATM   11  C21         0      60.975  13.896 -21.656  1.00  0.00     0.084 C 
ENDROOT
BRANCH  10  12
HETATM   12  O20         0      62.975  15.049 -21.142  1.00  0.00    -0.359 OA
HETATM   13  H20         0      63.338  15.171 -20.273  1.00  0.00     0.218 HD
ENDBRANCH  10  12
BRANCH   4  14
HETATM   14  C5          0      56.878  13.708 -22.129  1.00  0.00     0.025 C 
HETATM   15  C6          0      55.982  14.138 -23.097  1.00  0.00     0.004 C 
HETATM   16  C7          0      54.851  13.359 -23.319  1.00  0.00     0.026 C 
HETATM   17  C8          0      54.550  12.264 -22.516  1.00  0.00     0.112 C 
HETATM   18  C10         0      55.118  12.301 -21.249  1.00  0.00     0.112 C 
HETATM   19  C12         0      56.296  13.017 -21.074  1.00  0.00     0.028 C 
BRANCH  17  20
HETATM   20  O9          0      53.914  11.153 -23.041  1.00  0.00    -0.357 OA
HETATM   21  H9          0      53.525  11.129 -23.907  1.00  0.00     0.218 HD
ENDBRANCH  17  20
BRANCH  18  22
HETATM   22  O11         0      54.700  11.334 -20.345  1.00  0.00    -0.357 OA
HETATM   23  H11         0      53.853  11.466 -19.935  1.00  0.00     0.218 HD
ENDBRANCH  18  22
ENDBRANCH   4  14
BRANCH   8  24
HETATM   24  O17         0      62.409  10.572 -19.875  1.00  0.00    -0.359 OA
HETATM   25  H17         0      61.769  10.371 -19.203  1.00  0.00     0.218 HD
ENDBRANCH   8  24
TORSDOF 5
ENDMDL
MODEL 4
REMARK VINA RESULT:      -2.2      2.264      3.254
REMARK  5 active torsions:
REMARK  status: ('A' for Active; 'I' for Inactive)
REMARK    1  A    between atoms: C4_4  and  C5_5 
REMARK    2  A    between atoms: C8_8  and  O9_9 
REMARK    3  A    between atoms: C10_11  and  O11_12 
REMARK    4  A    between atoms: C16_18  and  O17_19 
REMARK    5  A    between atoms: C19_22  and  O20_23 
ROOT
HETATM    1  O1          0      55.526  16.500 -22.118  1.00  0.00    -0.286 OA
HETATM    2  C2          0      55.972  15.452 -21.575  1.00  0.00     0.201 C 
HETATM    3  C3          0      57.313  15.267 -21.288  1.00  0.00     0.067 C 
HETATM    4  C4          0      57.792  14.063 -20.785  1.00  0.00     0.103 C 
HETATM    5  O13         0      56.934  13.083 -20.560  1.00  0.00    -0.307 OA
HETATM    6  C14         0      55.656  13.193 -20.850  1.00  0.00     0.107 C 
HETATM    7  C15         0      54.841  12.079 -20.997  1.00  0.00     0.049 C 
HETATM    8  C16         0      53.570  12.183 -21.548  1.00  0.00     0.093 C 
HETATM    9  C18         0      52.982  13.438 -21.436  1.00  0.00     0.048 C 
HETATM   10  C19         0      53.764  14.568 -21.242  1.00  0.00     0.096 C 
HETATM   11  C21         0      55.123  14.444 -21.142  1.00  0.00     0.084 C 
ENDROOT
BRANCH  10  12
HETATM   12  O20         0      53.245  15.818 -21.563  1.00  0.00    -0.359 OA
HETATM   13  H20         0      52.360  16.018 -21.282  1.00  0.00     0.218 HD
ENDBRANCH  10  12
BRANCH   4  14
HETATM   14  C5          0      59.188  13.725 -21.069  1.00  0.00     0.025 C 
HETATM   15  C6          0      60.232  14.069 -20.223  1.00  0.00     0.004 C 
HETATM   16  C7          0      61.262  13.148 -20.063  1.00  0.00     0.026 C 
HETATM   17  C8          0      61.323  11.983 -20.820  1.00  0.00     0.112 C 
HETATM   18  C10         0      60.634  12.038 -22.025  1.00  0.00     0.112 C 
HETATM   19  C12         0      59.554  12.906 -22.129  1.00  0.00     0.028 C 
BRANCH  17  20
HETATM   20  O9          0      61.851  10.820 -20.289  1.00  0.00    -0.357 OA
HETATM   21  H9          0      62.556  10.327 -20.694  1.00  0.00     0.218 HD
ENDBRANCH  17  20
BRANCH  18  22
HETATM   22  O11         0      60.816  10.977 -22.901  1.00  0.00    -0.357 OA
HETATM   23  H11         0      61.532  11.050 -23.522  1.00  0.00     0.218 HD
ENDBRANCH  18  22
ENDBRANCH   4  14
BRANCH   8  24
HETATM   24  O17         0      53.075  11.215 -22.429  1.00  0.00    -0.359 OA
HETATM   25  H17         0      53.515  11.013 -23.247  1.00  0.00     0.218 HD
ENDBRANCH   8  24
TORSDOF 5
ENDMDL
MODEL 5
REMARK VINA RESULT:      -2.1      2.967      6.668
REMARK  5 active torsions:
REMARK  status: ('A' for Active; 'I' for Inactive)
REMARK    1  A    between atoms: C4_4  and  C5_5 
REMARK    2  A    between atoms: C8_8  and  O9_9 
REMARK    3  A    between atoms: C10_11  and  O11_12 
REMARK    4  A    between atoms: C16_18  and  O17_19 
REMARK    5  A    between atoms: C19_22  and  O20_23 
ROOT
HETATM    1  O1          0      58.151  11.561 -27.271  1.00  0.00    -0.286 OA
HETATM    2  C2          0      57.924  11.086 -26.124  1.00  0.00     0.201 C 
HETATM    3  C3          0      56.695  11.199 -25.495  1.00  0.00     0.067 C 
HETATM    4  C4          0      56.501  10.757 -24.192  1.00  0.00     0.103 C 
HETATM    5  O13         0      57.514  10.199 -23.553  1.00  0.00    -0.307 OA
HETATM    6  C14         0      58.711  10.101 -24.090  1.00  0.00     0.107 C 
HETATM    7  C15         0      59.845   9.898 -23.317  1.00  0.00     0.049 C 
HETATM    8  C16         0      61.119  10.049 -23.851  1.00  0.00     0.093 C 
HETATM    9  C18         0      61.202   9.878 -25.227  1.00  0.00     0.048 C 
HETATM   10  C19         0      60.077  10.028 -26.026  1.00  0.00     0.096 C 
HETATM   11  C21         0      58.872  10.330 -25.452  1.00  0.00     0.084 C 
ENDROOT
BRANCH  10  12
HETATM   12  O20         0      60.236  10.289 -27.384  1.00  0.00    -0.359 OA
HETATM   13  H20         0      61.106  10.504 -27.697  1.00  0.00     0.218 HD
ENDBRANCH  10  12
BRANCH   4  14
HETATM   14  C5          0      55.453  11.416 -23.411  1.00  0.00     0.025 C 
HETATM   15  C6          0      54.104  11.305 -23.717  1.00  0.00     0.004 C 
HETATM   16  C7          0      53.208  11.208 -22.658  1.00  0.00     0.026 C 
HETATM   17  C8          0      53.621  11.352 -21.338  1.00  0.00     0.112 C 
HETATM   18  C10         0      54.800  12.067 -21.174  1.00  0.00     0.112 C 
HETATM   19  C12         0      55.717  12.077 -22.218  1.00  0.00     0.028 C 
BRANCH  17  20
HETATM   20  O9          0      53.002  10.648 -20.321  1.00  0.00    -0.357 OA
HETATM   21  H9          0      52.594  11.058 -19.567  1.00  0.00     0.218 HD
ENDBRANCH  17  20
BRANCH  18  22
HETATM   22  O11         0      55.156  12.402 -19.875  1.00  0.00    -0.357 OA
HETATM   23  H11         0      54.454  12.661 -19.290  1.00  0.00     0.218 HD
ENDBRANCH  18  22
ENDBRANCH   4  14
BRANCH   8  24
HETATM   24  O17         0      62.149  10.651 -23.120  1.00  0.00    -0.359 OA
HETATM   25  H17         0      62.611  10.186 -22.433  1.00  0.00     0.218 HD
ENDBRANCH   8  24
TORSDOF 5
ENDMDL
MODEL 6
REMARK VINA RESULT:      -2.0      2.783      7.378
REMARK  5 active torsions:
REMARK  status: ('A' for Active; 'I' for Inactive)
REMARK    1  A    between atoms: C4_4  and  C5_5 
REMARK    2  A    between atoms: C8_8  and  O9_9 
REMARK    3  A    between atoms: C10_11  and  O11_12 
REMARK    4  A    between atoms: C16_18  and  O17_19 
REMARK    5  A    between atoms: C19_22  and  O20_23 
ROOT
HETATM    1  O1          0      57.542  12.426 -23.807  1.00  0.00    -0.286 OA
HETATM    2  C2          0      56.928  12.480 -22.706  1.00  0.00     0.201 C 
HETATM    3  C3          0      55.814  11.706 -22.429  1.00  0.00     0.067 C 
HETATM    4  C4          0      55.095  11.859 -21.249  1.00  0.00     0.103 C 
HETATM    5  O13         0      55.506  12.753 -20.367  1.00  0.00    -0.307 OA
HETATM    6  C14         0      56.534  13.540 -20.597  1.00  0.00     0.107 C 
HETATM    7  C15         0      56.725  14.718 -19.889  1.00  0.00     0.049 C 
HETATM    8  C16         0      57.657  15.664 -20.301  1.00  0.00     0.093 C 
HETATM    9  C18         0      58.699  15.164 -21.072  1.00  0.00     0.048 C 
HETATM   10  C19         0      58.558  13.965 -21.756  1.00  0.00     0.096 C 
HETATM   11  C21         0      57.390  13.259 -21.656  1.00  0.00     0.084 C 
ENDROOT
BRANCH  10  12
HETATM   12  O20         0      59.392  13.696 -22.837  1.00  0.00    -0.359 OA
HETATM   13  H20         0      60.197  14.194 -22.913  1.00  0.00     0.218 HD
ENDBRANCH  10  12
BRANCH   4  14
HETATM   14  C5          0      53.678  11.494 -21.276  1.00  0.00     0.025 C 
HETATM   15  C6          0      52.980  11.102 -20.143  1.00  0.00     0.004 C 
HETATM   16  C7          0      51.665  11.535 -20.013  1.00  0.00     0.026 C 
HETATM   17  C8          0      51.019  12.223 -21.035  1.00  0.00     0.112 C 
HETATM   18  C10         0      51.547  12.009 -22.301  1.00  0.00     0.112 C 
HETATM   19  C12         0      52.888  11.659 -22.407  1.00  0.00     0.028 C 
BRANCH  17  20
HETATM   20  O9          0      50.074  13.192 -20.750  1.00  0.00    -0.357 OA
HETATM   21  H9          0      50.186  13.858 -20.082  1.00  0.00     0.218 HD
ENDBRANCH  17  20
BRANCH  18  22
HETATM   22  O11         0      50.830  12.517 -23.375  1.00  0.00    -0.357 OA
HETATM   23  H11         0      49.909  12.700 -23.229  1.00  0.00     0.218 HD
ENDBRANCH  18  22
ENDBRANCH   4  14
BRANCH   8  24
HETATM   24  O17         0      57.383  17.035 -20.233  1.00  0.00    -0.359 OA
HETATM   25  H17         0      56.613  17.368 -19.787  1.00  0.00     0.218 HD
ENDBRANCH   8  24
TORSDOF 5
ENDMDL
MODEL 7
REMARK VINA RESULT:      -1.9      1.487      1.736
REMARK  5 active torsions:
REMARK  status: ('A' for Active; 'I' for Inactive)
REMARK    1  A    between atoms: C4_4  and  C5_5 
REMARK    2  A    between atoms: C8_8  and  O9_9 
REMARK    3  A    between atoms: C10_11  and  O11_12 
REMARK    4  A    between atoms: C16_18  and  O17_19 
REMARK    5  A    between atoms: C19_22  and  O20_23 
ROOT
HETATM    1  O1          0      59.771  10.891 -24.222  1.00  0.00    -0.286 OA
HETATM    2  C2          0      59.491  11.866 -23.473  1.00  0.00     0.201 C 
HETATM    3  C3          0      60.457  12.694 -22.926  1.00  0.00     0.067 C 
HETATM    4  C4          0      60.129  13.698 -22.022  1.00  0.00     0.103 C 
HETATM    5  O13         0      58.860  13.871 -21.698  1.00  0.00    -0.307 OA
HETATM    6  C14         0      57.908  13.090 -22.159  1.00  0.00     0.107 C 
HETATM    7  C15         0      56.670  13.000 -21.538  1.00  0.00     0.049 C 
HETATM    8  C16         0      55.767  11.997 -21.869  1.00  0.00     0.093 C 
HETATM    9  C18         0      55.921  11.467 -23.144  1.00  0.00     0.048 C 
HETATM   10  C19         0      57.132  11.580 -23.814  1.00  0.00     0.096 C 
HETATM   11  C21         0      58.177  12.233 -23.221  1.00  0.00     0.084 C 
ENDROOT
BRANCH  10  12
HETATM   12  O20         0      57.417  10.703 -24.856  1.00  0.00    -0.359 OA
HETATM   13  H20         0      56.915  10.785 -25.658  1.00  0.00     0.218 HD
ENDBRANCH  10  12
BRANCH   4  14
HETATM   14  C5          0      61.161  14.101 -21.065  1.00  0.00     0.025 C 
HETATM   15  C6          0      61.736  13.218 -20.163  1.00  0.00     0.004 C 
HETATM   16  C7          0      63.097  13.352 -19.907  1.00  0.00     0.026 C 
HETATM   17  C8          0      63.836  14.410 -20.426  1.00  0.00     0.112 C 
HETATM   18  C10         0      63.088  15.532 -20.757  1.00  0.00     0.112 C 
HETATM   19  C12         0      61.750  15.359 -21.091  1.00  0.00     0.028 C 
BRANCH  17  20
HETATM   20  O9          0      65.166  14.246 -20.769  1.00  0.00    -0.357 OA
HETATM   21  H9          0      65.753  14.966 -20.969  1.00  0.00     0.218 HD
ENDBRANCH  17  20
BRANCH  18  22
HETATM   22  O11         0      63.791  16.678 -21.099  1.00  0.00    -0.357 OA
HETATM   23  H11         0      64.190  16.697 -21.962  1.00  0.00     0.218 HD
ENDBRANCH  18  22
ENDBRANCH   4  14
BRANCH   8  24
HETATM   24  O17         0      55.004  11.351 -20.891  1.00  0.00    -0.359 OA
HETATM   25  H17         0      54.924  10.405 -20.864  1.00  0.00     0.218 HD
ENDBRANCH   8  24
TORSDOF 5
ENDMDL
MODEL 8
REMARK VINA RESULT:      -1.9      3.479      5.011
REMARK  5 active torsions:
REMARK  status: ('A' for Active; 'I' for Inactive)
REMARK    1  A    between atoms: C4_4  and  C5_5 
REMARK    2  A    between atoms: C8_8  and  O9_9 
REMARK    3  A    between atoms: C10_11  and  O11_12 
REMARK    4  A    between atoms: C16_18  and  O17_19 
REMARK    5  A    between atoms: C19_22  and  O20_23 
ROOT
HETATM    1  O1          0      54.538  15.000 -22.857  1.00  0.00    -0.286 OA
HETATM    2  C2          0      54.894  13.885 -22.385  1.00  0.00     0.201 C 
HETATM    3  C3          0      55.945  13.150 -22.907  1.00  0.00     0.067 C 
HETATM    4  C4          0      56.250  11.879 -22.435  1.00  0.00     0.103 C 
HETATM    5  O13         0      55.526  11.377 -21.450  1.00  0.00    -0.307 OA
HETATM    6  C14         0      54.495  12.017 -20.944  1.00  0.00     0.107 C 
HETATM    7  C15         0      53.511  11.360 -20.219  1.00  0.00     0.049 C 
HETATM    8  C16         0      52.307  11.981 -19.908  1.00  0.00     0.093 C 
HETATM    9  C18         0      52.354  13.369 -19.876  1.00  0.00     0.048 C 
HETATM   10  C19         0      53.353  14.057 -20.552  1.00  0.00     0.096 C 
HETATM   11  C21         0      54.308  13.362 -21.242  1.00  0.00     0.084 C 
ENDROOT
BRANCH  10  12
HETATM   12  O20         0      53.155  15.395 -20.880  1.00  0.00    -0.359 OA
HETATM   13  H20         0      53.900  15.981 -20.825  1.00  0.00     0.218 HD
ENDBRANCH  10  12
BRANCH   4  14
HETATM   14  C5          0      56.910  10.960 -23.364  1.00  0.00     0.025 C 
HETATM   15  C6          0      56.237  10.323 -24.397  1.00  0.00     0.004 C 
HETATM   16  C7          0      56.907  10.174 -25.607  1.00  0.00     0.026 C 
HETATM   17  C8          0      58.246  10.523 -25.747  1.00  0.00     0.112 C 
HETATM   18  C10         0      58.969  10.536 -24.562  1.00  0.00     0.112 C 
HETATM   19  C12         0      58.286  10.773 -23.375  1.00  0.00     0.028 C 
BRANCH  17  20
HETATM   20  O9          0      58.728  11.016 -26.947  1.00  0.00    -0.357 OA
HETATM   21  H9          0      58.419  10.728 -27.798  1.00  0.00     0.218 HD
ENDBRANCH  17  20
BRANCH  18  22
HETATM   22  O11         0      60.344  10.692 -24.666  1.00  0.00    -0.357 OA
HETATM   23  H11         0      60.825   9.991 -25.091  1.00  0.00     0.218 HD
ENDBRANCH  18  22
ENDBRANCH   4  14
BRANCH   8  24
HETATM   24  O17         0      51.093  11.287 -19.962  1.00  0.00    -0.359 OA
HETATM   25  H17         0      50.275  11.691 -19.698  1.00  0.00     0.218 HD
ENDBRANCH   8  24
TORSDOF 5
ENDMDL
MODEL 9
REMARK VINA RESULT:      -1.8      1.939      6.823
REMARK  5 active torsions:
REMARK  status: ('A' for Active; 'I' for Inactive)
REMARK    1  A    between atoms: C4_4  and  C5_5 
REMARK    2  A    between atoms: C8_8  and  O9_9 
REMARK    3  A    between atoms: C10_11  and  O11_12 
REMARK    4  A    between atoms: C16_18  and  O17_19 
REMARK    5  A    between atoms: C19_22  and  O20_23 
ROOT
HETATM    1  O1          0      59.553  11.711 -24.199  1.00  0.00    -0.286 OA
HETATM    2  C2          0      58.872  12.238 -23.277  1.00  0.00     0.201 C 
HETATM    3  C3          0      57.578  11.846 -22.980  1.00  0.00     0.067 C 
HETATM    4  C4          0      56.814  12.513 -22.029  1.00  0.00     0.103 C 
HETATM    5  O13         0      57.353  13.531 -21.383  1.00  0.00    -0.307 OA
HETATM    6  C14         0      58.564  13.968 -21.652  1.00  0.00     0.107 C 
HETATM    7  C15         0      58.980  15.240 -21.287  1.00  0.00     0.049 C 
HETATM    8  C16         0      60.155  15.788 -21.789  1.00  0.00     0.093 C 
HETATM    9  C18         0      61.104  14.861 -22.202  1.00  0.00     0.048 C 
HETATM   10  C19         0      60.729  13.565 -22.530  1.00  0.00     0.096 C 
HETATM   11  C21         0      59.416  13.192 -22.430  1.00  0.00     0.084 C 
ENDROOT
BRANCH  10  12
HETATM   12  O20         0      61.565  12.798 -23.335  1.00  0.00    -0.359 OA
HETATM   13  H20         0      61.255  12.560 -24.201  1.00  0.00     0.218 HD
ENDBRANCH  10  12
BRANCH   4  14
HETATM   14  C5          0      55.360  12.468 -22.187  1.00  0.00     0.025 C 
HETATM   15  C6          0      54.726  12.722 -23.395  1.00  0.00     0.004 C 
HETATM   16  C7          0      53.613  11.951 -23.714  1.00  0.00     0.026 C 
HETATM   17  C8          0      53.066  11.049 -22.806  1.00  0.00     0.112 C 
HETATM   18  C10         0      53.351  11.322 -21.475  1.00  0.00     0.112 C 
HETATM   19  C12         0      54.515  12.022 -21.179  1.00  0.00     0.028 C 
BRANCH  17  20
HETATM   20  O9          0      52.476   9.876 -23.241  1.00  0.00    -0.357 OA
HETATM   21  H9          0      52.757   9.398 -24.013  1.00  0.00     0.218 HD
ENDBRANCH  17  20
BRANCH  18  22
HETATM   22  O11         0      52.679  10.570 -20.522  1.00  0.00    -0.357 OA
HETATM   23  H11         0      52.609   9.636 -20.682  1.00  0.00     0.218 HD
ENDBRANCH  18  22
ENDBRANCH   4  14
BRANCH   8  24
HETATM   24  O17         0      60.231  17.135 -22.160  1.00  0.00    -0.359 OA
HETATM   25  H17         0      60.865  17.442 -22.798  1.00  0.00     0.218 HD
ENDBRANCH   8  24
TORSDOF 5
ENDMDL
