MODEL 1
REMARK VINA RESULT:      -0.0      0.000      0.000
REMARK  5 active torsions:
REMARK  status: ('A' for Active; 'I' for Inactive)
REMARK    1  A    between atoms: C4_4  and  C5_5 
REMARK    2  A    between atoms: C8_8  and  O9_9 
REMARK    3  A    between atoms: C10_11  and  O11_12 
REMARK    4  A    between atoms: C16_18  and  O17_19 
REMARK    5  A    between atoms: C19_22  and  O20_23 
ROOT
HETATM    1  O1          0      63.521 100.596 -29.135  1.00  0.00    -0.286 OA
HETATM    2  C2          0      63.813 101.823 -29.102  1.00  0.00     0.201 C 
HETATM    3  C3          0      65.102 102.282 -28.892  1.00  0.00     0.067 C 
HETATM    4  C4          0      65.381 103.638 -28.757  1.00  0.00     0.103 C 
HETATM    5  O13         0      64.386 104.502 -28.854  1.00  0.00    -0.307 OA
HETATM    6  C14         0      63.139 104.118 -29.015  1.00  0.00     0.107 C 
HETATM    7  C15         0      62.072 104.955 -28.721  1.00  0.00     0.049 C 
HETATM    8  C16         0      60.772 104.469 -28.648  1.00  0.00     0.093 C 
HETATM    9  C18         0      60.538 103.309 -29.376  1.00  0.00     0.048 C 
HETATM   10  C19         0      61.588 102.472 -29.728  1.00  0.00     0.096 C 
HETATM   11  C21         0      62.867 102.801 -29.369  1.00  0.00     0.084 C 
ENDROOT
BRANCH  10  12
HETATM   12  O20         0      61.322 101.145 -30.052  1.00  0.00    -0.359 OA
HETATM   13  H20         0      60.621 100.705 -29.586  1.00  0.00     0.218 HD
ENDBRANCH  10  12
BRANCH   4  14
HETATM   14  C5          0      66.560 104.005 -27.970  1.00  0.00     0.025 C 
HETATM   15  C6          0      66.634 105.174 -27.227  1.00  0.00     0.004 C 
HETATM   16  C7          0      67.274 105.114 -25.994  1.00  0.00     0.026 C 
HETATM   17  C8          0      67.937 103.967 -25.571  1.00  0.00     0.112 C 
HETATM   18  C10         0      68.343 103.121 -26.595  1.00  0.00     0.112 C 
HETATM   19  C12         0      67.632 103.140 -27.789  1.00  0.00     0.028 C 
BRANCH  17  20
HETATM   20  O9          0      67.980 103.626 -24.231  1.00  0.00    -0.357 OA
HETATM   21  H9          0      68.782 103.578 -23.723  1.00  0.00     0.218 HD
ENDBRANCH  17  20
BRANCH  18  22
HETATM   22  O11         0      69.170 102.063 -26.245  1.00  0.00    -0.357 OA
HETATM   23  H11         0      69.530 102.070 -25.366  1.00  0.00     0.218 HD
ENDBRANCH  18  22
ENDBRANCH   4  14
BRANCH   8  24
HETATM   24  O17         0      59.882 104.913 -27.664  1.00  0.00    -0.359 OA
HETATM   25  H17         0      59.722 104.412 -26.873  1.00  0.00     0.218 HD
ENDBRANCH   8  24
TORSDOF 5
ENDMDL
MODEL 2
REMARK VINA RESULT:      -0.0      7.671     11.397
REMARK  5 active torsions:
REMARK  status: ('A' for Active; 'I' for Inactive)
REMARK    1  A    between atoms: C4_4  and  C5_5 
REMARK    2  A    between atoms: C8_8  and  O9_9 
REMARK    3  A    between atoms: C10_11  and  O11_12 
REMARK    4  A    between atoms: C16_18  and  O17_19 
REMARK    5  A    between atoms: C19_22  and  O20_23 
ROOT
HETATM    1  O1          0      70.976 110.649 -21.478  1.00  0.00    -0.286 OA
HETATM    2  C2          0      69.739 110.896 -21.497  1.00  0.00     0.201 C 
HETATM    3  C3          0      68.775 109.901 -21.494  1.00  0.00     0.067 C 
HETATM    4  C4          0      67.423 110.197 -21.620  1.00  0.00     0.103 C 
HETATM    5  O13         0      67.057 111.463 -21.724  1.00  0.00    -0.307 OA
HETATM    6  C14         0      67.933 112.442 -21.770  1.00  0.00     0.107 C 
HETATM    7  C15         0      67.604 113.694 -22.271  1.00  0.00     0.049 C 
HETATM    8  C16         0      68.584 114.638 -22.553  1.00  0.00     0.093 C 
HETATM    9  C18         0      69.768 114.486 -21.842  1.00  0.00     0.048 C 
HETATM   10  C19         0      70.105 113.259 -21.287  1.00  0.00     0.096 C 
HETATM   11  C21         0      69.258 112.194 -21.428  1.00  0.00     0.084 C 
ENDROOT
BRANCH  10  12
HETATM   12  O20         0      71.436 112.997 -20.974  1.00  0.00    -0.359 OA
HETATM   13  H20         0      71.754 112.110 -21.092  1.00  0.00     0.218 HD
ENDBRANCH  10  12
BRANCH   4  14
HETATM   14  C5          0      66.562 109.165 -22.201  1.00  0.00     0.025 C 
HETATM   15  C6          0      65.384 109.458 -22.873  1.00  0.00     0.004 C 
HETATM   16  C7          0      65.076 108.696 -23.995  1.00  0.00     0.026 C 
HETATM   17  C8          0      65.841 107.594 -24.362  1.00  0.00     0.112 C 
HETATM   18  C10         0      66.567 107.023 -23.326  1.00  0.00     0.112 C 
HETATM   19  C12         0      66.936 107.828 -22.255  1.00  0.00     0.028 C 
BRANCH  17  20
HETATM   20  O9          0      66.006 107.257 -25.693  1.00  0.00    -0.357 OA
HETATM   21  H9          0      66.778 107.477 -26.202  1.00  0.00     0.218 HD
ENDBRANCH  17  20
BRANCH  18  22
HETATM   22  O11         0      67.196 105.814 -23.591  1.00  0.00    -0.357 OA
HETATM   23  H11         0      67.527 105.686 -24.472  1.00  0.00     0.218 HD
ENDBRANCH  18  22
ENDBRANCH   4  14
BRANCH   8  24
HETATM   24  O17         0      68.508 115.450 -23.690  1.00  0.00    -0.359 OA
HETATM   25  H17         0      69.200 115.465 -24.340  1.00  0.00     0.218 HD
ENDBRANCH   8  24
TORSDOF 5
ENDMDL
MODEL 3
REMARK VINA RESULT:      -0.0     16.556     18.189
REMARK  5 active torsions:
REMARK  status: ('A' for Active; 'I' for Inactive)
REMARK    1  A    between atoms: C4_4  and  C5_5 
REMARK    2  A    between atoms: C8_8  and  O9_9 
REMARK    3  A    between atoms: C10_11  and  O11_12 
REMARK    4  A    between atoms: C16_18  and  O17_19 
REMARK    5  A    between atoms: C19_22  and  O20_23 
ROOT
HETATM    1  O1          0      74.031 113.606 -17.947  1.00  0.00    -0.286 OA
HETATM    2  C2          0      73.012 113.193 -17.327  1.00  0.00     0.201 C 
HETATM    3  C3          0      71.736 113.666 -17.582  1.00  0.00     0.067 C 
HETATM    4  C4          0      70.646 113.270 -16.815  1.00  0.00     0.103 C 
HETATM    5  O13         0      70.840 112.407 -15.834  1.00  0.00    -0.307 OA
HETATM    6  C14         0      72.036 111.956 -15.526  1.00  0.00     0.107 C 
HETATM    7  C15         0      72.307 111.388 -14.290  1.00  0.00     0.049 C 
HETATM    8  C16         0      73.612 111.149 -13.875  1.00  0.00     0.093 C 
HETATM    9  C18         0      74.536 111.000 -14.903  1.00  0.00     0.048 C 
HETATM   10  C19         0      74.276 111.515 -16.165  1.00  0.00     0.096 C 
HETATM   11  C21         0      73.094 112.161 -16.405  1.00  0.00     0.084 C 
ENDROOT
BRANCH  10  12
HETATM   12  O20         0      75.337 111.751 -17.035  1.00  0.00    -0.359 OA
HETATM   13  H20         0      75.161 112.241 -17.829  1.00  0.00     0.218 HD
ENDBRANCH  10  12
BRANCH   4  14
HETATM   14  C5          0      69.519 114.201 -16.723  1.00  0.00     0.025 C 
HETATM   15  C6          0      68.653 114.227 -15.639  1.00  0.00     0.004 C 
HETATM   16  C7          0      68.203 115.470 -15.204  1.00  0.00     0.026 C 
HETATM   17  C8          0      68.494 116.637 -15.903  1.00  0.00     0.112 C 
HETATM   18  C10         0      68.794 116.449 -17.245  1.00  0.00     0.112 C 
HETATM   19  C12         0      69.323 115.226 -17.639  1.00  0.00     0.028 C 
BRANCH  17  20
HETATM   20  O9          0      68.670 117.836 -15.236  1.00  0.00    -0.357 OA
HETATM   21  H9          0      69.217 118.544 -15.559  1.00  0.00     0.218 HD
ENDBRANCH  17  20
BRANCH  18  22
HETATM   22  O11         0      68.906 117.588 -18.029  1.00  0.00    -0.357 OA
HETATM   23  H11         0      68.182 117.782 -18.613  1.00  0.00     0.218 HD
ENDBRANCH  18  22
ENDBRANCH   4  14
BRANCH   8  24
HETATM   24  O17         0      74.011 111.380 -12.554  1.00  0.00    -0.359 OA
HETATM   25  H17         0      74.204 112.254 -12.237  1.00  0.00     0.218 HD
ENDBRANCH   8  24
TORSDOF 5
ENDMDL
MODEL 4
REMARK VINA RESULT:      -0.0     10.987     13.969
REMARK  5 active torsions:
REMARK  status: ('A' for Active; 'I' for Inactive)
REMARK    1  A    between atoms: C4_4  and  C5_5 
REMARK    2  A    between atoms: C8_8  and  O9_9 
REMARK    3  A    between atoms: C10_11  and  O11_12 
REMARK    4  A    between atoms: C16_18  and  O17_19 
REMARK    5  A    between atoms: C19_22  and  O20_23 
ROOT
HETATM    1  O1          0      67.928 115.533 -22.750  1.00  0.00    -0.286 OA
HETATM    2  C2          0      68.721 115.073 -21.883  1.00  0.00     0.201 C 
HETATM    3  C3          0      69.777 114.236 -22.200  1.00  0.00     0.067 C 
HETATM    4  C4          0      70.572 113.660 -21.216  1.00  0.00     0.103 C 
HETATM    5  O13         0      70.318 113.941 -19.950  1.00  0.00    -0.307 OA
HETATM    6  C14         0      69.304 114.699 -19.592  1.00  0.00     0.107 C 
HETATM    7  C15         0      68.794 114.676 -18.302  1.00  0.00     0.049 C 
HETATM    8  C16         0      67.579 115.277 -17.996  1.00  0.00     0.093 C 
HETATM    9  C18         0      67.199 116.304 -18.853  1.00  0.00     0.048 C 
HETATM   10  C19         0      67.726 116.384 -20.134  1.00  0.00     0.096 C 
HETATM   11  C21         0      68.640 115.455 -20.552  1.00  0.00     0.084 C 
ENDROOT
BRANCH  10  12
HETATM   12  O20         0      67.046 117.113 -21.105  1.00  0.00    -0.359 OA
HETATM   13  H20         0      67.554 117.678 -21.675  1.00  0.00     0.218 HD
ENDBRANCH  10  12
BRANCH   4  14
HETATM   14  C5          0      71.223 112.389 -21.539  1.00  0.00     0.025 C 
HETATM   15  C6          0      71.571 111.456 -20.573  1.00  0.00     0.004 C 
HETATM   16  C7          0      71.405 110.111 -20.887  1.00  0.00     0.026 C 
HETATM   17  C8          0      71.035 109.700 -22.163  1.00  0.00     0.112 C 
HETATM   18  C10         0      71.329 110.608 -23.172  1.00  0.00     0.112 C 
HETATM   19  C12         0      71.404 111.957 -22.846  1.00  0.00     0.028 C 
BRANCH  17  20
HETATM   20  O9          0      70.251 108.575 -22.347  1.00  0.00    -0.357 OA
HETATM   21  H9          0      70.431 107.735 -21.940  1.00  0.00     0.218 HD
ENDBRANCH  17  20
BRANCH  18  22
HETATM   22  O11         0      71.155 110.173 -24.479  1.00  0.00    -0.357 OA
HETATM   23  H11         0      71.802 110.455 -25.115  1.00  0.00     0.218 HD
ENDBRANCH  18  22
ENDBRANCH   4  14
BRANCH   8  24
HETATM   24  O17         0      66.669 114.677 -17.118  1.00  0.00    -0.359 OA
HETATM   25  H17         0      66.901 114.479 -16.218  1.00  0.00     0.218 HD
ENDBRANCH   8  24
TORSDOF 5
ENDMDL
MODEL 5
REMARK VINA RESULT:      -0.0      8.951     11.217
REMARK  5 active torsions:
REMARK  status: ('A' for Active; 'I' for Inactive)
REMARK    1  A    between atoms: C4_4  and  C5_5 
REMARK    2  A    between atoms: C8_8  and  O9_9 
REMARK    3  A    between atoms: C10_11  and  O11_12 
REMARK    4  A    between atoms: C16_18  and  O17_19 
REMARK    5  A    between atoms: C19_22  and  O20_23 
ROOT
HETATM    1  O1          0      63.973 106.293 -21.263  1.00  0.00    -0.286 OA
HETATM    2  C2          0      64.285 106.942 -20.227  1.00  0.00     0.201 C 
HETATM    3  C3          0      64.089 108.307 -20.110  1.00  0.00     0.067 C 
HETATM    4  C4          0      64.535 109.015 -19.000  1.00  0.00     0.103 C 
HETATM    5  O13         0      65.141 108.355 -18.028  1.00  0.00    -0.307 OA
HETATM    6  C14         0      65.385 107.065 -18.106  1.00  0.00     0.107 C 
HETATM    7  C15         0      66.345 106.454 -17.312  1.00  0.00     0.049 C 
HETATM    8  C16         0      66.777 105.159 -17.570  1.00  0.00     0.093 C 
HETATM    9  C18         0      65.872 104.366 -18.264  1.00  0.00     0.048 C 
HETATM   10  C19         0      64.870 104.944 -19.031  1.00  0.00     0.096 C 
HETATM   11  C21         0      64.762 106.307 -19.091  1.00  0.00     0.084 C 
ENDROOT
BRANCH  10  12
HETATM   12  O20         0      64.267 104.197 -20.039  1.00  0.00    -0.359 OA
HETATM   13  H20         0      63.786 104.664 -20.711  1.00  0.00     0.218 HD
ENDBRANCH  10  12
BRANCH   4  14
HETATM   14  C5          0      64.845 110.433 -19.189  1.00  0.00     0.025 C 
HETATM   15  C6          0      65.763 111.113 -18.402  1.00  0.00     0.004 C 
HETATM   16  C7          0      66.576 112.053 -19.027  1.00  0.00     0.026 C 
HETATM   17  C8          0      66.395 112.403 -20.361  1.00  0.00     0.112 C 
HETATM   18  C10         0      65.118 112.168 -20.853  1.00  0.00     0.112 C 
HETATM   19  C12         0      64.358 111.164 -20.264  1.00  0.00     0.028 C 
BRANCH  17  20
HETATM   20  O9          0      67.472 112.752 -21.155  1.00  0.00    -0.357 OA
HETATM   21  H9          0      67.462 112.714 -22.105  1.00  0.00     0.218 HD
ENDBRANCH  17  20
BRANCH  18  22
HETATM   22  O11         0      64.828 112.670 -22.114  1.00  0.00    -0.357 OA
HETATM   23  H11         0      64.285 112.131 -22.677  1.00  0.00     0.218 HD
ENDBRANCH  18  22
ENDBRANCH   4  14
BRANCH   8  24
HETATM   24  O17         0      68.124 104.801 -17.445  1.00  0.00    -0.359 OA
HETATM   25  H17         0      68.577 104.315 -18.124  1.00  0.00     0.218 HD
ENDBRANCH   8  24
TORSDOF 5
ENDMDL
MODEL 6
REMARK VINA RESULT:      -0.0      9.630     12.178
REMARK  5 active torsions:
REMARK  status: ('A' for Active; 'I' for Inactive)
REMARK    1  A    between atoms: C4_4  and  C5_5 
REMARK    2  A    between atoms: C8_8  and  O9_9 
REMARK    3  A    between atoms: C10_11  and  O11_12 
REMARK    4  A    between atoms: C16_18  and  O17_19 
REMARK    5  A    between atoms: C19_22  and  O20_23 
ROOT
HETATM    1  O1          0      63.415 107.961 -21.386  1.00  0.00    -0.286 OA
HETATM    2  C2          0      63.480 108.236 -20.156  1.00  0.00     0.201 C 
HETATM    3  C3          0      63.081 109.456 -19.638  1.00  0.00     0.067 C 
HETATM    4  C4          0      63.259 109.771 -18.296  1.00  0.00     0.103 C 
HETATM    5  O13         0      63.804 108.869 -17.499  1.00  0.00    -0.307 OA
HETATM    6  C14         0      64.234 107.710 -17.946  1.00  0.00     0.107 C 
HETATM    7  C15         0      65.144 106.943 -17.233  1.00  0.00     0.049 C 
HETATM    8  C16         0      65.785 105.856 -17.816  1.00  0.00     0.093 C 
HETATM    9  C18         0      65.109 105.280 -18.884  1.00  0.00     0.048 C 
HETATM   10  C19         0      64.158 106.003 -19.591  1.00  0.00     0.096 C 
HETATM   11  C21         0      63.872 107.289 -19.222  1.00  0.00     0.084 C 
ENDROOT
BRANCH  10  12
HETATM   12  O20         0      63.818 105.603 -20.879  1.00  0.00    -0.359 OA
HETATM   13  H20         0      62.895 105.537 -21.095  1.00  0.00     0.218 HD
ENDBRANCH  10  12
BRANCH   4  14
HETATM   14  C5          0      63.393 111.188 -17.952  1.00  0.00     0.025 C 
HETATM   15  C6          0      64.083 111.628 -16.832  1.00  0.00     0.004 C 
HETATM   16  C7          0      64.840 112.789 -16.956  1.00  0.00     0.026 C 
HETATM   17  C8          0      64.806 113.562 -18.112  1.00  0.00     0.112 C 
HETATM   18  C10         0      63.659 113.407 -18.879  1.00  0.00     0.112 C 
HETATM   19  C12         0      62.969 112.203 -18.800  1.00  0.00     0.028 C 
BRANCH  17  20
HETATM   20  O9          0      65.928 114.250 -18.538  1.00  0.00    -0.357 OA
HETATM   21  H9          0      66.480 114.766 -17.962  1.00  0.00     0.218 HD
ENDBRANCH  17  20
BRANCH  18  22
HETATM   22  O11         0      63.488 114.288 -19.938  1.00  0.00    -0.357 OA
HETATM   23  H11         0      63.768 113.989 -20.795  1.00  0.00     0.218 HD
ENDBRANCH  18  22
ENDBRANCH   4  14
BRANCH   8  24
HETATM   24  O17         0      67.137 105.589 -17.570  1.00  0.00    -0.359 OA
HETATM   25  H17         0      67.746 105.406 -18.275  1.00  0.00     0.218 HD
ENDBRANCH   8  24
TORSDOF 5
ENDMDL
MODEL 7
REMARK VINA RESULT:      -0.0      7.704      9.726
REMARK  5 active torsions:
REMARK  status: ('A' for Active; 'I' for Inactive)
REMARK    1  A    between atoms: C4_4  and  C5_5 
REMARK    2  A    between atoms: C8_8  and  O9_9 
REMARK    3  A    between atoms: C10_11  and  O11_12 
REMARK    4  A    between atoms: C16_18  and  O17_19 
REMARK    5  A    between atoms: C19_22  and  O20_23 
ROOT
HETATM    1  O1          0      69.598 107.231 -21.267  1.00  0.00    -0.286 OA
HETATM    2  C2          0      69.010 107.954 -22.117  1.00  0.00     0.201 C 
HETATM    3  C3          0      68.996 107.661 -23.470  1.00  0.00     0.067 C 
HETATM    4  C4          0      68.428 108.528 -24.397  1.00  0.00     0.103 C 
HETATM    5  O13         0      67.873 109.646 -23.964  1.00  0.00    -0.307 OA
HETATM    6  C14         0      67.893 109.990 -22.695  1.00  0.00     0.107 C 
HETATM    7  C15         0      67.686 111.301 -22.290  1.00  0.00     0.049 C 
HETATM    8  C16         0      67.957 111.705 -20.988  1.00  0.00     0.093 C 
HETATM    9  C18         0      67.916 110.691 -20.038  1.00  0.00     0.048 C 
HETATM   10  C19         0      68.073 109.364 -20.415  1.00  0.00     0.096 C 
HETATM   11  C21         0      68.252 109.050 -21.735  1.00  0.00     0.084 C 
ENDROOT
BRANCH  10  12
HETATM   12  O20         0      68.463 108.428 -19.463  1.00  0.00    -0.359 OA
HETATM   13  H20         0      69.191 108.649 -18.894  1.00  0.00     0.218 HD
ENDBRANCH  10  12
BRANCH   4  14
HETATM   14  C5          0      68.953 108.485 -25.764  1.00  0.00     0.025 C 
HETATM   15  C6          0      68.908 109.574 -26.621  1.00  0.00     0.004 C 
HETATM   16  C7          0      70.002 109.783 -27.455  1.00  0.00     0.026 C 
HETATM   17  C8          0      71.046 108.868 -27.532  1.00  0.00     0.112 C 
HETATM   18  C10         0      70.712 107.574 -27.153  1.00  0.00     0.112 C 
HETATM   19  C12         0      69.668 107.399 -26.252  1.00  0.00     0.028 C 
BRANCH  17  20
HETATM   20  O9          0      72.343 109.290 -27.764  1.00  0.00    -0.357 OA
HETATM   21  H9          0      72.576 110.185 -27.982  1.00  0.00     0.218 HD
ENDBRANCH  17  20
BRANCH  18  22
HETATM   22  O11         0      71.657 106.587 -27.389  1.00  0.00    -0.357 OA
HETATM   23  H11         0      71.568 105.779 -26.896  1.00  0.00     0.218 HD
ENDBRANCH  18  22
ENDBRANCH   4  14
BRANCH   8  24
HETATM   24  O17         0      68.549 112.944 -20.717  1.00  0.00    -0.359 OA
HETATM   25  H17         0      69.173 113.054 -20.010  1.00  0.00     0.218 HD
ENDBRANCH   8  24
TORSDOF 5
ENDMDL
MODEL 8
REMARK VINA RESULT:      -0.0      9.563     12.329
REMARK  5 active torsions:
REMARK  status: ('A' for Active; 'I' for Inactive)
REMARK    1  A    between atoms: C4_4  and  C5_5 
REMARK    2  A    between atoms: C8_8  and  O9_9 
REMARK    3  A    between atoms: C10_11  and  O11_12 
REMARK    4  A    between atoms: C16_18  and  O17_19 
REMARK    5  A    between atoms: C19_22  and  O20_23 
ROOT
HETATM    1  O1          0      72.418 108.923 -25.420  1.00  0.00    -0.286 OA
HETATM    2  C2          0      73.460 108.384 -25.885  1.00  0.00     0.201 C 
HETATM    3  C3          0      73.485 107.083 -26.357  1.00  0.00     0.067 C 
HETATM    4  C4          0      74.668 106.479 -26.767  1.00  0.00     0.103 C 
HETATM    5  O13         0      75.787 107.180 -26.721  1.00  0.00    -0.307 OA
HETATM    6  C14         0      75.825 108.406 -26.247  1.00  0.00     0.107 C 
HETATM    7  C15         0      77.011 108.991 -25.826  1.00  0.00     0.049 C 
HETATM    8  C16         0      77.013 110.174 -25.097  1.00  0.00     0.093 C 
HETATM    9  C18         0      75.893 110.976 -25.276  1.00  0.00     0.048 C 
HETATM   10  C19         0      74.703 110.433 -25.741  1.00  0.00     0.096 C 
HETATM   11  C21         0      74.637 109.099 -26.041  1.00  0.00     0.084 C 
ENDROOT
BRANCH  10  12
HETATM   12  O20         0      73.510 111.109 -25.508  1.00  0.00    -0.359 OA
HETATM   13  H20         0      73.218 111.735 -26.159  1.00  0.00     0.218 HD
ENDBRANCH  10  12
BRANCH   4  14
HETATM   14  C5          0      74.745 105.021 -26.669  1.00  0.00     0.025 C 
HETATM   15  C6          0      75.944 104.340 -26.512  1.00  0.00     0.004 C 
HETATM   16  C7          0      75.950 103.229 -25.675  1.00  0.00     0.026 C 
HETATM   17  C8          0      74.778 102.730 -25.118  1.00  0.00     0.112 C 
HETATM   18  C10         0      73.620 103.058 -25.811  1.00  0.00     0.112 C 
HETATM   19  C12         0      73.615 104.220 -26.574  1.00  0.00     0.028 C 
BRANCH  17  20
HETATM   20  O9          0      74.782 102.143 -23.865  1.00  0.00    -0.357 OA
HETATM   21  H9          0      74.156 102.353 -23.181  1.00  0.00     0.218 HD
ENDBRANCH  17  20
BRANCH  18  22
HETATM   22  O11         0      72.448 102.433 -25.410  1.00  0.00    -0.357 OA
HETATM   23  H11         0      71.874 102.924 -24.834  1.00  0.00     0.218 HD
ENDBRANCH  18  22
ENDBRANCH   4  14
BRANCH   8  24
HETATM   24  O17         0      77.895 110.370 -24.028  1.00  0.00    -0.359 OA
HETATM   25  H17         0      77.735 111.030 -23.364  1.00  0.00     0.218 HD
ENDBRANCH   8  24
TORSDOF 5
ENDMDL
MODEL 9
REMARK VINA RESULT:      -0.0     11.001     13.069
REMARK  5 active torsions:
REMARK  status: ('A' for Active; 'I' for Inactive)
REMARK    1  A    between atoms: C4_4  and  C5_5 
REMARK    2  A    between atoms: C8_8  and  O9_9 
REMARK    3  A    between atoms: C10_11  and  O11_12 
REMARK    4  A    between atoms: C16_18  and  O17_19 
REMARK    5  A    between atoms: C19_22  and  O20_23 
ROOT
HETATM    1  O1          0      72.869 107.033 -23.992  1.00  0.00    -0.286 OA
HETATM    2  C2          0      74.031 107.032 -24.483  1.00  0.00     0.201 C 
HETATM    3  C3          0      74.911 105.975 -24.326  1.00  0.00     0.067 C 
HETATM    4  C4          0      76.220 106.041 -24.789  1.00  0.00     0.103 C 
HETATM    5  O13         0      76.618 107.137 -25.411  1.00  0.00    -0.307 OA
HETATM    6  C14         0      75.835 108.184 -25.554  1.00  0.00     0.107 C 
HETATM    7  C15         0      76.343 109.445 -25.831  1.00  0.00     0.049 C 
HETATM    8  C16         0      75.549 110.581 -25.728  1.00  0.00     0.093 C 
HETATM    9  C18         0      74.185 110.358 -25.869  1.00  0.00     0.048 C 
HETATM   10  C19         0      73.649 109.097 -25.645  1.00  0.00     0.096 C 
HETATM   11  C21         0      74.473 108.061 -25.300  1.00  0.00     0.084 C 
ENDROOT
BRANCH  10  12
HETATM   12  O20         0      72.293 108.975 -25.360  1.00  0.00    -0.359 OA
HETATM   13  H20         0      71.892 109.639 -24.812  1.00  0.00     0.218 HD
ENDBRANCH  10  12
BRANCH   4  14
HETATM   14  C5          0      77.217 105.221 -24.100  1.00  0.00     0.025 C 
HETATM   15  C6          0      78.564 105.552 -24.057  1.00  0.00     0.004 C 
HETATM   16  C7          0      79.250 105.305 -22.872  1.00  0.00     0.026 C 
HETATM   17  C8          0      78.656 104.629 -21.812  1.00  0.00     0.112 C 
HETATM   18  C10         0      77.591 103.812 -22.169  1.00  0.00     0.112 C 
HETATM   19  C12         0      76.869 104.131 -23.312  1.00  0.00     0.028 C 
BRANCH  17  20
HETATM   20  O9          0      78.985 104.935 -20.503  1.00  0.00    -0.357 OA
HETATM   21  H9          0      79.818 105.310 -20.242  1.00  0.00     0.218 HD
ENDBRANCH  17  20
BRANCH  18  22
HETATM   22  O11         0      77.085 102.974 -21.185  1.00  0.00    -0.357 OA
HETATM   23  H11         0      76.491 102.289 -21.469  1.00  0.00     0.218 HD
ENDBRANCH  18  22
ENDBRANCH   4  14
BRANCH   8  24
HETATM   24  O17         0      76.049 111.774 -25.194  1.00  0.00    -0.359 OA
HETATM   25  H17         0      76.722 111.777 -24.524  1.00  0.00     0.218 HD
ENDBRANCH   8  24
TORSDOF 5
ENDMDL
