MODEL 1
REMARK VINA RESULT:      -0.0      0.000      0.000
REMARK  5 active torsions:
REMARK  status: ('A' for Active; 'I' for Inactive)
REMARK    1  A    between atoms: C4_4  and  C5_5 
REMARK    2  A    between atoms: C8_8  and  O9_9 
REMARK    3  A    between atoms: C10_11  and  O11_12 
REMARK    4  A    between atoms: C16_18  and  O17_19 
REMARK    5  A    between atoms: C19_22  and  O20_23 
ROOT
HETATM    1  O1          0       6.031   4.322  20.226  1.00  0.00    -0.286 OA
HETATM    2  C2          0       5.224   3.353  20.211  1.00  0.00     0.201 C 
HETATM    3  C3          0       5.603   2.055  20.511  1.00  0.00     0.067 C 
HETATM    4  C4          0       4.717   0.990  20.387  1.00  0.00     0.103 C 
HETATM    5  O13         0       3.480   1.236  19.992  1.00  0.00    -0.307 OA
HETATM    6  C14         0       3.080   2.443  19.659  1.00  0.00     0.107 C 
HETATM    7  C15         0       1.949   2.650  18.883  1.00  0.00     0.049 C 
HETATM    8  C16         0       1.674   3.892  18.324  1.00  0.00     0.093 C 
HETATM    9  C18         0       2.242   4.973  18.988  1.00  0.00     0.048 C 
HETATM   10  C19         0       3.346   4.794  19.810  1.00  0.00     0.096 C 
HETATM   11  C21         0       3.869   3.542  19.982  1.00  0.00     0.084 C 
ENDROOT
BRANCH  10  12
HETATM   12  O20         0       4.156   5.886  20.108  1.00  0.00    -0.359 OA
HETATM   13  H20         0       3.844   6.508  20.754  1.00  0.00     0.218 HD
ENDBRANCH  10  12
BRANCH   4  14
HETATM   14  C5          0       5.291  -0.331  20.126  1.00  0.00     0.025 C 
HETATM   15  C6          0       4.598  -1.335  19.466  1.00  0.00     0.004 C 
HETATM   16  C7          0       5.312  -2.140  18.584  1.00  0.00     0.026 C 
HETATM   17  C8          0       6.694  -2.040  18.462  1.00  0.00     0.112 C 
HETATM   18  C10         0       7.336  -1.497  19.567  1.00  0.00     0.112 C 
HETATM   19  C12         0       6.623  -0.628  20.385  1.00  0.00     0.028 C 
BRANCH  17  20
HETATM   20  O9          0       7.317  -2.271  17.248  1.00  0.00    -0.357 OA
HETATM   21  H9          0       8.245  -2.134  17.097  1.00  0.00     0.218 HD
ENDBRANCH  17  20
BRANCH  18  22
HETATM   22  O11         0       8.723  -1.549  19.576  1.00  0.00    -0.357 OA
HETATM   23  H11         0       9.137  -1.841  20.380  1.00  0.00     0.218 HD
ENDBRANCH  18  22
ENDBRANCH   4  14
BRANCH   8  24
HETATM   24  O17         0       1.162   4.012  17.027  1.00  0.00    -0.359 OA
HETATM   25  H17         0       0.241   3.877  16.840  1.00  0.00     0.218 HD
ENDBRANCH   8  24
TORSDOF 5
ENDMDL
MODEL 2
REMARK VINA RESULT:      -0.0     10.398     12.125
REMARK  5 active torsions:
REMARK  status: ('A' for Active; 'I' for Inactive)
REMARK    1  A    between atoms: C4_4  and  C5_5 
REMARK    2  A    between atoms: C8_8  and  O9_9 
REMARK    3  A    between atoms: C10_11  and  O11_12 
REMARK    4  A    between atoms: C16_18  and  O17_19 
REMARK    5  A    between atoms: C19_22  and  O20_23 
ROOT
HETATM    1  O1          0      13.641   8.623  12.548  1.00  0.00    -0.286 OA
HETATM    2  C2          0      13.229   7.437  12.419  1.00  0.00     0.201 C 
HETATM    3  C3          0      11.886   7.101  12.458  1.00  0.00     0.067 C 
HETATM    4  C4          0      11.466   5.777  12.417  1.00  0.00     0.103 C 
HETATM    5  O13         0      12.376   4.824  12.316  1.00  0.00    -0.307 OA
HETATM    6  C14         0      13.665   5.087  12.313  1.00  0.00     0.107 C 
HETATM    7  C15         0      14.609   4.115  12.609  1.00  0.00     0.049 C 
HETATM    8  C16         0      15.936   4.448  12.854  1.00  0.00     0.093 C 
HETATM    9  C18         0      16.355   5.644  12.282  1.00  0.00     0.048 C 
HETATM   10  C19         0      15.432   6.619  11.931  1.00  0.00     0.096 C 
HETATM   11  C21         0      14.098   6.396  12.132  1.00  0.00     0.084 C 
ENDROOT
BRANCH  10  12
HETATM   12  O20         0      15.858   7.936  11.781  1.00  0.00    -0.359 OA
HETATM   13  H20         0      15.198   8.618  11.768  1.00  0.00     0.218 HD
ENDBRANCH  10  12
BRANCH   4  14
HETATM   14  C5          0      10.182   5.461  13.047  1.00  0.00     0.025 C 
HETATM   15  C6          0       9.885   4.207  13.560  1.00  0.00     0.004 C 
HETATM   16  C7          0       9.150   4.152  14.740  1.00  0.00     0.026 C 
HETATM   17  C8          0       8.614   5.296  15.321  1.00  0.00     0.112 C 
HETATM   18  C10         0       8.419   6.354  14.443  1.00  0.00     0.112 C 
HETATM   19  C12         0       9.225   6.432  13.313  1.00  0.00     0.028 C 
BRANCH  17  20
HETATM   20  O9          0       8.499   5.407  16.695  1.00  0.00    -0.357 OA
HETATM   21  H9          0       8.012   6.097  17.130  1.00  0.00     0.218 HD
ENDBRANCH  17  20
BRANCH  18  22
HETATM   22  O11         0       7.716   7.449  14.925  1.00  0.00    -0.357 OA
HETATM   23  H11         0       8.101   8.306  14.779  1.00  0.00     0.218 HD
ENDBRANCH  18  22
ENDBRANCH   4  14
BRANCH   8  24
HETATM   24  O17         0      16.674   3.815  13.860  1.00  0.00    -0.359 OA
HETATM   25  H17         0      16.533   2.902  14.083  1.00  0.00     0.218 HD
ENDBRANCH   8  24
TORSDOF 5
ENDMDL
MODEL 3
REMARK VINA RESULT:      -0.0     11.290     12.593
REMARK  5 active torsions:
REMARK  status: ('A' for Active; 'I' for Inactive)
REMARK    1  A    between atoms: C4_4  and  C5_5 
REMARK    2  A    between atoms: C8_8  and  O9_9 
REMARK    3  A    between atoms: C10_11  and  O11_12 
REMARK    4  A    between atoms: C16_18  and  O17_19 
REMARK    5  A    between atoms: C19_22  and  O20_23 
ROOT
HETATM    1  O1          0      13.641   8.623  12.548  1.00  0.00    -0.286 OA
HETATM    2  C2          0      13.483   7.418  12.210  1.00  0.00     0.201 C 
HETATM    3  C3          0      12.393   6.663  12.609  1.00  0.00     0.067 C 
HETATM    4  C4          0      12.295   5.309  12.308  1.00  0.00     0.103 C 
HETATM    5  O13         0      13.261   4.743  11.606  1.00  0.00    -0.307 OA
HETATM    6  C14         0      14.335   5.405  11.234  1.00  0.00     0.107 C 
HETATM    7  C15         0      15.503   4.755  10.864  1.00  0.00     0.049 C 
HETATM    8  C16         0      16.700   5.446  10.720  1.00  0.00     0.093 C 
HETATM    9  C18         0      16.565   6.801  10.440  1.00  0.00     0.048 C 
HETATM   10  C19         0      15.391   7.473  10.754  1.00  0.00     0.096 C 
HETATM   11  C21         0      14.353   6.792  11.329  1.00  0.00     0.084 C 
ENDROOT
BRANCH  10  12
HETATM   12  O20         0      15.414   8.858  10.881  1.00  0.00    -0.359 OA
HETATM   13  H20         0      14.680   9.278  11.313  1.00  0.00     0.218 HD
ENDBRANCH  10  12
BRANCH   4  14
HETATM   14  C5          0      11.504   4.477  13.216  1.00  0.00     0.025 C 
HETATM   15  C6          0      11.734   3.119  13.385  1.00  0.00     0.004 C 
HETATM   16  C7          0      11.601   2.597  14.667  1.00  0.00     0.026 C 
HETATM   17  C8          0      11.126   3.368  15.723  1.00  0.00     0.112 C 
HETATM   18  C10         0      10.351   4.456  15.344  1.00  0.00     0.112 C 
HETATM   19  C12         0      10.564   5.012  14.087  1.00  0.00     0.028 C 
BRANCH  17  20
HETATM   20  O9          0      11.583   3.163  17.013  1.00  0.00    -0.357 OA
HETATM   21  H9          0      11.189   3.558  17.782  1.00  0.00     0.218 HD
ENDBRANCH  17  20
BRANCH  18  22
HETATM   22  O11         0       9.698   5.146  16.355  1.00  0.00    -0.357 OA
HETATM   23  H11         0       9.121   5.853  16.090  1.00  0.00     0.218 HD
ENDBRANCH  18  22
ENDBRANCH   4  14
BRANCH   8  24
HETATM   24  O17         0      17.913   4.902  11.156  1.00  0.00    -0.359 OA
HETATM   25  H17         0      18.084   3.968  11.118  1.00  0.00     0.218 HD
ENDBRANCH   8  24
TORSDOF 5
ENDMDL
MODEL 4
REMARK VINA RESULT:       0.0      4.829      7.835
REMARK  5 active torsions:
REMARK  status: ('A' for Active; 'I' for Inactive)
REMARK    1  A    between atoms: C4_4  and  C5_5 
REMARK    2  A    between atoms: C8_8  and  O9_9 
REMARK    3  A    between atoms: C10_11  and  O11_12 
REMARK    4  A    between atoms: C16_18  and  O17_19 
REMARK    5  A    between atoms: C19_22  and  O20_23 
ROOT
HETATM    1  O1          0       9.298   3.445  17.331  1.00  0.00    -0.286 OA
HETATM    2  C2          0       8.346   4.073  16.791  1.00  0.00     0.201 C 
HETATM    3  C3          0       8.284   5.456  16.756  1.00  0.00     0.067 C 
HETATM    4  C4          0       7.175   6.123  16.247  1.00  0.00     0.103 C 
HETATM    5  O13         0       6.170   5.410  15.770  1.00  0.00    -0.307 OA
HETATM    6  C14         0       6.162   4.096  15.813  1.00  0.00     0.107 C 
HETATM    7  C15         0       4.986   3.368  15.696  1.00  0.00     0.049 C 
HETATM    8  C16         0       4.945   2.011  15.995  1.00  0.00     0.093 C 
HETATM    9  C18         0       6.162   1.349  15.887  1.00  0.00     0.048 C 
HETATM   10  C19         0       7.356   2.053  15.953  1.00  0.00     0.096 C 
HETATM   11  C21         0       7.336   3.412  16.110  1.00  0.00     0.084 C 
ENDROOT
BRANCH  10  12
HETATM   12  O20         0       8.527   1.376  16.281  1.00  0.00    -0.359 OA
HETATM   13  H20         0       8.510   0.427  16.272  1.00  0.00     0.218 HD
ENDBRANCH  10  12
BRANCH   4  14
HETATM   14  C5          0       6.904   7.464  16.766  1.00  0.00     0.025 C 
HETATM   15  C6          0       5.631   8.017  16.795  1.00  0.00     0.004 C 
HETATM   16  C7          0       5.289   8.790  17.899  1.00  0.00     0.026 C 
HETATM   17  C8          0       6.221   9.115  18.879  1.00  0.00     0.112 C 
HETATM   18  C10         0       7.543   9.071  18.459  1.00  0.00     0.112 C 
HETATM   19  C12         0       7.874   8.225  17.407  1.00  0.00     0.028 C 
BRANCH  17  20
HETATM   20  O9          0       5.839   9.257  20.201  1.00  0.00    -0.357 OA
HETATM   21  H9          0       6.370   9.688  20.861  1.00  0.00     0.218 HD
ENDBRANCH  17  20
BRANCH  18  22
HETATM   22  O11         0       8.498   9.566  19.335  1.00  0.00    -0.357 OA
HETATM   23  H11         0       8.820   8.971  20.002  1.00  0.00     0.218 HD
ENDBRANCH  18  22
ENDBRANCH   4  14
BRANCH   8  24
HETATM   24  O17         0       3.857   1.446  16.669  1.00  0.00    -0.359 OA
HETATM   25  H17         0       3.051   1.930  16.811  1.00  0.00     0.218 HD
ENDBRANCH   8  24
TORSDOF 5
ENDMDL
MODEL 5
REMARK VINA RESULT:       0.0      3.761      5.077
REMARK  5 active torsions:
REMARK  status: ('A' for Active; 'I' for Inactive)
REMARK    1  A    between atoms: C4_4  and  C5_5 
REMARK    2  A    between atoms: C8_8  and  O9_9 
REMARK    3  A    between atoms: C10_11  and  O11_12 
REMARK    4  A    between atoms: C16_18  and  O17_19 
REMARK    5  A    between atoms: C19_22  and  O20_23 
ROOT
HETATM    1  O1          0       7.259   2.989  15.241  1.00  0.00    -0.286 OA
HETATM    2  C2          0       6.733   3.618  16.200  1.00  0.00     0.201 C 
HETATM    3  C3          0       6.398   3.013  17.400  1.00  0.00     0.067 C 
HETATM    4  C4          0       5.727   3.705  18.401  1.00  0.00     0.103 C 
HETATM    5  O13         0       5.424   4.976  18.202  1.00  0.00    -0.307 OA
HETATM    6  C14         0       5.686   5.587  17.067  1.00  0.00     0.107 C 
HETATM    7  C15         0       5.037   6.757  16.700  1.00  0.00     0.049 C 
HETATM    8  C16         0       5.125   7.256  15.406  1.00  0.00     0.093 C 
HETATM    9  C18         0       6.258   6.865  14.703  1.00  0.00     0.048 C 
HETATM   10  C19         0       6.959   5.725  15.072  1.00  0.00     0.096 C 
HETATM   11  C21         0       6.542   4.990  16.148  1.00  0.00     0.084 C 
ENDROOT
BRANCH  10  12
HETATM   12  O20         0       7.792   5.108  14.144  1.00  0.00    -0.359 OA
HETATM   13  H20         0       7.390   4.714  13.379  1.00  0.00     0.218 HD
ENDBRANCH  10  12
BRANCH   4  14
HETATM   14  C5          0       4.900   2.920  19.320  1.00  0.00     0.025 C 
HETATM   15  C6          0       3.800   3.448  19.979  1.00  0.00     0.004 C 
HETATM   16  C7          0       2.685   2.629  20.131  1.00  0.00     0.026 C 
HETATM   17  C8          0       2.709   1.288  19.761  1.00  0.00     0.112 C 
HETATM   18  C10         0       3.976   0.720  19.721  1.00  0.00     0.112 C 
HETATM   19  C12         0       5.065   1.551  19.483  1.00  0.00     0.028 C 
BRANCH  17  20
HETATM   20  O9          0       1.573   0.667  19.273  1.00  0.00    -0.357 OA
HETATM   21  H9          0       0.759   0.598  19.760  1.00  0.00     0.218 HD
ENDBRANCH  17  20
BRANCH  18  22
HETATM   22  O11         0       4.043  -0.654  19.544  1.00  0.00    -0.357 OA
HETATM   23  H11         0       3.231  -1.101  19.333  1.00  0.00     0.218 HD
ENDBRANCH  18  22
ENDBRANCH   4  14
BRANCH   8  24
HETATM   24  O17         0       4.016   7.815  14.763  1.00  0.00    -0.359 OA
HETATM   25  H17         0       4.100   8.286  13.942  1.00  0.00     0.218 HD
ENDBRANCH   8  24
TORSDOF 5
ENDMDL
MODEL 6
REMARK VINA RESULT:       0.0      7.073     10.046
REMARK  5 active torsions:
REMARK  status: ('A' for Active; 'I' for Inactive)
REMARK    1  A    between atoms: C4_4  and  C5_5 
REMARK    2  A    between atoms: C8_8  and  O9_9 
REMARK    3  A    between atoms: C10_11  and  O11_12 
REMARK    4  A    between atoms: C16_18  and  O17_19 
REMARK    5  A    between atoms: C19_22  and  O20_23 
ROOT
HETATM    1  O1          0       9.813  -1.255  21.762  1.00  0.00    -0.286 OA
HETATM    2  C2          0      11.032  -1.430  21.488  1.00  0.00     0.201 C 
HETATM    3  C3          0      11.937  -1.954  22.395  1.00  0.00     0.067 C 
HETATM    4  C4          0      13.294  -2.040  22.103  1.00  0.00     0.103 C 
HETATM    5  O13         0      13.716  -1.627  20.921  1.00  0.00    -0.307 OA
HETATM    6  C14         0      12.905  -1.087  20.039  1.00  0.00     0.107 C 
HETATM    7  C15         0      13.377  -0.304  18.995  1.00  0.00     0.049 C 
HETATM    8  C16         0      12.515   0.467  18.224  1.00  0.00     0.093 C 
HETATM    9  C18         0      11.199   0.020  18.190  1.00  0.00     0.048 C 
HETATM   10  C19         0      10.708  -0.803  19.194  1.00  0.00     0.096 C 
HETATM   11  C21         0      11.529  -1.192  20.216  1.00  0.00     0.084 C 
ENDROOT
BRANCH  10  12
HETATM   12  O20         0       9.333  -0.885  19.394  1.00  0.00    -0.359 OA
HETATM   13  H20         0       8.831  -0.079  19.369  1.00  0.00     0.218 HD
ENDBRANCH  10  12
BRANCH   4  14
HETATM   14  C5          0      14.225  -2.015  23.233  1.00  0.00     0.025 C 
HETATM   15  C6          0      15.530  -1.559  23.121  1.00  0.00     0.004 C 
HETATM   16  C7          0      16.051  -0.827  24.184  1.00  0.00     0.026 C 
HETATM   17  C8          0      15.348  -0.667  25.373  1.00  0.00     0.112 C 
HETATM   18  C10         0      14.393  -1.645  25.618  1.00  0.00     0.112 C 
HETATM   19  C12         0      13.827  -2.302  24.532  1.00  0.00     0.028 C 
BRANCH  17  20
HETATM   20  O9          0      15.467   0.494  26.116  1.00  0.00    -0.357 OA
HETATM   21  H9          0      14.727   1.024  26.388  1.00  0.00     0.218 HD
ENDBRANCH  17  20
BRANCH  18  22
HETATM   22  O11         0      13.797  -1.642  26.871  1.00  0.00    -0.357 OA
HETATM   23  H11         0      13.364  -2.442  27.144  1.00  0.00     0.218 HD
ENDBRANCH  18  22
ENDBRANCH   4  14
BRANCH   8  24
HETATM   24  O17         0      12.865   1.756  17.806  1.00  0.00    -0.359 OA
HETATM   25  H17         0      12.208   2.401  17.572  1.00  0.00     0.218 HD
ENDBRANCH   8  24
TORSDOF 5
ENDMDL
MODEL 7
REMARK VINA RESULT:       0.0      6.722      9.422
REMARK  5 active torsions:
REMARK  status: ('A' for Active; 'I' for Inactive)
REMARK    1  A    between atoms: C4_4  and  C5_5 
REMARK    2  A    between atoms: C8_8  and  O9_9 
REMARK    3  A    between atoms: C10_11  and  O11_12 
REMARK    4  A    between atoms: C16_18  and  O17_19 
REMARK    5  A    between atoms: C19_22  and  O20_23 
ROOT
HETATM    1  O1          0       8.876  -2.394  17.396  1.00  0.00    -0.286 OA
HETATM    2  C2          0      10.084  -2.385  17.032  1.00  0.00     0.201 C 
HETATM    3  C3          0      10.765  -3.533  16.664  1.00  0.00     0.067 C 
HETATM    4  C4          0      12.123  -3.510  16.366  1.00  0.00     0.103 C 
HETATM    5  O13         0      12.766  -2.357  16.419  1.00  0.00    -0.307 OA
HETATM    6  C14         0      12.175  -1.245  16.799  1.00  0.00     0.107 C 
HETATM    7  C15         0      12.900  -0.146  17.238  1.00  0.00     0.049 C 
HETATM    8  C16         0      12.277   0.922  17.873  1.00  0.00     0.093 C 
HETATM    9  C18         0      10.930   1.080  17.572  1.00  0.00     0.048 C 
HETATM   10  C19         0      10.186   0.013  17.086  1.00  0.00     0.096 C 
HETATM   11  C21         0      10.788  -1.199  16.887  1.00  0.00     0.084 C 
ENDROOT
BRANCH  10  12
HETATM   12  O20         0       8.800   0.042  17.201  1.00  0.00    -0.359 OA
HETATM   13  H20         0       8.387   0.873  17.400  1.00  0.00     0.218 HD
ENDBRANCH  10  12
BRANCH   4  14
HETATM   14  C5          0      12.877  -4.747  16.580  1.00  0.00     0.025 C 
HETATM   15  C6          0      14.237  -4.761  16.854  1.00  0.00     0.004 C 
HETATM   16  C7          0      14.699  -5.697  17.773  1.00  0.00     0.026 C 
HETATM   17  C8          0      13.864  -6.675  18.302  1.00  0.00     0.112 C 
HETATM   18  C10         0      12.753  -6.972  17.524  1.00  0.00     0.112 C 
HETATM   19  C12         0      12.260  -5.988  16.675  1.00  0.00     0.028 C 
BRANCH  17  20
HETATM   20  O9          0      14.040  -7.135  19.595  1.00  0.00    -0.357 OA
HETATM   21  H9          0      14.653  -7.821  19.832  1.00  0.00     0.218 HD
ENDBRANCH  17  20
BRANCH  18  22
HETATM   22  O11         0      11.991  -8.066  17.907  1.00  0.00    -0.357 OA
HETATM   23  H11         0      12.396  -8.921  17.829  1.00  0.00     0.218 HD
ENDBRANCH  18  22
ENDBRANCH   4  14
BRANCH   8  24
HETATM   24  O17         0      12.865   1.562  18.970  1.00  0.00    -0.359 OA
HETATM   25  H17         0      13.206   1.073  19.710  1.00  0.00     0.218 HD
ENDBRANCH   8  24
TORSDOF 5
ENDMDL
MODEL 8
REMARK VINA RESULT:       0.0      6.022      8.482
REMARK  5 active torsions:
REMARK  status: ('A' for Active; 'I' for Inactive)
REMARK    1  A    between atoms: C4_4  and  C5_5 
REMARK    2  A    between atoms: C8_8  and  O9_9 
REMARK    3  A    between atoms: C10_11  and  O11_12 
REMARK    4  A    between atoms: C16_18  and  O17_19 
REMARK    5  A    between atoms: C19_22  and  O20_23 
ROOT
HETATM    1  O1          0       8.157  -0.634  20.542  1.00  0.00    -0.286 OA
HETATM    2  C2          0       9.399  -0.737  20.743  1.00  0.00     0.201 C 
HETATM    3  C3          0       9.929  -1.416  21.826  1.00  0.00     0.067 C 
HETATM    4  C4          0      11.296  -1.427  22.081  1.00  0.00     0.103 C 
HETATM    5  O13         0      12.102  -0.788  21.251  1.00  0.00    -0.307 OA
HETATM    6  C14         0      11.647  -0.097  20.229  1.00  0.00     0.107 C 
HETATM    7  C15         0      12.412   0.879  19.607  1.00  0.00     0.049 C 
HETATM    8  C16         0      11.848   1.774  18.706  1.00  0.00     0.093 C 
HETATM    9  C18         0      10.691   1.327  18.081  1.00  0.00     0.048 C 
HETATM   10  C19         0       9.926   0.318  18.652  1.00  0.00     0.096 C 
HETATM   11  C21         0      10.323  -0.251  19.831  1.00  0.00     0.084 C 
ENDROOT
BRANCH  10  12
HETATM   12  O20         0       8.592   0.183  18.279  1.00  0.00    -0.359 OA
HETATM   13  H20         0       8.131  -0.601  18.552  1.00  0.00     0.218 HD
ENDBRANCH  10  12
BRANCH   4  14
HETATM   14  C5          0      11.717  -1.609  23.471  1.00  0.00     0.025 C 
HETATM   15  C6          0      12.921  -1.125  23.962  1.00  0.00     0.004 C 
HETATM   16  C7          0      12.929  -0.607  25.253  1.00  0.00     0.026 C 
HETATM   17  C8          0      11.813  -0.689  26.078  1.00  0.00     0.112 C 
HETATM   18  C10         0      10.926  -1.707  25.755  1.00  0.00     0.112 C 
HETATM   19  C12         0      10.879  -2.148  24.438  1.00  0.00     0.028 C 
BRANCH  17  20
HETATM   20  O9          0      11.536   0.308  26.997  1.00  0.00    -0.357 OA
HETATM   21  H9          0      11.920   0.346  27.866  1.00  0.00     0.218 HD
ENDBRANCH  17  20
BRANCH  18  22
HETATM   22  O11         0       9.898  -1.953  26.654  1.00  0.00    -0.357 OA
HETATM   23  H11         0       9.732  -1.287  27.311  1.00  0.00     0.218 HD
ENDBRANCH  18  22
ENDBRANCH   4  14
BRANCH   8  24
HETATM   24  O17         0      12.218   3.124  18.690  1.00  0.00    -0.359 OA
HETATM   25  H17         0      13.114   3.394  18.526  1.00  0.00     0.218 HD
ENDBRANCH   8  24
TORSDOF 5
ENDMDL
MODEL 9
REMARK VINA RESULT:       0.0      3.927      5.514
REMARK  5 active torsions:
REMARK  status: ('A' for Active; 'I' for Inactive)
REMARK    1  A    between atoms: C4_4  and  C5_5 
REMARK    2  A    between atoms: C8_8  and  O9_9 
REMARK    3  A    between atoms: C10_11  and  O11_12 
REMARK    4  A    between atoms: C16_18  and  O17_19 
REMARK    5  A    between atoms: C19_22  and  O20_23 
ROOT
HETATM    1  O1          0       3.596   3.884  22.216  1.00  0.00    -0.286 OA
HETATM    2  C2          0       4.781   3.750  21.805  1.00  0.00     0.201 C 
HETATM    3  C3          0       5.624   2.749  22.258  1.00  0.00     0.067 C 
HETATM    4  C4          0       6.957   2.686  21.865  1.00  0.00     0.103 C 
HETATM    5  O13         0       7.414   3.596  21.024  1.00  0.00    -0.307 OA
HETATM    6  C14         0       6.667   4.589  20.593  1.00  0.00     0.107 C 
HETATM    7  C15         0       7.222   5.740  20.054  1.00  0.00     0.049 C 
HETATM    8  C16         0       6.454   6.878  19.838  1.00  0.00     0.093 C 
HETATM    9  C18         0       5.093   6.647  19.679  1.00  0.00     0.048 C 
HETATM   10  C19         0       4.514   5.483  20.165  1.00  0.00     0.096 C 
HETATM   11  C21         0       5.291   4.548  20.792  1.00  0.00     0.084 C 
ENDROOT
BRANCH  10  12
HETATM   12  O20         0       3.142   5.451  20.395  1.00  0.00    -0.359 OA
HETATM   13  H20         0       2.835   5.065  21.207  1.00  0.00     0.218 HD
ENDBRANCH  10  12
BRANCH   4  14
HETATM   14  C5          0       7.895   2.040  22.785  1.00  0.00     0.025 C 
HETATM   15  C6          0       9.246   2.354  22.823  1.00  0.00     0.004 C 
HETATM   16  C7          0       9.864   2.388  24.069  1.00  0.00     0.026 C 
HETATM   17  C8          0       9.199   1.993  25.225  1.00  0.00     0.112 C 
HETATM   18  C10         0       8.133   1.129  25.013  1.00  0.00     0.112 C 
HETATM   19  C12         0       7.478   1.175  23.788  1.00  0.00     0.028 C 
BRANCH  17  20
HETATM   20  O9          0       9.469   2.598  26.440  1.00  0.00    -0.357 OA
HETATM   21  H9          0       9.784   3.490  26.527  1.00  0.00     0.218 HD
ENDBRANCH  17  20
BRANCH  18  22
HETATM   22  O11         0       7.556   0.557  26.138  1.00  0.00    -0.357 OA
HETATM   23  H11         0       7.992  -0.202  26.507  1.00  0.00     0.218 HD
ENDBRANCH  18  22
ENDBRANCH   4  14
BRANCH   8  24
HETATM   24  O17         0       6.957   8.158  20.100  1.00  0.00    -0.359 OA
HETATM   25  H17         0       6.454   8.940  19.910  1.00  0.00     0.218 HD
ENDBRANCH   8  24
TORSDOF 5
ENDMDL
