MODEL 1
REMARK VINA RESULT:      -4.5      0.000      0.000
REMARK  5 active torsions:
REMARK  status: ('A' for Active; 'I' for Inactive)
REMARK    1  A    between atoms: C4_4  and  C5_5 
REMARK    2  A    between atoms: C8_8  and  O9_9 
REMARK    3  A    between atoms: C10_11  and  O11_12 
REMARK    4  A    between atoms: C16_18  and  O17_19 
REMARK    5  A    between atoms: C19_22  and  O20_23 
ROOT
HETATM    1  O1          0      40.124  43.194  32.504  1.00  0.00    -0.286 OA
HETATM    2  C2          0      39.123  43.733  33.050  1.00  0.00     0.201 C 
HETATM    3  C3          0      38.872  43.648  34.409  1.00  0.00     0.067 C 
HETATM    4  C4          0      37.709  44.163  34.969  1.00  0.00     0.103 C 
HETATM    5  O13         0      36.837  44.765  34.180  1.00  0.00    -0.307 OA
HETATM    6  C14         0      37.008  44.841  32.878  1.00  0.00     0.107 C 
HETATM    7  C15         0      35.953  45.098  32.016  1.00  0.00     0.049 C 
HETATM    8  C16         0      36.084  44.926  30.643  1.00  0.00     0.093 C 
HETATM    9  C18         0      37.384  45.016  30.162  1.00  0.00     0.048 C 
HETATM   10  C19         0      38.466  44.811  31.008  1.00  0.00     0.096 C 
HETATM   11  C21         0      38.249  44.534  32.331  1.00  0.00     0.084 C 
ENDROOT
BRANCH  10  12
HETATM   12  O20         0      39.701  44.473  30.464  1.00  0.00    -0.359 OA
HETATM   13  H20         0      40.435  45.050  30.635  1.00  0.00     0.218 HD
ENDBRANCH  10  12
BRANCH   4  14
HETATM   14  C5          0      37.229  43.543  36.206  1.00  0.00     0.025 C 
HETATM   15  C6          0      36.112  42.721  36.251  1.00  0.00     0.004 C 
HETATM   16  C7          0      36.160  41.614  37.092  1.00  0.00     0.026 C 
HETATM   17  C8          0      37.225  41.403  37.960  1.00  0.00     0.112 C 
HETATM   18  C10         0      37.936  42.548  38.295  1.00  0.00     0.112 C 
HETATM   19  C12         0      37.941  43.608  37.396  1.00  0.00     0.028 C 
BRANCH  17  20
HETATM   20  O9          0      37.643  40.121  38.271  1.00  0.00    -0.357 OA
HETATM   21  H9          0      38.507  39.783  38.067  1.00  0.00     0.218 HD
ENDBRANCH  17  20
BRANCH  18  22
HETATM   22  O11         0      38.886  42.427  39.299  1.00  0.00    -0.357 OA
HETATM   23  H11         0      38.733  42.919  40.097  1.00  0.00     0.218 HD
ENDBRANCH  18  22
ENDBRANCH   4  14
BRANCH   8  24
HETATM   24  O17         0      35.052  44.375  29.875  1.00  0.00    -0.359 OA
HETATM   25  H17         0      34.203  44.795  29.805  1.00  0.00     0.218 HD
ENDBRANCH   8  24
TORSDOF 5
ENDMDL
MODEL 2
REMARK VINA RESULT:      -4.4      1.786      6.973
REMARK  5 active torsions:
REMARK  status: ('A' for Active; 'I' for Inactive)
REMARK    1  A    between atoms: C4_4  and  C5_5 
REMARK    2  A    between atoms: C8_8  and  O9_9 
REMARK    3  A    between atoms: C10_11  and  O11_12 
REMARK    4  A    between atoms: C16_18  and  O17_19 
REMARK    5  A    between atoms: C19_22  and  O20_23 
ROOT
HETATM    1  O1          0      34.187  41.858  36.332  1.00  0.00    -0.286 OA
HETATM    2  C2          0      35.280  42.463  36.509  1.00  0.00     0.201 C 
HETATM    3  C3          0      35.778  43.390  35.609  1.00  0.00     0.067 C 
HETATM    4  C4          0      37.033  43.965  35.777  1.00  0.00     0.103 C 
HETATM    5  O13         0      37.750  43.628  36.834  1.00  0.00    -0.307 OA
HETATM    6  C14         0      37.340  42.726  37.698  1.00  0.00     0.107 C 
HETATM    7  C15         0      38.220  42.083  38.557  1.00  0.00     0.049 C 
HETATM    8  C16         0      37.832  40.962  39.281  1.00  0.00     0.093 C 
HETATM    9  C18         0      36.466  40.856  39.513  1.00  0.00     0.048 C 
HETATM   10  C19         0      35.559  41.524  38.701  1.00  0.00     0.096 C 
HETATM   11  C21         0      36.014  42.306  37.674  1.00  0.00     0.084 C 
ENDROOT
BRANCH  10  12
HETATM   12  O20         0      34.240  41.085  38.651  1.00  0.00    -0.359 OA
HETATM   13  H20         0      33.886  40.652  39.418  1.00  0.00     0.218 HD
ENDBRANCH  10  12
BRANCH   4  14
HETATM   14  C5          0      37.726  44.422  34.571  1.00  0.00     0.025 C 
HETATM   15  C6          0      39.065  44.784  34.565  1.00  0.00     0.004 C 
HETATM   16  C7          0      39.824  44.429  33.454  1.00  0.00     0.026 C 
HETATM   17  C8          0      39.244  43.854  32.328  1.00  0.00     0.112 C 
HETATM   18  C10         0      37.889  44.116  32.176  1.00  0.00     0.112 C 
HETATM   19  C12         0      37.137  44.384  33.314  1.00  0.00     0.028 C 
BRANCH  17  20
HETATM   20  O9          0      39.938  42.931  31.566  1.00  0.00    -0.357 OA
HETATM   21  H9          0      40.604  43.166  30.930  1.00  0.00     0.218 HD
ENDBRANCH  17  20
BRANCH  18  22
HETATM   22  O11         0      37.304  43.728  30.979  1.00  0.00    -0.357 OA
HETATM   23  H11         0      36.961  44.419  30.424  1.00  0.00     0.218 HD
ENDBRANCH  18  22
ENDBRANCH   4  14
BRANCH   8  24
HETATM   24  O17         0      38.695  39.875  39.459  1.00  0.00    -0.359 OA
HETATM   25  H17         0      39.219  39.777  40.246  1.00  0.00     0.218 HD
ENDBRANCH   8  24
TORSDOF 5
ENDMDL
MODEL 3
REMARK VINA RESULT:      -4.1      2.612      6.743
REMARK  5 active torsions:
REMARK  status: ('A' for Active; 'I' for Inactive)
REMARK    1  A    between atoms: C4_4  and  C5_5 
REMARK    2  A    between atoms: C8_8  and  O9_9 
REMARK    3  A    between atoms: C10_11  and  O11_12 
REMARK    4  A    between atoms: C16_18  and  O17_19 
REMARK    5  A    between atoms: C19_22  and  O20_23 
ROOT
HETATM    1  O1          0      36.453  41.249  38.784  1.00  0.00    -0.286 OA
HETATM    2  C2          0      35.973  41.839  37.777  1.00  0.00     0.201 C 
HETATM    3  C3          0      36.729  42.153  36.661  1.00  0.00     0.067 C 
HETATM    4  C4          0      36.202  42.894  35.609  1.00  0.00     0.103 C 
HETATM    5  O13         0      34.942  43.286  35.677  1.00  0.00    -0.307 OA
HETATM    6  C14         0      34.192  43.046  36.730  1.00  0.00     0.107 C 
HETATM    7  C15         0      33.038  43.773  36.986  1.00  0.00     0.049 C 
HETATM    8  C16         0      32.393  43.695  38.214  1.00  0.00     0.093 C 
HETATM    9  C18         0      32.622  42.522  38.924  1.00  0.00     0.048 C 
HETATM   10  C19         0      33.743  41.746  38.661  1.00  0.00     0.096 C 
HETATM   11  C21         0      34.621  42.130  37.684  1.00  0.00     0.084 C 
ENDROOT
BRANCH  10  12
HETATM   12  O20         0      34.193  40.851  39.627  1.00  0.00    -0.359 OA
HETATM   13  H20         0      34.408  41.195  40.486  1.00  0.00     0.218 HD
ENDBRANCH  10  12
BRANCH   4  14
HETATM   14  C5          0      37.142  43.679  34.806  1.00  0.00     0.025 C 
HETATM   15  C6          0      38.414  44.012  35.249  1.00  0.00     0.004 C 
HETATM   16  C7          0      39.446  43.993  34.317  1.00  0.00     0.026 C 
HETATM   17  C8          0      39.204  43.783  32.964  1.00  0.00     0.112 C 
HETATM   18  C10         0      37.914  44.092  32.551  1.00  0.00     0.112 C 
HETATM   19  C12         0      36.887  44.020  33.484  1.00  0.00     0.028 C 
BRANCH  17  20
HETATM   20  O9          0      40.125  43.119  32.173  1.00  0.00    -0.357 OA
HETATM   21  H9          0      40.131  43.158  31.224  1.00  0.00     0.218 HD
ENDBRANCH  17  20
BRANCH  18  22
HETATM   22  O11         0      37.672  44.081  31.185  1.00  0.00    -0.357 OA
HETATM   23  H11         0      36.787  44.282  30.903  1.00  0.00     0.218 HD
ENDBRANCH  18  22
ENDBRANCH   4  14
BRANCH   8  24
HETATM   24  O17         0      31.847  44.829  38.825  1.00  0.00    -0.359 OA
HETATM   25  H17         0      31.422  45.512  38.319  1.00  0.00     0.218 HD
ENDBRANCH   8  24
TORSDOF 5
ENDMDL
MODEL 4
REMARK VINA RESULT:      -4.1      2.271      6.669
REMARK  5 active torsions:
REMARK  status: ('A' for Active; 'I' for Inactive)
REMARK    1  A    between atoms: C4_4  and  C5_5 
REMARK    2  A    between atoms: C8_8  and  O9_9 
REMARK    3  A    between atoms: C10_11  and  O11_12 
REMARK    4  A    between atoms: C16_18  and  O17_19 
REMARK    5  A    between atoms: C19_22  and  O20_23 
ROOT
HETATM    1  O1          0      36.558  44.611  39.215  1.00  0.00    -0.286 OA
HETATM    2  C2          0      36.614  43.878  38.190  1.00  0.00     0.201 C 
HETATM    3  C3          0      37.495  44.111  37.148  1.00  0.00     0.067 C 
HETATM    4  C4          0      37.467  43.349  35.985  1.00  0.00     0.103 C 
HETATM    5  O13         0      36.586  42.369  35.890  1.00  0.00    -0.307 OA
HETATM    6  C14         0      35.702  42.129  36.834  1.00  0.00     0.107 C 
HETATM    7  C15         0      34.550  41.397  36.587  1.00  0.00     0.049 C 
HETATM    8  C16         0      33.507  41.362  37.505  1.00  0.00     0.093 C 
HETATM    9  C18         0      33.874  41.619  38.820  1.00  0.00     0.048 C 
HETATM   10  C19         0      35.045  42.308  39.105  1.00  0.00     0.096 C 
HETATM   11  C21         0      35.853  42.724  38.082  1.00  0.00     0.084 C 
ENDROOT
BRANCH  10  12
HETATM   12  O20         0      35.184  42.931  40.341  1.00  0.00    -0.359 OA
HETATM   13  H20         0      35.878  43.572  40.440  1.00  0.00     0.218 HD
ENDBRANCH  10  12
BRANCH   4  14
HETATM   14  C5          0      37.951  43.983  34.757  1.00  0.00     0.025 C 
HETATM   15  C6          0      39.286  44.294  34.547  1.00  0.00     0.004 C 
HETATM   16  C7          0      39.797  44.111  33.267  1.00  0.00     0.026 C 
HETATM   17  C8          0      38.980  43.759  32.198  1.00  0.00     0.112 C 
HETATM   18  C10         0      37.641  44.090  32.360  1.00  0.00     0.112 C 
HETATM   19  C12         0      37.135  44.183  33.651  1.00  0.00     0.028 C 
BRANCH  17  20
HETATM   20  O9          0      39.455  42.959  31.175  1.00  0.00    -0.357 OA
HETATM   21  H9          0      39.981  42.179  31.315  1.00  0.00     0.218 HD
ENDBRANCH  17  20
BRANCH  18  22
HETATM   22  O11         0      36.817  43.935  31.254  1.00  0.00    -0.357 OA
HETATM   23  H11         0      36.067  43.360  31.353  1.00  0.00     0.218 HD
ENDBRANCH  18  22
ENDBRANCH   4  14
BRANCH   8  24
HETATM   24  O17         0      32.171  41.405  37.092  1.00  0.00    -0.359 OA
HETATM   25  H17         0      31.855  40.876  36.369  1.00  0.00     0.218 HD
ENDBRANCH   8  24
TORSDOF 5
ENDMDL
MODEL 5
REMARK VINA RESULT:      -3.9      1.870      3.311
REMARK  5 active torsions:
REMARK  status: ('A' for Active; 'I' for Inactive)
REMARK    1  A    between atoms: C4_4  and  C5_5 
REMARK    2  A    between atoms: C8_8  and  O9_9 
REMARK    3  A    between atoms: C10_11  and  O11_12 
REMARK    4  A    between atoms: C16_18  and  O17_19 
REMARK    5  A    between atoms: C19_22  and  O20_23 
ROOT
HETATM    1  O1          0      34.287  44.844  34.879  1.00  0.00    -0.286 OA
HETATM    2  C2          0      35.371  44.212  35.009  1.00  0.00     0.201 C 
HETATM    3  C3          0      35.590  43.298  36.025  1.00  0.00     0.067 C 
HETATM    4  C4          0      36.829  42.693  36.206  1.00  0.00     0.103 C 
HETATM    5  O13         0      37.808  42.989  35.370  1.00  0.00    -0.307 OA
HETATM    6  C14         0      37.664  43.877  34.411  1.00  0.00     0.107 C 
HETATM    7  C15         0      38.756  44.479  33.803  1.00  0.00     0.049 C 
HETATM    8  C16         0      38.603  45.590  32.981  1.00  0.00     0.093 C 
HETATM    9  C18         0      37.350  45.718  32.395  1.00  0.00     0.048 C 
HETATM   10  C19         0      36.244  45.090  32.951  1.00  0.00     0.096 C 
HETATM   11  C21         0      36.391  44.325  34.076  1.00  0.00     0.084 C 
ENDROOT
BRANCH  10  12
HETATM   12  O20         0      34.970  45.557  32.642  1.00  0.00    -0.359 OA
HETATM   13  H20         0      34.408  45.001  32.116  1.00  0.00     0.218 HD
ENDBRANCH  10  12
BRANCH   4  14
HETATM   14  C5          0      37.167  42.253  37.561  1.00  0.00     0.025 C 
HETATM   15  C6          0      36.822  41.002  38.053  1.00  0.00     0.004 C 
HETATM   16  C7          0      37.744  40.355  38.870  1.00  0.00     0.026 C 
HETATM   17  C8          0      38.910  40.982  39.294  1.00  0.00     0.112 C 
HETATM   18  C10         0      38.857  42.370  39.288  1.00  0.00     0.112 C 
HETATM   19  C12         0      37.988  42.994  38.401  1.00  0.00     0.028 C 
BRANCH  17  20
HETATM   20  O9          0      40.073  40.259  39.491  1.00  0.00    -0.357 OA
HETATM   21  H9          0      40.088  39.337  39.722  1.00  0.00     0.218 HD
ENDBRANCH  17  20
BRANCH  18  22
HETATM   22  O11         0      39.919  43.042  39.877  1.00  0.00    -0.357 OA
HETATM   23  H11         0      40.654  42.514  40.166  1.00  0.00     0.218 HD
ENDBRANCH  18  22
ENDBRANCH   4  14
BRANCH   8  24
HETATM   24  O17         0      39.511  46.654  33.017  1.00  0.00    -0.359 OA
HETATM   25  H17         0      40.145  46.792  32.324  1.00  0.00     0.218 HD
ENDBRANCH   8  24
TORSDOF 5
ENDMDL
MODEL 6
REMARK VINA RESULT:      -3.8      2.043      2.913
REMARK  5 active torsions:
REMARK  status: ('A' for Active; 'I' for Inactive)
REMARK    1  A    between atoms: C4_4  and  C5_5 
REMARK    2  A    between atoms: C8_8  and  O9_9 
REMARK    3  A    between atoms: C10_11  and  O11_12 
REMARK    4  A    between atoms: C16_18  and  O17_19 
REMARK    5  A    between atoms: C19_22  and  O20_23 
ROOT
HETATM    1  O1          0      39.488  46.779  35.112  1.00  0.00    -0.286 OA
HETATM    2  C2          0      38.560  46.007  34.744  1.00  0.00     0.201 C 
HETATM    3  C3          0      37.553  45.585  35.596  1.00  0.00     0.067 C 
HETATM    4  C4          0      36.602  44.654  35.195  1.00  0.00     0.103 C 
HETATM    5  O13         0      36.657  44.181  33.962  1.00  0.00    -0.307 OA
HETATM    6  C14         0      37.614  44.519  33.126  1.00  0.00     0.107 C 
HETATM    7  C15         0      37.913  43.753  32.008  1.00  0.00     0.049 C 
HETATM    8  C16         0      39.074  43.968  31.276  1.00  0.00     0.093 C 
HETATM    9  C18         0      39.602  45.249  31.375  1.00  0.00     0.048 C 
HETATM   10  C19         0      39.287  46.060  32.457  1.00  0.00     0.096 C 
HETATM   11  C21         0      38.436  45.601  33.424  1.00  0.00     0.084 C 
ENDROOT
BRANCH  10  12
HETATM   12  O20         0      40.125  47.124  32.777  1.00  0.00    -0.359 OA
HETATM   13  H20         0      40.444  47.187  33.669  1.00  0.00     0.218 HD
ENDBRANCH  10  12
BRANCH   4  14
HETATM   14  C5          0      35.989  43.830  36.239  1.00  0.00     0.025 C 
HETATM   15  C6          0      34.769  44.141  36.821  1.00  0.00     0.004 C 
HETATM   16  C7          0      33.909  43.088  37.118  1.00  0.00     0.026 C 
HETATM   17  C8          0      34.301  41.762  36.967  1.00  0.00     0.112 C 
HETATM   18  C10         0      35.673  41.556  37.000  1.00  0.00     0.112 C 
HETATM   19  C12         0      36.508  42.599  36.616  1.00  0.00     0.028 C 
BRANCH  17  20
HETATM   20  O9          0      33.386  40.791  36.601  1.00  0.00    -0.357 OA
HETATM   21  H9          0      32.861  40.300  37.223  1.00  0.00     0.218 HD
ENDBRANCH  17  20
BRANCH  18  22
HETATM   22  O11         0      36.110  40.239  37.043  1.00  0.00    -0.357 OA
HETATM   23  H11         0      37.038  40.089  36.908  1.00  0.00     0.218 HD
ENDBRANCH  18  22
ENDBRANCH   4  14
BRANCH   8  24
HETATM   24  O17         0      39.822  42.901  30.766  1.00  0.00    -0.359 OA
HETATM   25  H17         0      40.041  42.840  29.844  1.00  0.00     0.218 HD
ENDBRANCH   8  24
TORSDOF 5
ENDMDL
MODEL 7
REMARK VINA RESULT:      -3.7      1.737      2.203
REMARK  5 active torsions:
REMARK  status: ('A' for Active; 'I' for Inactive)
REMARK    1  A    between atoms: C4_4  and  C5_5 
REMARK    2  A    between atoms: C8_8  and  O9_9 
REMARK    3  A    between atoms: C10_11  and  O11_12 
REMARK    4  A    between atoms: C16_18  and  O17_19 
REMARK    5  A    between atoms: C19_22  and  O20_23 
ROOT
HETATM    1  O1          0      40.094  43.476  32.787  1.00  0.00    -0.286 OA
HETATM    2  C2          0      39.038  43.927  33.309  1.00  0.00     0.201 C 
HETATM    3  C3          0      38.648  43.618  34.602  1.00  0.00     0.067 C 
HETATM    4  C4          0      37.430  44.045  35.117  1.00  0.00     0.103 C 
HETATM    5  O13         0      36.640  44.781  34.354  1.00  0.00    -0.307 OA
HETATM    6  C14         0      36.945  45.071  33.108  1.00  0.00     0.107 C 
HETATM    7  C15         0      35.982  45.480  32.197  1.00  0.00     0.049 C 
HETATM    8  C16         0      36.256  45.538  30.835  1.00  0.00     0.093 C 
HETATM    9  C18         0      37.599  45.694  30.513  1.00  0.00     0.048 C 
HETATM   10  C19         0      38.588  45.339  31.420  1.00  0.00     0.096 C 
HETATM   11  C21         0      38.238  44.847  32.648  1.00  0.00     0.084 C 
ENDROOT
BRANCH  10  12
HETATM   12  O20         0      39.875  45.083  30.957  1.00  0.00    -0.359 OA
HETATM   13  H20         0      40.219  44.204  31.061  1.00  0.00     0.218 HD
ENDBRANCH  10  12
BRANCH   4  14
HETATM   14  C5          0      36.829  43.233  36.176  1.00  0.00     0.025 C 
HETATM   15  C6          0      37.233  43.306  37.501  1.00  0.00     0.004 C 
HETATM   16  C7          0      36.249  43.214  38.481  1.00  0.00     0.026 C 
HETATM   17  C8          0      34.927  42.923  38.162  1.00  0.00     0.112 C 
HETATM   18  C10         0      34.754  42.261  36.954  1.00  0.00     0.112 C 
HETATM   19  C12         0      35.710  42.439  35.961  1.00  0.00     0.028 C 
BRANCH  17  20
HETATM   20  O9          0      33.886  43.454  38.903  1.00  0.00    -0.357 OA
HETATM   21  H9          0      33.101  43.827  38.519  1.00  0.00     0.218 HD
ENDBRANCH  17  20
BRANCH  18  22
HETATM   22  O11         0      33.482  41.781  36.677  1.00  0.00    -0.357 OA
HETATM   23  H11         0      32.950  42.293  36.079  1.00  0.00     0.218 HD
ENDBRANCH  18  22
ENDBRANCH   4  14
BRANCH   8  24
HETATM   24  O17         0      35.313  45.135  29.884  1.00  0.00    -0.359 OA
HETATM   25  H17         0      35.471  44.399  29.305  1.00  0.00     0.218 HD
ENDBRANCH   8  24
TORSDOF 5
ENDMDL
MODEL 8
REMARK VINA RESULT:      -3.6      2.851      6.931
REMARK  5 active torsions:
REMARK  status: ('A' for Active; 'I' for Inactive)
REMARK    1  A    between atoms: C4_4  and  C5_5 
REMARK    2  A    between atoms: C8_8  and  O9_9 
REMARK    3  A    between atoms: C10_11  and  O11_12 
REMARK    4  A    between atoms: C16_18  and  O17_19 
REMARK    5  A    between atoms: C19_22  and  O20_23 
ROOT
HETATM    1  O1          0      38.304  43.228  37.779  1.00  0.00    -0.286 OA
HETATM    2  C2          0      37.309  43.038  37.028  1.00  0.00     0.201 C 
HETATM    3  C3          0      36.991  43.882  35.977  1.00  0.00     0.067 C 
HETATM    4  C4          0      35.832  43.708  35.229  1.00  0.00     0.103 C 
HETATM    5  O13         0      35.032  42.698  35.522  1.00  0.00    -0.307 OA
HETATM    6  C14         0      35.268  41.890  36.532  1.00  0.00     0.107 C 
HETATM    7  C15         0      34.270  41.104  37.088  1.00  0.00     0.049 C 
HETATM    8  C16         0      34.456  40.452  38.302  1.00  0.00     0.093 C 
HETATM    9  C18         0      35.780  40.191  38.631  1.00  0.00     0.048 C 
HETATM   10  C19         0      36.808  40.928  38.057  1.00  0.00     0.096 C 
HETATM   11  C21         0      36.515  41.908  37.148  1.00  0.00     0.084 C 
ENDROOT
BRANCH  10  12
HETATM   12  O20         0      38.047  40.973  38.688  1.00  0.00    -0.359 OA
HETATM   13  H20         0      38.073  41.235  39.601  1.00  0.00     0.218 HD
ENDBRANCH  10  12
BRANCH   4  14
HETATM   14  C5          0      35.262  44.897  34.591  1.00  0.00     0.025 C 
HETATM   15  C6          0      35.917  45.602  33.592  1.00  0.00     0.004 C 
HETATM   16  C7          0      35.148  46.107  32.549  1.00  0.00     0.026 C 
HETATM   17  C8          0      33.759  46.032  32.564  1.00  0.00     0.112 C 
HETATM   18  C10         0      33.199  45.905  33.828  1.00  0.00     0.112 C 
HETATM   19  C12         0      33.961  45.318  34.832  1.00  0.00     0.028 C 
BRANCH  17  20
HETATM   20  O9          0      33.045  45.883  31.389  1.00  0.00    -0.357 OA
HETATM   21  H9          0      33.255  45.241  30.721  1.00  0.00     0.218 HD
ENDBRANCH  17  20
BRANCH  18  22
HETATM   22  O11         0      31.819  46.015  33.918  1.00  0.00    -0.357 OA
HETATM   23  H11         0      31.440  46.860  33.704  1.00  0.00     0.218 HD
ENDBRANCH  18  22
ENDBRANCH   4  14
BRANCH   8  24
HETATM   24  O17         0      33.433  40.376  39.253  1.00  0.00    -0.359 OA
HETATM   25  H17         0      33.615  40.402  40.185  1.00  0.00     0.218 HD
ENDBRANCH   8  24
TORSDOF 5
ENDMDL
MODEL 9
REMARK VINA RESULT:      -3.3      2.645      4.437
REMARK  5 active torsions:
REMARK  status: ('A' for Active; 'I' for Inactive)
REMARK    1  A    between atoms: C4_4  and  C5_5 
REMARK    2  A    between atoms: C8_8  and  O9_9 
REMARK    3  A    between atoms: C10_11  and  O11_12 
REMARK    4  A    between atoms: C16_18  and  O17_19 
REMARK    5  A    between atoms: C19_22  and  O20_23 
ROOT
HETATM    1  O1          0      37.143  45.771  37.966  1.00  0.00    -0.286 OA
HETATM    2  C2          0      36.762  44.943  37.094  1.00  0.00     0.201 C 
HETATM    3  C3          0      35.886  43.909  37.374  1.00  0.00     0.067 C 
HETATM    4  C4          0      35.563  42.950  36.420  1.00  0.00     0.103 C 
HETATM    5  O13         0      36.095  43.048  35.215  1.00  0.00    -0.307 OA
HETATM    6  C14         0      36.962  43.988  34.908  1.00  0.00     0.107 C 
HETATM    7  C15         0      37.810  43.873  33.817  1.00  0.00     0.049 C 
HETATM    8  C16         0      38.886  44.735  33.645  1.00  0.00     0.093 C 
HETATM    9  C18         0      38.754  45.970  34.268  1.00  0.00     0.048 C 
HETATM   10  C19         0      37.879  46.133  35.333  1.00  0.00     0.096 C 
HETATM   11  C21         0      37.128  45.073  35.763  1.00  0.00     0.084 C 
ENDROOT
BRANCH  10  12
HETATM   12  O20         0      38.064  47.199  36.208  1.00  0.00    -0.359 OA
HETATM   13  H20         0      37.523  47.971  36.089  1.00  0.00     0.218 HD
ENDBRANCH  10  12
BRANCH   4  14
HETATM   14  C5          0      35.163  41.628  36.908  1.00  0.00     0.025 C 
HETATM   15  C6          0      36.051  40.748  37.509  1.00  0.00     0.004 C 
HETATM   16  C7          0      35.586  39.996  38.583  1.00  0.00     0.026 C 
HETATM   17  C8          0      34.249  40.017  38.964  1.00  0.00     0.112 C 
HETATM   18  C10         0      33.367  40.395  37.961  1.00  0.00     0.112 C 
HETATM   19  C12         0      33.836  41.218  36.944  1.00  0.00     0.028 C 
BRANCH  17  20
HETATM   20  O9          0      33.888  39.875  40.292  1.00  0.00    -0.357 OA
HETATM   21  H9          0      33.246  40.426  40.726  1.00  0.00     0.218 HD
ENDBRANCH  17  20
BRANCH  18  22
HETATM   22  O11         0      32.012  40.252  38.228  1.00  0.00    -0.357 OA
HETATM   23  H11         0      31.757  40.211  39.142  1.00  0.00     0.218 HD
ENDBRANCH  18  22
ENDBRANCH   4  14
BRANCH   8  24
HETATM   24  O17         0      40.123  44.274  33.179  1.00  0.00    -0.359 OA
HETATM   25  H17         0      40.555  43.525  33.570  1.00  0.00     0.218 HD
ENDBRANCH   8  24
TORSDOF 5
ENDMDL
