MODEL 1
REMARK VINA RESULT:      -6.1      0.000      0.000
REMARK  5 active torsions:
REMARK  status: ('A' for Active; 'I' for Inactive)
REMARK    1  A    between atoms: C4_4  and  C5_5 
REMARK    2  A    between atoms: C8_8  and  O9_9 
REMARK    3  A    between atoms: C10_11  and  O11_12 
REMARK    4  A    between atoms: C16_18  and  O17_19 
REMARK    5  A    between atoms: C19_22  and  O20_23 
ROOT
HETATM    1  O1          0      35.564  12.645  18.453  1.00  0.00    -0.286 OA
HETATM    2  C2          0      36.566  12.069  17.946  1.00  0.00     0.201 C 
HETATM    3  C3          0      37.677  11.705  18.688  1.00  0.00     0.067 C 
HETATM    4  C4          0      38.808  11.165  18.088  1.00  0.00     0.103 C 
HETATM    5  O13         0      38.806  10.979  16.780  1.00  0.00    -0.307 OA
HETATM    6  C14         0      37.792  11.342  16.024  1.00  0.00     0.107 C 
HETATM    7  C15         0      37.929  11.525  14.656  1.00  0.00     0.049 C 
HETATM    8  C16         0      36.937  12.147  13.908  1.00  0.00     0.093 C 
HETATM    9  C18         0      35.661  12.080  14.454  1.00  0.00     0.048 C 
HETATM   10  C19         0      35.487  11.852  15.813  1.00  0.00     0.096 C 
HETATM   11  C21         0      36.579  11.674  16.617  1.00  0.00     0.084 C 
ENDROOT
BRANCH  10  12
HETATM   12  O20         0      34.285  12.213  16.414  1.00  0.00    -0.359 OA
HETATM   13  H20         0      33.502  12.219  15.877  1.00  0.00     0.218 HD
ENDBRANCH  10  12
BRANCH   4  14
HETATM   14  C5          0      40.089  11.367  18.769  1.00  0.00     0.025 C 
HETATM   15  C6          0      40.947  10.323  19.081  1.00  0.00     0.004 C 
HETATM   16  C7          0      42.313  10.550  18.947  1.00  0.00     0.026 C 
HETATM   17  C8          0      42.817  11.810  18.643  1.00  0.00     0.112 C 
HETATM   18  C10         0      41.977  12.865  18.974  1.00  0.00     0.112 C 
HETATM   19  C12         0      40.608  12.631  19.017  1.00  0.00     0.028 C 
BRANCH  17  20
HETATM   20  O9          0      43.964  11.950  17.883  1.00  0.00    -0.357 OA
HETATM   21  H9          0      44.251  11.314  17.237  1.00  0.00     0.218 HD
ENDBRANCH  17  20
BRANCH  18  22
HETATM   22  O11         0      42.504  14.144  18.868  1.00  0.00    -0.357 OA
HETATM   23  H11         0      42.405  14.582  18.030  1.00  0.00     0.218 HD
ENDBRANCH  18  22
ENDBRANCH   4  14
BRANCH   8  24
HETATM   24  O17         0      37.252  13.046  12.883  1.00  0.00    -0.359 OA
HETATM   25  H17         0      37.741  13.843  13.050  1.00  0.00     0.218 HD
ENDBRANCH   8  24
TORSDOF 5
ENDMDL
MODEL 2
REMARK VINA RESULT:      -5.8      1.260      2.646
REMARK  5 active torsions:
REMARK  status: ('A' for Active; 'I' for Inactive)
REMARK    1  A    between atoms: C4_4  and  C5_5 
REMARK    2  A    between atoms: C8_8  and  O9_9 
REMARK    3  A    between atoms: C10_11  and  O11_12 
REMARK    4  A    between atoms: C16_18  and  O17_19 
REMARK    5  A    between atoms: C19_22  and  O20_23 
ROOT
HETATM    1  O1          0      38.299  11.557  13.851  1.00  0.00    -0.286 OA
HETATM    2  C2          0      38.159  11.907  15.055  1.00  0.00     0.201 C 
HETATM    3  C3          0      39.231  12.111  15.907  1.00  0.00     0.067 C 
HETATM    4  C4          0      39.046  12.396  17.255  1.00  0.00     0.103 C 
HETATM    5  O13         0      37.813  12.492  17.721  1.00  0.00    -0.307 OA
HETATM    6  C14         0      36.761  12.271  16.964  1.00  0.00     0.107 C 
HETATM    7  C15         0      35.519  11.976  17.506  1.00  0.00     0.049 C 
HETATM    8  C16         0      34.481  11.497  16.716  1.00  0.00     0.093 C 
HETATM    9  C18         0      34.566  11.830  15.370  1.00  0.00     0.048 C 
HETATM   10  C19         0      35.786  12.176  14.804  1.00  0.00     0.096 C 
HETATM   11  C21         0      36.911  12.204  15.583  1.00  0.00     0.084 C 
ENDROOT
BRANCH  10  12
HETATM   12  O20         0      35.949  12.079  13.426  1.00  0.00    -0.359 OA
HETATM   13  H20         0      36.770  11.734  13.097  1.00  0.00     0.218 HD
ENDBRANCH  10  12
BRANCH   4  14
HETATM   14  C5          0      40.118  12.009  18.175  1.00  0.00     0.025 C 
HETATM   15  C6          0      40.653  10.729  18.211  1.00  0.00     0.004 C 
HETATM   16  C7          0      42.024  10.609  18.415  1.00  0.00     0.026 C 
HETATM   17  C8          0      42.817  11.713  18.707  1.00  0.00     0.112 C 
HETATM   18  C10         0      42.134  12.787  19.263  1.00  0.00     0.112 C 
HETATM   19  C12         0      40.783  12.931  18.973  1.00  0.00     0.028 C 
BRANCH  17  20
HETATM   20  O9          0      44.129  11.779  18.271  1.00  0.00    -0.357 OA
HETATM   21  H9          0      44.608  12.592  18.162  1.00  0.00     0.218 HD
ENDBRANCH  17  20
BRANCH  18  22
HETATM   22  O11         0      42.901  13.837  19.746  1.00  0.00    -0.357 OA
HETATM   23  H11         0      42.564  14.304  20.502  1.00  0.00     0.218 HD
ENDBRANCH  18  22
ENDBRANCH   4  14
BRANCH   8  24
HETATM   24  O17         0      33.622  10.490  17.172  1.00  0.00    -0.359 OA
HETATM   25  H17         0      33.911   9.830  17.790  1.00  0.00     0.218 HD
ENDBRANCH   8  24
TORSDOF 5
ENDMDL
MODEL 3
REMARK VINA RESULT:      -5.5     13.890     16.188
REMARK  5 active torsions:
REMARK  status: ('A' for Active; 'I' for Inactive)
REMARK    1  A    between atoms: C4_4  and  C5_5 
REMARK    2  A    between atoms: C8_8  and  O9_9 
REMARK    3  A    between atoms: C10_11  and  O11_12 
REMARK    4  A    between atoms: C16_18  and  O17_19 
REMARK    5  A    between atoms: C19_22  and  O20_23 
ROOT
HETATM    1  O1          0      44.907  14.493   7.611  1.00  0.00    -0.286 OA
HETATM    2  C2          0      45.939  14.819   6.962  1.00  0.00     0.201 C 
HETATM    3  C3          0      45.885  15.514   5.766  1.00  0.00     0.067 C 
HETATM    4  C4          0      47.030  15.771   5.020  1.00  0.00     0.103 C 
HETATM    5  O13         0      48.196  15.354   5.483  1.00  0.00    -0.307 OA
HETATM    6  C14         0      48.298  14.657   6.593  1.00  0.00     0.107 C 
HETATM    7  C15         0      49.419  13.889   6.873  1.00  0.00     0.049 C 
HETATM    8  C16         0      49.420  12.964   7.910  1.00  0.00     0.093 C 
HETATM    9  C18         0      48.508  13.222   8.927  1.00  0.00     0.048 C 
HETATM   10  C19         0      47.400  14.024   8.694  1.00  0.00     0.096 C 
HETATM   11  C21         0      47.212  14.580   7.458  1.00  0.00     0.084 C 
ENDROOT
BRANCH  10  12
HETATM   12  O20         0      46.299  13.926   9.539  1.00  0.00    -0.359 OA
HETATM   13  H20         0      45.510  13.523   9.198  1.00  0.00     0.218 HD
ENDBRANCH  10  12
BRANCH   4  14
HETATM   14  C5          0      46.865  15.939   3.575  1.00  0.00     0.025 C 
HETATM   15  C6          0      46.111  16.962   3.019  1.00  0.00     0.004 C 
HETATM   16  C7          0      46.589  17.553   1.854  1.00  0.00     0.026 C 
HETATM   17  C8          0      47.705  17.058   1.189  1.00  0.00     0.112 C 
HETATM   18  C10         0      47.985  15.722   1.442  1.00  0.00     0.112 C 
HETATM   19  C12         0      47.570  15.178   2.652  1.00  0.00     0.028 C 
BRANCH  17  20
HETATM   20  O9          0      48.562  17.907   0.511  1.00  0.00    -0.357 OA
HETATM   21  H9          0      49.499  17.765   0.439  1.00  0.00     0.218 HD
ENDBRANCH  17  20
BRANCH  18  22
HETATM   22  O11         0      48.969  15.127   0.664  1.00  0.00    -0.357 OA
HETATM   23  H11         0      49.573  15.708   0.217  1.00  0.00     0.218 HD
ENDBRANCH  18  22
ENDBRANCH   4  14
BRANCH   8  24
HETATM   24  O17         0      50.035  11.715   7.773  1.00  0.00    -0.359 OA
HETATM   25  H17         0      49.695  11.053   7.181  1.00  0.00     0.218 HD
ENDBRANCH   8  24
TORSDOF 5
ENDMDL
MODEL 4
REMARK VINA RESULT:      -5.3     13.679     15.444
REMARK  5 active torsions:
REMARK  status: ('A' for Active; 'I' for Inactive)
REMARK    1  A    between atoms: C4_4  and  C5_5 
REMARK    2  A    between atoms: C8_8  and  O9_9 
REMARK    3  A    between atoms: C10_11  and  O11_12 
REMARK    4  A    between atoms: C16_18  and  O17_19 
REMARK    5  A    between atoms: C19_22  and  O20_23 
ROOT
HETATM    1  O1          0      46.388  18.733   4.498  1.00  0.00    -0.286 OA
HETATM    2  C2          0      46.456  17.477   4.590  1.00  0.00     0.201 C 
HETATM    3  C3          0      46.210  16.796   5.770  1.00  0.00     0.067 C 
HETATM    4  C4          0      46.392  15.421   5.870  1.00  0.00     0.103 C 
HETATM    5  O13         0      46.791  14.755   4.801  1.00  0.00    -0.307 OA
HETATM    6  C14         0      47.074  15.357   3.667  1.00  0.00     0.107 C 
HETATM    7  C15         0      47.855  14.751   2.693  1.00  0.00     0.049 C 
HETATM    8  C16         0      48.360  15.475   1.620  1.00  0.00     0.093 C 
HETATM    9  C18         0      47.642  16.619   1.293  1.00  0.00     0.048 C 
HETATM   10  C19         0      46.815  17.224   2.230  1.00  0.00     0.096 C 
HETATM   11  C21         0      46.693  16.681   3.479  1.00  0.00     0.084 C 
ENDROOT
BRANCH  10  12
HETATM   12  O20         0      46.459  18.559   2.061  1.00  0.00    -0.359 OA
HETATM   13  H20         0      46.668  18.974   1.233  1.00  0.00     0.218 HD
ENDBRANCH  10  12
BRANCH   4  14
HETATM   14  C5          0      46.705  14.882   7.194  1.00  0.00     0.025 C 
HETATM   15  C6          0      45.729  14.589   8.136  1.00  0.00     0.004 C 
HETATM   16  C7          0      45.908  13.451   8.917  1.00  0.00     0.026 C 
HETATM   17  C8          0      47.080  12.703   8.859  1.00  0.00     0.112 C 
HETATM   18  C10         0      48.190  13.400   8.400  1.00  0.00     0.112 C 
HETATM   19  C12         0      47.986  14.482   7.552  1.00  0.00     0.028 C 
BRANCH  17  20
HETATM   20  O9          0      47.056  11.332   9.045  1.00  0.00    -0.357 OA
HETATM   21  H9          0      46.380  10.878   9.535  1.00  0.00     0.218 HD
ENDBRANCH  17  20
BRANCH  18  22
HETATM   22  O11         0      49.418  12.761   8.500  1.00  0.00    -0.357 OA
HETATM   23  H11         0      49.479  11.887   8.131  1.00  0.00     0.218 HD
ENDBRANCH  18  22
ENDBRANCH   4  14
BRANCH   8  24
HETATM   24  O17         0      49.657  15.258   1.140  1.00  0.00    -0.359 OA
HETATM   25  H17         0      49.933  15.573   0.288  1.00  0.00     0.218 HD
ENDBRANCH   8  24
TORSDOF 5
ENDMDL
MODEL 5
REMARK VINA RESULT:      -5.3      1.679      6.799
REMARK  5 active torsions:
REMARK  status: ('A' for Active; 'I' for Inactive)
REMARK    1  A    between atoms: C4_4  and  C5_5 
REMARK    2  A    between atoms: C8_8  and  O9_9 
REMARK    3  A    between atoms: C10_11  and  O11_12 
REMARK    4  A    between atoms: C16_18  and  O17_19 
REMARK    5  A    between atoms: C19_22  and  O20_23 
ROOT
HETATM    1  O1          0      41.455  10.024  16.450  1.00  0.00    -0.286 OA
HETATM    2  C2          0      40.754  10.617  17.316  1.00  0.00     0.201 C 
HETATM    3  C3          0      39.385  10.781  17.189  1.00  0.00     0.067 C 
HETATM    4  C4          0      38.653  11.527  18.106  1.00  0.00     0.103 C 
HETATM    5  O13         0      39.285  12.071  19.130  1.00  0.00    -0.307 OA
HETATM    6  C14         0      40.588  11.977  19.278  1.00  0.00     0.107 C 
HETATM    7  C15         0      41.296  12.850  20.091  1.00  0.00     0.049 C 
HETATM    8  C16         0      42.684  12.913  20.046  1.00  0.00     0.093 C 
HETATM    9  C18         0      43.309  11.758  19.592  1.00  0.00     0.048 C 
HETATM   10  C19         0      42.616  10.840  18.815  1.00  0.00     0.096 C 
HETATM   11  C21         0      41.302  11.065  18.508  1.00  0.00     0.084 C 
ENDROOT
BRANCH  10  12
HETATM   12  O20         0      43.328   9.947  18.020  1.00  0.00    -0.359 OA
HETATM   13  H20         0      43.111   9.024  18.083  1.00  0.00     0.218 HD
ENDBRANCH  10  12
BRANCH   4  14
HETATM   14  C5          0      37.418  12.151  17.627  1.00  0.00     0.025 C 
HETATM   15  C6          0      37.408  13.191  16.709  1.00  0.00     0.004 C 
HETATM   16  C7          0      36.402  13.193  15.749  1.00  0.00     0.026 C 
HETATM   17  C8          0      35.362  12.270  15.778  1.00  0.00     0.112 C 
HETATM   18  C10         0      35.114  11.716  17.027  1.00  0.00     0.112 C 
HETATM   19  C12         0      36.161  11.649  17.940  1.00  0.00     0.028 C 
BRANCH  17  20
HETATM   20  O9          0      34.790  11.808  14.606  1.00  0.00    -0.357 OA
HETATM   21  H9          0      34.320  10.986  14.537  1.00  0.00     0.218 HD
ENDBRANCH  17  20
BRANCH  18  22
HETATM   22  O11         0      33.974  10.936  17.154  1.00  0.00    -0.357 OA
HETATM   23  H11         0      34.101  10.024  17.390  1.00  0.00     0.218 HD
ENDBRANCH  18  22
ENDBRANCH   4  14
BRANCH   8  24
HETATM   24  O17         0      43.362  14.134  20.125  1.00  0.00    -0.359 OA
HETATM   25  H17         0      42.998  14.932  19.759  1.00  0.00     0.218 HD
ENDBRANCH   8  24
TORSDOF 5
ENDMDL
MODEL 6
REMARK VINA RESULT:      -5.2      1.917      6.851
REMARK  5 active torsions:
REMARK  status: ('A' for Active; 'I' for Inactive)
REMARK    1  A    between atoms: C4_4  and  C5_5 
REMARK    2  A    between atoms: C8_8  and  O9_9 
REMARK    3  A    between atoms: C10_11  and  O11_12 
REMARK    4  A    between atoms: C16_18  and  O17_19 
REMARK    5  A    between atoms: C19_22  and  O20_23 
ROOT
HETATM    1  O1          0      42.064   9.312  15.983  1.00  0.00    -0.286 OA
HETATM    2  C2          0      41.526   9.991  16.900  1.00  0.00     0.201 C 
HETATM    3  C3          0      40.272  10.563  16.773  1.00  0.00     0.067 C 
HETATM    4  C4          0      39.746  11.392  17.757  1.00  0.00     0.103 C 
HETATM    5  O13         0      40.460  11.617  18.846  1.00  0.00    -0.307 OA
HETATM    6  C14         0      41.671  11.129  19.000  1.00  0.00     0.107 C 
HETATM    7  C15         0      42.564  11.666  19.916  1.00  0.00     0.049 C 
HETATM    8  C16         0      43.910  11.321  19.899  1.00  0.00     0.093 C 
HETATM    9  C18         0      44.193  10.087  19.326  1.00  0.00     0.048 C 
HETATM   10  C19         0      43.300   9.500  18.441  1.00  0.00     0.096 C 
HETATM   11  C21         0      42.124  10.132  18.143  1.00  0.00     0.084 C 
ENDROOT
BRANCH  10  12
HETATM   12  O20         0      43.757   8.524  17.560  1.00  0.00    -0.359 OA
HETATM   13  H20         0      43.663   8.685  16.629  1.00  0.00     0.218 HD
ENDBRANCH  10  12
BRANCH   4  14
HETATM   14  C5          0      38.769  12.398  17.334  1.00  0.00     0.025 C 
HETATM   15  C6          0      38.608  12.780  16.011  1.00  0.00     0.004 C 
HETATM   16  C7          0      37.315  13.031  15.565  1.00  0.00     0.026 C 
HETATM   17  C8          0      36.231  13.034  16.436  1.00  0.00     0.112 C 
HETATM   18  C10         0      36.555  13.274  17.765  1.00  0.00     0.112 C 
HETATM   19  C12         0      37.829  12.935  18.205  1.00  0.00     0.028 C 
BRANCH  17  20
HETATM   20  O9          0      34.981  12.617  16.014  1.00  0.00    -0.357 OA
HETATM   21  H9          0      34.168  12.881  16.430  1.00  0.00     0.218 HD
ENDBRANCH  17  20
BRANCH  18  22
HETATM   22  O11         0      35.500  13.475  18.643  1.00  0.00    -0.357 OA
HETATM   23  H11         0      35.577  13.082  19.505  1.00  0.00     0.218 HD
ENDBRANCH  18  22
ENDBRANCH   4  14
BRANCH   8  24
HETATM   24  O17         0      44.910  12.274  20.125  1.00  0.00    -0.359 OA
HETATM   25  H17         0      44.712  13.201  20.185  1.00  0.00     0.218 HD
ENDBRANCH   8  24
TORSDOF 5
ENDMDL
MODEL 7
REMARK VINA RESULT:      -4.9      3.848      6.836
REMARK  5 active torsions:
REMARK  status: ('A' for Active; 'I' for Inactive)
REMARK    1  A    between atoms: C4_4  and  C5_5 
REMARK    2  A    between atoms: C8_8  and  O9_9 
REMARK    3  A    between atoms: C10_11  and  O11_12 
REMARK    4  A    between atoms: C16_18  and  O17_19 
REMARK    5  A    between atoms: C19_22  and  O20_23 
ROOT
HETATM    1  O1          0      39.943   9.339  14.147  1.00  0.00    -0.286 OA
HETATM    2  C2          0      39.229  10.155  13.501  1.00  0.00     0.201 C 
HETATM    3  C3          0      39.479  10.489  12.181  1.00  0.00     0.067 C 
HETATM    4  C4          0      38.739  11.466  11.525  1.00  0.00     0.103 C 
HETATM    5  O13         0      37.764  12.070  12.180  1.00  0.00    -0.307 OA
HETATM    6  C14         0      37.509  11.818  13.445  1.00  0.00     0.107 C 
HETATM    7  C15         0      36.785  12.699  14.235  1.00  0.00     0.049 C 
HETATM    8  C16         0      36.737  12.556  15.617  1.00  0.00     0.093 C 
HETATM    9  C18         0      36.968  11.267  16.082  1.00  0.00     0.048 C 
HETATM   10  C19         0      37.648  10.345  15.298  1.00  0.00     0.096 C 
HETATM   11  C21         0      38.080  10.703  14.050  1.00  0.00     0.084 C 
ENDROOT
BRANCH  10  12
HETATM   12  O20         0      38.247   9.246  15.905  1.00  0.00    -0.359 OA
HETATM   13  H20         0      37.903   8.384  15.705  1.00  0.00     0.218 HD
ENDBRANCH  10  12
BRANCH   4  14
HETATM   14  C5          0      39.394  12.175  10.424  1.00  0.00     0.025 C 
HETATM   15  C6          0      38.775  13.191   9.710  1.00  0.00     0.004 C 
HETATM   16  C7          0      39.555  14.277   9.326  1.00  0.00     0.026 C 
HETATM   17  C8          0      40.932  14.294   9.526  1.00  0.00     0.112 C 
HETATM   18  C10         0      41.515  13.039   9.644  1.00  0.00     0.112 C 
HETATM   19  C12         0      40.735  11.989  10.112  1.00  0.00     0.028 C 
BRANCH  17  20
HETATM   20  O9          0      41.595  15.478   9.794  1.00  0.00    -0.357 OA
HETATM   21  H9          0      41.408  16.299   9.353  1.00  0.00     0.218 HD
ENDBRANCH  17  20
BRANCH  18  22
HETATM   22  O11         0      42.902  12.990   9.656  1.00  0.00    -0.357 OA
HETATM   23  H11         0      43.328  12.669   8.869  1.00  0.00     0.218 HD
ENDBRANCH  18  22
ENDBRANCH   4  14
BRANCH   8  24
HETATM   24  O17         0      36.792  13.666  16.467  1.00  0.00    -0.359 OA
HETATM   25  H17         0      36.103  14.320  16.479  1.00  0.00     0.218 HD
ENDBRANCH   8  24
TORSDOF 5
ENDMDL
MODEL 8
REMARK VINA RESULT:      -4.9     12.766     14.586
REMARK  5 active torsions:
REMARK  status: ('A' for Active; 'I' for Inactive)
REMARK    1  A    between atoms: C4_4  and  C5_5 
REMARK    2  A    between atoms: C8_8  and  O9_9 
REMARK    3  A    between atoms: C10_11  and  O11_12 
REMARK    4  A    between atoms: C16_18  and  O17_19 
REMARK    5  A    between atoms: C19_22  and  O20_23 
ROOT
HETATM    1  O1          0      47.768  13.445   3.502  1.00  0.00    -0.286 OA
HETATM    2  C2          0      47.696  14.242   4.477  1.00  0.00     0.201 C 
HETATM    3  C3          0      47.983  13.863   5.778  1.00  0.00     0.067 C 
HETATM    4  C4          0      47.798  14.732   6.847  1.00  0.00     0.103 C 
HETATM    5  O13         0      47.355  15.953   6.603  1.00  0.00    -0.307 OA
HETATM    6  C14         0      47.032  16.351   5.392  1.00  0.00     0.107 C 
HETATM    7  C15         0      46.212  17.449   5.178  1.00  0.00     0.049 C 
HETATM    8  C16         0      45.669  17.711   3.926  1.00  0.00     0.093 C 
HETATM    9  C18         0      46.381  17.183   2.856  1.00  0.00     0.048 C 
HETATM   10  C19         0      47.246  16.114   3.043  1.00  0.00     0.096 C 
HETATM   11  C21         0      47.413  15.586   4.295  1.00  0.00     0.084 C 
ENDROOT
BRANCH  10  12
HETATM   12  O20         0      47.603  15.328   1.951  1.00  0.00    -0.359 OA
HETATM   13  H20         0      47.217  15.535   1.109  1.00  0.00     0.218 HD
ENDBRANCH  10  12
BRANCH   4  14
HETATM   14  C5          0      47.533  14.135   8.157  1.00  0.00     0.025 C 
HETATM   15  C6          0      46.254  14.005   8.679  1.00  0.00     0.004 C 
HETATM   16  C7          0      45.964  12.846   9.393  1.00  0.00     0.026 C 
HETATM   17  C8          0      46.947  11.909   9.693  1.00  0.00     0.112 C 
HETATM   18  C10         0      48.243  12.409   9.697  1.00  0.00     0.112 C 
HETATM   19  C12         0      48.525  13.518   8.908  1.00  0.00     0.028 C 
BRANCH  17  20
HETATM   20  O9          0      46.644  10.561   9.765  1.00  0.00    -0.357 OA
HETATM   21  H9          0      45.908  10.211  10.253  1.00  0.00     0.218 HD
ENDBRANCH  17  20
BRANCH  18  22
HETATM   22  O11         0      49.239  11.569  10.173  1.00  0.00    -0.357 OA
HETATM   23  H11         0      49.737  11.082   9.526  1.00  0.00     0.218 HD
ENDBRANCH  18  22
ENDBRANCH   4  14
BRANCH   8  24
HETATM   24  O17         0      44.354  18.168   3.782  1.00  0.00    -0.359 OA
HETATM   25  H17         0      43.621  17.709   4.175  1.00  0.00     0.218 HD
ENDBRANCH   8  24
TORSDOF 5
ENDMDL
MODEL 9
REMARK VINA RESULT:      -4.8      2.403      3.069
REMARK  5 active torsions:
REMARK  status: ('A' for Active; 'I' for Inactive)
REMARK    1  A    between atoms: C4_4  and  C5_5 
REMARK    2  A    between atoms: C8_8  and  O9_9 
REMARK    3  A    between atoms: C10_11  and  O11_12 
REMARK    4  A    between atoms: C16_18  and  O17_19 
REMARK    5  A    between atoms: C19_22  and  O20_23 
ROOT
HETATM    1  O1          0      39.039  12.840  18.243  1.00  0.00    -0.286 OA
HETATM    2  C2          0      39.139  11.926  17.378  1.00  0.00     0.201 C 
HETATM    3  C3          0      40.080  10.914  17.461  1.00  0.00     0.067 C 
HETATM    4  C4          0      40.236   9.980  16.443  1.00  0.00     0.103 C 
HETATM    5  O13         0      39.449  10.056  15.385  1.00  0.00    -0.307 OA
HETATM    6  C14         0      38.566  11.019  15.239  1.00  0.00     0.107 C 
HETATM    7  C15         0      38.034  11.342  13.998  1.00  0.00     0.049 C 
HETATM    8  C16         0      37.305  12.510  13.807  1.00  0.00     0.093 C 
HETATM    9  C18         0      36.705  13.021  14.951  1.00  0.00     0.048 C 
HETATM   10  C19         0      37.182  12.682  16.210  1.00  0.00     0.096 C 
HETATM   11  C21         0      38.242  11.824  16.326  1.00  0.00     0.084 C 
ENDROOT
BRANCH  10  12
HETATM   12  O20         0      36.886  13.502  17.294  1.00  0.00    -0.359 OA
HETATM   13  H20         0      37.483  14.214  17.490  1.00  0.00     0.218 HD
ENDBRANCH  10  12
BRANCH   4  14
HETATM   14  C5          0      41.556   9.363  16.297  1.00  0.00     0.025 C 
HETATM   15  C6          0      41.964   8.728  15.134  1.00  0.00     0.004 C 
HETATM   16  C7          0      43.289   8.892  14.740  1.00  0.00     0.026 C 
HETATM   17  C8          0      44.211   9.554  15.543  1.00  0.00     0.112 C 
HETATM   18  C10         0      43.891   9.580  16.894  1.00  0.00     0.112 C 
HETATM   19  C12         0      42.551   9.499  17.256  1.00  0.00     0.028 C 
BRANCH  17  20
HETATM   20  O9          0      45.237  10.294  14.983  1.00  0.00    -0.357 OA
HETATM   21  H9          0      45.418  10.324  14.050  1.00  0.00     0.218 HD
ENDBRANCH  17  20
BRANCH  18  22
HETATM   22  O11         0      44.862  10.058  17.761  1.00  0.00    -0.357 OA
HETATM   23  H11         0      44.593  10.232  18.656  1.00  0.00     0.218 HD
ENDBRANCH  18  22
ENDBRANCH   4  14
BRANCH   8  24
HETATM   24  O17         0      37.450  13.277  12.646  1.00  0.00    -0.359 OA
HETATM   25  H17         0      37.948  14.086  12.642  1.00  0.00     0.218 HD
ENDBRANCH   8  24
TORSDOF 5
ENDMDL
