MODEL 1
REMARK VINA RESULT:      -1.9      0.000      0.000
REMARK  5 active torsions:
REMARK  status: ('A' for Active; 'I' for Inactive)
REMARK    1  A    between atoms: C4_4  and  C5_5 
REMARK    2  A    between atoms: C8_8  and  O9_9 
REMARK    3  A    between atoms: C10_11  and  O11_12 
REMARK    4  A    between atoms: C16_18  and  O17_19 
REMARK    5  A    between atoms: C19_22  and  O20_23 
ROOT
HETATM    1  O1          0      19.377  35.497  36.113  1.00  0.00    -0.286 OA
HETATM    2  C2          0      19.668  34.294  35.872  1.00  0.00     0.201 C 
HETATM    3  C3          0      19.907  33.820  34.594  1.00  0.00     0.067 C 
HETATM    4  C4          0      20.125  32.470  34.346  1.00  0.00     0.103 C 
HETATM    5  O13         0      20.121  31.629  35.365  1.00  0.00    -0.307 OA
HETATM    6  C14         0      19.862  32.020  36.593  1.00  0.00     0.107 C 
HETATM    7  C15         0      19.466  31.125  37.577  1.00  0.00     0.049 C 
HETATM    8  C16         0      18.951  31.568  38.790  1.00  0.00     0.093 C 
HETATM    9  C18         0      19.344  32.848  39.161  1.00  0.00     0.048 C 
HETATM   10  C19         0      19.790  33.754  38.208  1.00  0.00     0.096 C 
HETATM   11  C21         0      19.861  33.377  36.895  1.00  0.00     0.084 C 
ENDROOT
BRANCH  10  12
HETATM   12  O20         0      19.760  35.115  38.496  1.00  0.00    -0.359 OA
HETATM   13  H20         0      19.731  35.723  37.768  1.00  0.00     0.218 HD
ENDBRANCH  10  12
BRANCH   4  14
HETATM   14  C5          0      19.773  31.968  33.016  1.00  0.00     0.025 C 
HETATM   15  C6          0      19.785  30.618  32.694  1.00  0.00     0.004 C 
HETATM   16  C7          0      18.779  30.146  31.857  1.00  0.00     0.026 C 
HETATM   17  C8          0      17.870  31.007  31.252  1.00  0.00     0.112 C 
HETATM   18  C10         0      18.312  32.317  31.119  1.00  0.00     0.112 C 
HETATM   19  C12         0      19.257  32.790  32.023  1.00  0.00     0.028 C 
BRANCH  17  20
HETATM   20  O9          0      16.567  30.608  31.010  1.00  0.00    -0.357 OA
HETATM   21  H9          0      16.109  30.769  30.194  1.00  0.00     0.218 HD
ENDBRANCH  17  20
BRANCH  18  22
HETATM   22  O11         0      17.528  33.171  30.357  1.00  0.00    -0.357 OA
HETATM   23  H11         0      16.919  32.768  29.749  1.00  0.00     0.218 HD
ENDBRANCH  18  22
ENDBRANCH   4  14
BRANCH   8  24
HETATM   24  O17         0      17.873  30.921  39.404  1.00  0.00    -0.359 OA
HETATM   25  H17         0      17.008  30.913  39.013  1.00  0.00     0.218 HD
ENDBRANCH   8  24
TORSDOF 5
ENDMDL
MODEL 2
REMARK VINA RESULT:      -1.8      1.699      6.695
REMARK  5 active torsions:
REMARK  status: ('A' for Active; 'I' for Inactive)
REMARK    1  A    between atoms: C4_4  and  C5_5 
REMARK    2  A    between atoms: C8_8  and  O9_9 
REMARK    3  A    between atoms: C10_11  and  O11_12 
REMARK    4  A    between atoms: C16_18  and  O17_19 
REMARK    5  A    between atoms: C19_22  and  O20_23 
ROOT
HETATM    1  O1          0      19.149  30.380  33.677  1.00  0.00    -0.286 OA
HETATM    2  C2          0      19.438  31.559  34.023  1.00  0.00     0.201 C 
HETATM    3  C3          0      19.868  31.882  35.299  1.00  0.00     0.067 C 
HETATM    4  C4          0      20.082  33.201  35.683  1.00  0.00     0.103 C 
HETATM    5  O13         0      19.886  34.160  34.795  1.00  0.00    -0.307 OA
HETATM    6  C14         0      19.442  33.911  33.583  1.00  0.00     0.107 C 
HETATM    7  C15         0      18.862  34.898  32.799  1.00  0.00     0.049 C 
HETATM    8  C16         0      18.171  34.583  31.636  1.00  0.00     0.093 C 
HETATM    9  C18         0      18.536  33.380  31.043  1.00  0.00     0.048 C 
HETATM   10  C19         0      19.161  32.388  31.787  1.00  0.00     0.096 C 
HETATM   11  C21         0      19.433  32.603  33.111  1.00  0.00     0.084 C 
ENDROOT
BRANCH  10  12
HETATM   12  O20         0      19.126  31.074  31.333  1.00  0.00    -0.359 OA
HETATM   13  H20         0      18.446  30.834  30.714  1.00  0.00     0.218 HD
ENDBRANCH  10  12
BRANCH   4  14
HETATM   14  C5          0      19.936  33.517  37.105  1.00  0.00     0.025 C 
HETATM   15  C6          0      19.514  34.757  37.561  1.00  0.00     0.004 C 
HETATM   16  C7          0      18.670  34.784  38.666  1.00  0.00     0.026 C 
HETATM   17  C8          0      18.363  33.629  39.378  1.00  0.00     0.112 C 
HETATM   18  C10         0      19.293  32.606  39.252  1.00  0.00     0.112 C 
HETATM   19  C12         0      20.065  32.554  38.098  1.00  0.00     0.028 C 
BRANCH  17  20
HETATM   20  O9          0      17.125  33.472  39.975  1.00  0.00    -0.357 OA
HETATM   21  H9          0      16.901  33.826  40.828  1.00  0.00     0.218 HD
ENDBRANCH  17  20
BRANCH  18  22
HETATM   22  O11         0      19.136  31.507  40.085  1.00  0.00    -0.357 OA
HETATM   23  H11         0      18.480  31.577  40.769  1.00  0.00     0.218 HD
ENDBRANCH  18  22
ENDBRANCH   4  14
BRANCH   8  24
HETATM   24  O17         0      16.987  35.244  31.289  1.00  0.00    -0.359 OA
HETATM   25  H17         0      16.489  35.003  30.517  1.00  0.00     0.218 HD
ENDBRANCH   8  24
TORSDOF 5
ENDMDL
MODEL 3
REMARK VINA RESULT:      -1.6      2.768      4.366
REMARK  5 active torsions:
REMARK  status: ('A' for Active; 'I' for Inactive)
REMARK    1  A    between atoms: C4_4  and  C5_5 
REMARK    2  A    between atoms: C8_8  and  O9_9 
REMARK    3  A    between atoms: C10_11  and  O11_12 
REMARK    4  A    between atoms: C16_18  and  O17_19 
REMARK    5  A    between atoms: C19_22  and  O20_23 
ROOT
HETATM    1  O1          0      19.230  36.519  33.213  1.00  0.00    -0.286 OA
HETATM    2  C2          0      19.462  35.499  32.508  1.00  0.00     0.201 C 
HETATM    3  C3          0      19.417  35.517  31.124  1.00  0.00     0.067 C 
HETATM    4  C4          0      19.575  34.357  30.374  1.00  0.00     0.103 C 
HETATM    5  O13         0      19.794  33.218  31.007  1.00  0.00    -0.307 OA
HETATM    6  C14         0      19.809  33.139  32.319  1.00  0.00     0.107 C 
HETATM    7  C15         0      19.637  31.931  32.981  1.00  0.00     0.049 C 
HETATM    8  C16         0      19.399  31.886  34.349  1.00  0.00     0.093 C 
HETATM    9  C18         0      19.863  32.985  35.062  1.00  0.00     0.048 C 
HETATM   10  C19         0      20.091  34.195  34.423  1.00  0.00     0.096 C 
HETATM   11  C21         0      19.874  34.304  33.076  1.00  0.00     0.084 C 
ENDROOT
BRANCH  10  12
HETATM   12  O20         0      20.125  35.366  35.174  1.00  0.00    -0.359 OA
HETATM   13  H20         0      20.967  35.784  35.310  1.00  0.00     0.218 HD
ENDBRANCH  10  12
BRANCH   4  14
HETATM   14  C5          0      18.942  34.320  29.055  1.00  0.00     0.025 C 
HETATM   15  C6          0      19.667  34.331  27.872  1.00  0.00     0.004 C 
HETATM   16  C7          0      19.204  33.541  26.825  1.00  0.00     0.026 C 
HETATM   17  C8          0      17.990  32.867  26.902  1.00  0.00     0.112 C 
HETATM   18  C10         0      17.083  33.406  27.805  1.00  0.00     0.112 C 
HETATM   19  C12         0      17.577  34.120  28.890  1.00  0.00     0.028 C 
BRANCH  17  20
HETATM   20  O9          0      17.817  31.645  26.276  1.00  0.00    -0.357 OA
HETATM   21  H9          0      17.045  31.414  25.772  1.00  0.00     0.218 HD
ENDBRANCH  17  20
BRANCH  18  22
HETATM   22  O11         0      15.795  32.891  27.785  1.00  0.00    -0.357 OA
HETATM   23  H11         0      15.269  33.019  28.565  1.00  0.00     0.218 HD
ENDBRANCH  18  22
ENDBRANCH   4  14
BRANCH   8  24
HETATM   24  O17         0      18.481  30.985  34.901  1.00  0.00    -0.359 OA
HETATM   25  H17         0      17.544  31.133  34.850  1.00  0.00     0.218 HD
ENDBRANCH   8  24
TORSDOF 5
ENDMDL
MODEL 4
REMARK VINA RESULT:      -1.6      1.841      2.309
REMARK  5 active torsions:
REMARK  status: ('A' for Active; 'I' for Inactive)
REMARK    1  A    between atoms: C4_4  and  C5_5 
REMARK    2  A    between atoms: C8_8  and  O9_9 
REMARK    3  A    between atoms: C10_11  and  O11_12 
REMARK    4  A    between atoms: C16_18  and  O17_19 
REMARK    5  A    between atoms: C19_22  and  O20_23 
ROOT
HETATM    1  O1          0      19.173  37.077  34.713  1.00  0.00    -0.286 OA
HETATM    2  C2          0      19.447  35.932  35.167  1.00  0.00     0.201 C 
HETATM    3  C3          0      19.928  34.906  34.373  1.00  0.00     0.067 C 
HETATM    4  C4          0      20.125  33.625  34.878  1.00  0.00     0.103 C 
HETATM    5  O13         0      19.863  33.398  36.153  1.00  0.00    -0.307 OA
HETATM    6  C14         0      19.369  34.328  36.941  1.00  0.00     0.107 C 
HETATM    7  C15         0      18.728  34.013  38.130  1.00  0.00     0.049 C 
HETATM    8  C16         0      17.990  34.963  38.826  1.00  0.00     0.093 C 
HETATM    9  C18         0      18.359  36.281  38.588  1.00  0.00     0.048 C 
HETATM   10  C19         0      19.043  36.625  37.430  1.00  0.00     0.096 C 
HETATM   11  C21         0      19.372  35.654  36.523  1.00  0.00     0.084 C 
ENDROOT
BRANCH  10  12
HETATM   12  O20         0      19.021  37.945  36.993  1.00  0.00    -0.359 OA
HETATM   13  H20         0      19.852  38.369  36.816  1.00  0.00     0.218 HD
ENDBRANCH  10  12
BRANCH   4  14
HETATM   14  C5          0      20.039  32.512  33.931  1.00  0.00     0.025 C 
HETATM   15  C6          0      20.079  31.183  34.328  1.00  0.00     0.004 C 
HETATM   16  C7          0      19.253  30.285  33.659  1.00  0.00     0.026 C 
HETATM   17  C8          0      18.511  30.666  32.547  1.00  0.00     0.112 C 
HETATM   18  C10         0      19.006  31.774  31.871  1.00  0.00     0.112 C 
HETATM   19  C12         0      19.758  32.700  32.584  1.00  0.00     0.028 C 
BRANCH  17  20
HETATM   20  O9          0      17.274  30.100  32.291  1.00  0.00    -0.357 OA
HETATM   21  H9          0      16.454  30.454  32.615  1.00  0.00     0.218 HD
ENDBRANCH  17  20
BRANCH  18  22
HETATM   22  O11         0      18.417  32.082  30.653  1.00  0.00    -0.357 OA
HETATM   23  H11         0      17.686  31.540  30.380  1.00  0.00     0.218 HD
ENDBRANCH  18  22
ENDBRANCH   4  14
BRANCH   8  24
HETATM   24  O17         0      16.775  34.638  39.439  1.00  0.00    -0.359 OA
HETATM   25  H17         0      15.948  34.713  38.978  1.00  0.00     0.218 HD
ENDBRANCH   8  24
TORSDOF 5
ENDMDL
MODEL 5
REMARK VINA RESULT:      -1.6      2.171      2.892
REMARK  5 active torsions:
REMARK  status: ('A' for Active; 'I' for Inactive)
REMARK    1  A    between atoms: C4_4  and  C5_5 
REMARK    2  A    between atoms: C8_8  and  O9_9 
REMARK    3  A    between atoms: C10_11  and  O11_12 
REMARK    4  A    between atoms: C16_18  and  O17_19 
REMARK    5  A    between atoms: C19_22  and  O20_23 
ROOT
HETATM    1  O1          0      20.004  36.992  35.743  1.00  0.00    -0.286 OA
HETATM    2  C2          0      19.500  35.849  35.922  1.00  0.00     0.201 C 
HETATM    3  C3          0      19.400  34.906  34.913  1.00  0.00     0.067 C 
HETATM    4  C4          0      18.748  33.694  35.111  1.00  0.00     0.103 C 
HETATM    5  O13         0      18.233  33.437  36.300  1.00  0.00    -0.307 OA
HETATM    6  C14         0      18.268  34.312  37.281  1.00  0.00     0.107 C 
HETATM    7  C15         0      17.410  34.227  38.368  1.00  0.00     0.049 C 
HETATM    8  C16         0      17.274  35.280  39.264  1.00  0.00     0.093 C 
HETATM    9  C18         0      18.366  36.136  39.334  1.00  0.00     0.048 C 
HETATM   10  C19         0      19.271  36.212  38.284  1.00  0.00     0.096 C 
HETATM   11  C21         0      19.096  35.425  37.179  1.00  0.00     0.084 C 
ENDROOT
BRANCH  10  12
HETATM   12  O20         0      20.078  37.339  38.161  1.00  0.00    -0.359 OA
HETATM   13  H20         0      20.981  37.274  38.448  1.00  0.00     0.218 HD
ENDBRANCH  10  12
BRANCH   4  14
HETATM   14  C5          0      18.161  33.050  33.934  1.00  0.00     0.025 C 
HETATM   15  C6          0      17.196  33.659  33.146  1.00  0.00     0.004 C 
HETATM   16  C7          0      17.267  33.460  31.771  1.00  0.00     0.026 C 
HETATM   17  C8          0      18.183  32.579  31.208  1.00  0.00     0.112 C 
HETATM   18  C10         0      18.637  31.587  32.067  1.00  0.00     0.112 C 
HETATM   19  C12         0      18.634  31.844  33.433  1.00  0.00     0.028 C 
BRANCH  17  20
HETATM   20  O9          0      18.734  32.829  29.964  1.00  0.00    -0.357 OA
HETATM   21  H9          0      19.642  32.653  29.743  1.00  0.00     0.218 HD
ENDBRANCH  17  20
BRANCH  18  22
HETATM   22  O11         0      19.403  30.574  31.508  1.00  0.00    -0.357 OA
HETATM   23  H11         0      18.946  29.933  30.975  1.00  0.00     0.218 HD
ENDBRANCH  18  22
ENDBRANCH   4  14
BRANCH   8  24
HETATM   24  O17         0      16.026  35.635  39.788  1.00  0.00    -0.359 OA
HETATM   25  H17         0      15.934  35.984  40.667  1.00  0.00     0.218 HD
ENDBRANCH   8  24
TORSDOF 5
ENDMDL
MODEL 6
REMARK VINA RESULT:      -1.5      2.847      5.908
REMARK  5 active torsions:
REMARK  status: ('A' for Active; 'I' for Inactive)
REMARK    1  A    between atoms: C4_4  and  C5_5 
REMARK    2  A    between atoms: C8_8  and  O9_9 
REMARK    3  A    between atoms: C10_11  and  O11_12 
REMARK    4  A    between atoms: C16_18  and  O17_19 
REMARK    5  A    between atoms: C19_22  and  O20_23 
ROOT
HETATM    1  O1          0      18.353  32.095  36.837  1.00  0.00    -0.286 OA
HETATM    2  C2          0      18.947  32.861  36.030  1.00  0.00     0.201 C 
HETATM    3  C3          0      19.113  34.216  36.264  1.00  0.00     0.067 C 
HETATM    4  C4          0      19.680  35.055  35.312  1.00  0.00     0.103 C 
HETATM    5  O13         0      20.086  34.535  34.168  1.00  0.00    -0.307 OA
HETATM    6  C14         0      19.919  33.263  33.880  1.00  0.00     0.107 C 
HETATM    7  C15         0      19.965  32.796  32.574  1.00  0.00     0.049 C 
HETATM    8  C16         0      19.539  31.514  32.250  1.00  0.00     0.093 C 
HETATM    9  C18         0      19.586  30.598  33.295  1.00  0.00     0.048 C 
HETATM   10  C19         0      19.589  31.032  34.613  1.00  0.00     0.096 C 
HETATM   11  C21         0      19.561  32.373  34.887  1.00  0.00     0.084 C 
ENDROOT
BRANCH  10  12
HETATM   12  O20         0      19.201  30.153  35.619  1.00  0.00    -0.359 OA
HETATM   13  H20         0      19.699  29.351  35.726  1.00  0.00     0.218 HD
ENDBRANCH  10  12
BRANCH   4  14
HETATM   14  C5          0      19.289  36.466  35.346  1.00  0.00     0.025 C 
HETATM   15  C6          0      20.109  37.461  35.858  1.00  0.00     0.004 C 
HETATM   16  C7          0      20.121  38.688  35.202  1.00  0.00     0.026 C 
HETATM   17  C8          0      19.250  38.963  34.154  1.00  0.00     0.112 C 
HETATM   18  C10         0      18.095  38.192  34.142  1.00  0.00     0.112 C 
HETATM   19  C12         0      18.135  36.933  34.731  1.00  0.00     0.028 C 
BRANCH  17  20
HETATM   20  O9          0      19.633  39.788  33.111  1.00  0.00    -0.357 OA
HETATM   21  H9          0      19.409  39.628  32.202  1.00  0.00     0.218 HD
ENDBRANCH  17  20
BRANCH  18  22
HETATM   22  O11         0      17.109  38.550  33.234  1.00  0.00    -0.357 OA
HETATM   23  H11         0      17.397  38.812  32.367  1.00  0.00     0.218 HD
ENDBRANCH  18  22
ENDBRANCH   4  14
BRANCH   8  24
HETATM   24  O17         0      18.812  31.260  31.082  1.00  0.00    -0.359 OA
HETATM   25  H17         0      18.981  31.734  30.276  1.00  0.00     0.218 HD
ENDBRANCH   8  24
TORSDOF 5
ENDMDL
MODEL 7
REMARK VINA RESULT:      -1.5      3.204      5.083
REMARK  5 active torsions:
REMARK  status: ('A' for Active; 'I' for Inactive)
REMARK    1  A    between atoms: C4_4  and  C5_5 
REMARK    2  A    between atoms: C8_8  and  O9_9 
REMARK    3  A    between atoms: C10_11  and  O11_12 
REMARK    4  A    between atoms: C16_18  and  O17_19 
REMARK    5  A    between atoms: C19_22  and  O20_23 
ROOT
HETATM    1  O1          0      19.040  35.841  33.387  1.00  0.00    -0.286 OA
HETATM    2  C2          0      19.189  34.950  32.507  1.00  0.00     0.201 C 
HETATM    3  C3          0      19.000  35.190  31.156  1.00  0.00     0.067 C 
HETATM    4  C4          0      19.070  34.167  30.217  1.00  0.00     0.103 C 
HETATM    5  O13         0      19.344  32.942  30.632  1.00  0.00    -0.307 OA
HETATM    6  C14         0      19.495  32.653  31.906  1.00  0.00     0.107 C 
HETATM    7  C15         0      19.383  31.354  32.379  1.00  0.00     0.049 C 
HETATM    8  C16         0      19.289  31.086  33.739  1.00  0.00     0.093 C 
HETATM    9  C18         0      19.834  32.060  34.568  1.00  0.00     0.048 C 
HETATM   10  C19         0      20.004  33.360  34.111  1.00  0.00     0.096 C 
HETATM   11  C21         0      19.648  33.682  32.829  1.00  0.00     0.084 C 
ENDROOT
BRANCH  10  12
HETATM   12  O20         0      20.125  34.395  35.033  1.00  0.00    -0.359 OA
HETATM   13  H20         0      19.333  34.840  35.310  1.00  0.00     0.218 HD
ENDBRANCH  10  12
BRANCH   4  14
HETATM   14  C5          0      18.302  34.337  28.983  1.00  0.00     0.025 C 
HETATM   15  C6          0      17.694  35.534  28.634  1.00  0.00     0.004 C 
HETATM   16  C7          0      17.714  35.901  27.293  1.00  0.00     0.026 C 
HETATM   17  C8          0      18.202  35.047  26.310  1.00  0.00     0.112 C 
HETATM   18  C10         0      18.184  33.701  26.651  1.00  0.00     0.112 C 
HETATM   19  C12         0      18.251  33.360  27.997  1.00  0.00     0.028 C 
BRANCH  17  20
HETATM   20  O9          0      18.840  35.547  25.189  1.00  0.00    -0.357 OA
HETATM   21  H9          0      19.784  35.551  25.076  1.00  0.00     0.218 HD
ENDBRANCH  17  20
BRANCH  18  22
HETATM   22  O11         0      18.481  32.793  25.644  1.00  0.00    -0.357 OA
HETATM   23  H11         0      18.591  33.144  24.768  1.00  0.00     0.218 HD
ENDBRANCH  18  22
ENDBRANCH   4  14
BRANCH   8  24
HETATM   24  O17         0      18.427  30.101  34.231  1.00  0.00    -0.359 OA
HETATM   25  H17         0      18.707  29.199  34.336  1.00  0.00     0.218 HD
ENDBRANCH   8  24
TORSDOF 5
ENDMDL
MODEL 8
REMARK VINA RESULT:      -1.5      2.760      6.195
REMARK  5 active torsions:
REMARK  status: ('A' for Active; 'I' for Inactive)
REMARK    1  A    between atoms: C4_4  and  C5_5 
REMARK    2  A    between atoms: C8_8  and  O9_9 
REMARK    3  A    between atoms: C10_11  and  O11_12 
REMARK    4  A    between atoms: C16_18  and  O17_19 
REMARK    5  A    between atoms: C19_22  and  O20_23 
ROOT
HETATM    1  O1          0      18.832  32.120  36.966  1.00  0.00    -0.286 OA
HETATM    2  C2          0      19.230  33.017  36.173  1.00  0.00     0.201 C 
HETATM    3  C3          0      19.225  34.362  36.498  1.00  0.00     0.067 C 
HETATM    4  C4          0      19.571  35.338  35.570  1.00  0.00     0.103 C 
HETATM    5  O13         0      19.931  34.960  34.356  1.00  0.00    -0.307 OA
HETATM    6  C14         0      19.917  33.698  33.984  1.00  0.00     0.107 C 
HETATM    7  C15         0      19.899  33.331  32.646  1.00  0.00     0.049 C 
HETATM    8  C16         0      19.629  32.024  32.260  1.00  0.00     0.093 C 
HETATM    9  C18         0      19.908  31.059  33.220  1.00  0.00     0.048 C 
HETATM   10  C19         0      19.980  31.400  34.564  1.00  0.00     0.096 C 
HETATM   11  C21         0      19.791  32.701  34.945  1.00  0.00     0.084 C 
ENDROOT
BRANCH  10  12
HETATM   12  O20         0      19.822  30.409  35.527  1.00  0.00    -0.359 OA
HETATM   13  H20         0      20.436  29.685  35.525  1.00  0.00     0.218 HD
ENDBRANCH  10  12
BRANCH   4  14
HETATM   14  C5          0      18.990  36.670  35.750  1.00  0.00     0.025 C 
HETATM   15  C6          0      18.729  37.526  34.690  1.00  0.00     0.004 C 
HETATM   16  C7          0      17.569  38.291  34.750  1.00  0.00     0.026 C 
HETATM   17  C8          0      16.763  38.307  35.883  1.00  0.00     0.112 C 
HETATM   18  C10         0      17.410  37.952  37.059  1.00  0.00     0.112 C 
HETATM   19  C12         0      18.517  37.116  36.978  1.00  0.00     0.028 C 
BRANCH  17  20
HETATM   20  O9          0      15.392  38.459  35.776  1.00  0.00    -0.357 OA
HETATM   21  H9          0      14.941  38.614  34.954  1.00  0.00     0.218 HD
ENDBRANCH  17  20
BRANCH  18  22
HETATM   22  O11         0      16.707  38.132  38.242  1.00  0.00    -0.357 OA
HETATM   23  H11         0      15.785  37.902  38.234  1.00  0.00     0.218 HD
ENDBRANCH  18  22
ENDBRANCH   4  14
BRANCH   8  24
HETATM   24  O17         0      18.833  31.743  31.144  1.00  0.00    -0.359 OA
HETATM   25  H17         0      18.853  32.288  30.367  1.00  0.00     0.218 HD
ENDBRANCH   8  24
TORSDOF 5
ENDMDL
MODEL 9
REMARK VINA RESULT:      -1.4      2.893      7.755
REMARK  5 active torsions:
REMARK  status: ('A' for Active; 'I' for Inactive)
REMARK    1  A    between atoms: C4_4  and  C5_5 
REMARK    2  A    between atoms: C8_8  and  O9_9 
REMARK    3  A    between atoms: C10_11  and  O11_12 
REMARK    4  A    between atoms: C16_18  and  O17_19 
REMARK    5  A    between atoms: C19_22  and  O20_23 
ROOT
HETATM    1  O1          0      15.741  34.036  30.161  1.00  0.00    -0.286 OA
HETATM    2  C2          0      16.989  33.848  30.144  1.00  0.00     0.201 C 
HETATM    3  C3          0      17.663  33.197  31.163  1.00  0.00     0.067 C 
HETATM    4  C4          0      19.049  33.094  31.170  1.00  0.00     0.103 C 
HETATM    5  O13         0      19.730  33.616  30.165  1.00  0.00    -0.307 OA
HETATM    6  C14         0      19.142  34.277  29.192  1.00  0.00     0.107 C 
HETATM    7  C15         0      19.844  35.151  28.374  1.00  0.00     0.049 C 
HETATM    8  C16         0      19.185  36.031  27.524  1.00  0.00     0.093 C 
HETATM    9  C18         0      17.905  35.638  27.150  1.00  0.00     0.048 C 
HETATM   10  C19         0      17.193  34.730  27.921  1.00  0.00     0.096 C 
HETATM   11  C21         0      17.761  34.204  29.049  1.00  0.00     0.084 C 
ENDROOT
BRANCH  10  12
HETATM   12  O20         0      15.807  34.677  27.802  1.00  0.00    -0.359 OA
HETATM   13  H20         0      15.410  33.840  27.594  1.00  0.00     0.218 HD
ENDBRANCH  10  12
BRANCH   4  14
HETATM   14  C5          0      19.705  32.963  32.472  1.00  0.00     0.025 C 
HETATM   15  C6          0      20.125  34.057  33.215  1.00  0.00     0.004 C 
HETATM   16  C7          0      19.968  33.997  34.596  1.00  0.00     0.026 C 
HETATM   17  C8          0      19.533  32.838  35.231  1.00  0.00     0.112 C 
HETATM   18  C10         0      19.752  31.668  34.516  1.00  0.00     0.112 C 
HETATM   19  C12         0      19.820  31.745  33.130  1.00  0.00     0.028 C 
BRANCH  17  20
HETATM   20  O9          0      18.762  32.905  36.378  1.00  0.00    -0.357 OA
HETATM   21  H9          0      17.837  32.689  36.405  1.00  0.00     0.218 HD
ENDBRANCH  17  20
BRANCH  18  22
HETATM   22  O11         0      19.512  30.473  35.178  1.00  0.00    -0.357 OA
HETATM   23  H11         0      20.191  29.810  35.128  1.00  0.00     0.218 HD
ENDBRANCH  18  22
ENDBRANCH   4  14
BRANCH   8  24
HETATM   24  O17         0      19.634  37.344  27.342  1.00  0.00    -0.359 OA
HETATM   25  H17         0      19.033  38.079  27.323  1.00  0.00     0.218 HD
ENDBRANCH   8  24
TORSDOF 5
ENDMDL
