MODEL 1
REMARK VINA RESULT:      -4.5      0.000      0.000
REMARK  5 active torsions:
REMARK  status: ('A' for Active; 'I' for Inactive)
REMARK    1  A    between atoms: C4_4  and  C5_5 
REMARK    2  A    between atoms: C8_8  and  O9_9 
REMARK    3  A    between atoms: C10_11  and  O11_12 
REMARK    4  A    between atoms: C16_18  and  O17_19 
REMARK    5  A    between atoms: C19_22  and  O20_23 
ROOT
HETATM    1  O1          0      17.733  21.495   6.372  1.00  0.00    -0.286 OA
HETATM    2  C2          0      17.114  22.102   5.456  1.00  0.00     0.201 C 
HETATM    3  C3          0      16.770  21.500   4.257  1.00  0.00     0.067 C 
HETATM    4  C4          0      16.180  22.220   3.224  1.00  0.00     0.103 C 
HETATM    5  O13         0      15.927  23.504   3.408  1.00  0.00    -0.307 OA
HETATM    6  C14         0      16.268  24.132   4.512  1.00  0.00     0.107 C 
HETATM    7  C15         0      16.378  25.514   4.563  1.00  0.00     0.049 C 
HETATM    8  C16         0      16.978  26.151   5.642  1.00  0.00     0.093 C 
HETATM    9  C18         0      16.962  25.433   6.831  1.00  0.00     0.048 C 
HETATM   10  C19         0      16.807  24.053   6.820  1.00  0.00     0.096 C 
HETATM   11  C21         0      16.652  23.397   5.629  1.00  0.00     0.084 C 
ENDROOT
BRANCH  10  12
HETATM   12  O20         0      17.219  23.313   7.923  1.00  0.00    -0.359 OA
HETATM   13  H20         0      17.096  22.372   7.900  1.00  0.00     0.218 HD
ENDBRANCH  10  12
BRANCH   4  14
HETATM   14  C5          0      16.394  21.732   1.861  1.00  0.00     0.025 C 
HETATM   15  C6          0      15.869  22.366   0.744  1.00  0.00     0.004 C 
HETATM   16  C7          0      16.660  22.418  -0.399  1.00  0.00     0.026 C 
HETATM   17  C8          0      17.876  21.747  -0.476  1.00  0.00     0.112 C 
HETATM   18  C10         0      18.002  20.673   0.395  1.00  0.00     0.112 C 
HETATM   19  C12         0      17.263  20.687   1.572  1.00  0.00     0.028 C 
BRANCH  17  20
HETATM   20  O9          0      18.926  22.264  -1.214  1.00  0.00    -0.357 OA
HETATM   21  H9          0      19.629  22.782  -0.840  1.00  0.00     0.218 HD
ENDBRANCH  17  20
BRANCH  18  22
HETATM   22  O11         0      19.112  19.857   0.230  1.00  0.00    -0.357 OA
HETATM   23  H11         0      19.087  19.237  -0.490  1.00  0.00     0.218 HD
ENDBRANCH  18  22
ENDBRANCH   4  14
BRANCH   8  24
HETATM   24  O17         0      17.817  27.257   5.461  1.00  0.00    -0.359 OA
HETATM   25  H17         0      18.413  27.547   6.142  1.00  0.00     0.218 HD
ENDBRANCH   8  24
TORSDOF 5
ENDMDL
MODEL 2
REMARK VINA RESULT:      -4.3      1.181      1.618
REMARK  5 active torsions:
REMARK  status: ('A' for Active; 'I' for Inactive)
REMARK    1  A    between atoms: C4_4  and  C5_5 
REMARK    2  A    between atoms: C8_8  and  O9_9 
REMARK    3  A    between atoms: C10_11  and  O11_12 
REMARK    4  A    between atoms: C16_18  and  O17_19 
REMARK    5  A    between atoms: C19_22  and  O20_23 
ROOT
HETATM    1  O1          0      17.645  21.433   5.967  1.00  0.00    -0.286 OA
HETATM    2  C2          0      16.931  22.106   5.174  1.00  0.00     0.201 C 
HETATM    3  C3          0      16.408  21.580   4.005  1.00  0.00     0.067 C 
HETATM    4  C4          0      15.711  22.371   3.098  1.00  0.00     0.103 C 
HETATM    5  O13         0      15.532  23.650   3.378  1.00  0.00    -0.307 OA
HETATM    6  C14         0      16.040  24.208   4.455  1.00  0.00     0.107 C 
HETATM    7  C15         0      16.206  25.581   4.557  1.00  0.00     0.049 C 
HETATM    8  C16         0      16.968  26.142   5.575  1.00  0.00     0.093 C 
HETATM    9  C18         0      17.085  25.362   6.719  1.00  0.00     0.048 C 
HETATM   10  C19         0      16.880  23.990   6.661  1.00  0.00     0.096 C 
HETATM   11  C21         0      16.543  23.404   5.472  1.00  0.00     0.084 C 
ENDROOT
BRANCH  10  12
HETATM   12  O20         0      17.409  23.180   7.661  1.00  0.00    -0.359 OA
HETATM   13  H20         0      17.206  23.396   8.563  1.00  0.00     0.218 HD
ENDBRANCH  10  12
BRANCH   4  14
HETATM   14  C5          0      15.723  21.950   1.696  1.00  0.00     0.025 C 
HETATM   15  C6          0      14.590  21.497   1.037  1.00  0.00     0.004 C 
HETATM   16  C7          0      14.423  21.873  -0.292  1.00  0.00     0.026 C 
HETATM   17  C8          0      15.412  22.563  -0.984  1.00  0.00     0.112 C 
HETATM   18  C10         0      16.694  22.408  -0.473  1.00  0.00     0.112 C 
HETATM   19  C12         0      16.834  22.116   0.879  1.00  0.00     0.028 C 
BRANCH  17  20
HETATM   20  O9          0      15.081  23.485  -1.962  1.00  0.00    -0.357 OA
HETATM   21  H9          0      15.547  23.571  -2.786  1.00  0.00     0.218 HD
ENDBRANCH  17  20
BRANCH  18  22
HETATM   22  O11         0      17.739  22.918  -1.230  1.00  0.00    -0.357 OA
HETATM   23  H11         0      17.627  22.914  -2.174  1.00  0.00     0.218 HD
ENDBRANCH  18  22
ENDBRANCH   4  14
BRANCH   8  24
HETATM   24  O17         0      17.814  27.231   5.337  1.00  0.00    -0.359 OA
HETATM   25  H17         0      17.507  28.127   5.405  1.00  0.00     0.218 HD
ENDBRANCH   8  24
TORSDOF 5
ENDMDL
MODEL 3
REMARK VINA RESULT:      -4.3      2.220      6.896
REMARK  5 active torsions:
REMARK  status: ('A' for Active; 'I' for Inactive)
REMARK    1  A    between atoms: C4_4  and  C5_5 
REMARK    2  A    between atoms: C8_8  and  O9_9 
REMARK    3  A    between atoms: C10_11  and  O11_12 
REMARK    4  A    between atoms: C16_18  and  O17_19 
REMARK    5  A    between atoms: C19_22  and  O20_23 
ROOT
HETATM    1  O1          0      12.785  23.894   0.110  1.00  0.00    -0.286 OA
HETATM    2  C2          0      13.790  23.557   0.795  1.00  0.00     0.201 C 
HETATM    3  C3          0      13.923  23.869   2.137  1.00  0.00     0.067 C 
HETATM    4  C4          0      15.085  23.576   2.842  1.00  0.00     0.103 C 
HETATM    5  O13         0      16.073  22.966   2.211  1.00  0.00    -0.307 OA
HETATM    6  C14         0      16.013  22.681   0.928  1.00  0.00     0.107 C 
HETATM    7  C15         0      17.154  22.420   0.184  1.00  0.00     0.049 C 
HETATM    8  C16         0      17.115  22.373  -1.205  1.00  0.00     0.093 C 
HETATM    9  C18         0      15.872  22.067  -1.746  1.00  0.00     0.048 C 
HETATM   10  C19         0      14.713  22.271  -1.011  1.00  0.00     0.096 C 
HETATM   11  C21         0      14.794  22.762   0.264  1.00  0.00     0.084 C 
ENDROOT
BRANCH  10  12
HETATM   12  O20         0      13.496  22.384  -1.677  1.00  0.00    -0.359 OA
HETATM   13  H20         0      13.233  21.672  -2.248  1.00  0.00     0.218 HD
ENDBRANCH  10  12
BRANCH   4  14
HETATM   14  C5          0      15.400  24.421   3.995  1.00  0.00     0.025 C 
HETATM   15  C6          0      16.391  24.103   4.912  1.00  0.00     0.004 C 
HETATM   16  C7          0      17.164  25.145   5.414  1.00  0.00     0.026 C 
HETATM   17  C8          0      16.876  26.473   5.120  1.00  0.00     0.112 C 
HETATM   18  C10         0      15.559  26.714   4.752  1.00  0.00     0.112 C 
HETATM   19  C12         0      14.836  25.677   4.173  1.00  0.00     0.028 C 
BRANCH  17  20
HETATM   20  O9          0      17.889  27.409   5.006  1.00  0.00    -0.357 OA
HETATM   21  H9          0      18.247  27.702   4.176  1.00  0.00     0.218 HD
ENDBRANCH  17  20
BRANCH  18  22
HETATM   22  O11         0      15.173  28.041   4.631  1.00  0.00    -0.357 OA
HETATM   23  H11         0      14.247  28.230   4.730  1.00  0.00     0.218 HD
ENDBRANCH  18  22
ENDBRANCH   4  14
BRANCH   8  24
HETATM   24  O17         0      18.143  22.917  -1.983  1.00  0.00    -0.359 OA
HETATM   25  H17         0      17.990  23.218  -2.871  1.00  0.00     0.218 HD
ENDBRANCH   8  24
TORSDOF 5
ENDMDL
MODEL 4
REMARK VINA RESULT:      -3.8      2.215      2.903
REMARK  5 active torsions:
REMARK  status: ('A' for Active; 'I' for Inactive)
REMARK    1  A    between atoms: C4_4  and  C5_5 
REMARK    2  A    between atoms: C8_8  and  O9_9 
REMARK    3  A    between atoms: C10_11  and  O11_12 
REMARK    4  A    between atoms: C16_18  and  O17_19 
REMARK    5  A    between atoms: C19_22  and  O20_23 
ROOT
HETATM    1  O1          0      17.143  25.304   5.257  1.00  0.00    -0.286 OA
HETATM    2  C2          0      16.212  24.957   4.480  1.00  0.00     0.201 C 
HETATM    3  C3          0      16.242  23.780   3.750  1.00  0.00     0.067 C 
HETATM    4  C4          0      15.253  23.471   2.825  1.00  0.00     0.103 C 
HETATM    5  O13         0      14.252  24.317   2.659  1.00  0.00    -0.307 OA
HETATM    6  C14         0      14.194  25.465   3.298  1.00  0.00     0.107 C 
HETATM    7  C15         0      13.397  26.510   2.853  1.00  0.00     0.049 C 
HETATM    8  C16         0      13.529  27.791   3.374  1.00  0.00     0.093 C 
HETATM    9  C18         0      14.067  27.851   4.654  1.00  0.00     0.048 C 
HETATM   10  C19         0      14.830  26.803   5.148  1.00  0.00     0.096 C 
HETATM   11  C21         0      15.042  25.694   4.376  1.00  0.00     0.084 C 
ENDROOT
BRANCH  10  12
HETATM   12  O20         0      15.703  27.037   6.206  1.00  0.00    -0.359 OA
HETATM   13  H20         0      16.488  26.506   6.262  1.00  0.00     0.218 HD
ENDBRANCH  10  12
BRANCH   4  14
HETATM   14  C5          0      15.626  22.594   1.713  1.00  0.00     0.025 C 
HETATM   15  C6          0      15.257  22.846   0.400  1.00  0.00     0.004 C 
HETATM   16  C7          0      16.186  22.560  -0.596  1.00  0.00     0.026 C 
HETATM   17  C8          0      17.387  21.921  -0.312  1.00  0.00     0.112 C 
HETATM   18  C10         0      17.381  21.167   0.854  1.00  0.00     0.112 C 
HETATM   19  C12         0      16.501  21.527   1.868  1.00  0.00     0.028 C 
BRANCH  17  20
HETATM   20  O9          0      18.532  22.207  -1.035  1.00  0.00    -0.357 OA
HETATM   21  H9          0      19.387  21.844  -0.836  1.00  0.00     0.218 HD
ENDBRANCH  17  20
BRANCH  18  22
HETATM   22  O11         0      18.486  20.360   1.087  1.00  0.00    -0.357 OA
HETATM   23  H11         0      18.838  20.357   1.970  1.00  0.00     0.218 HD
ENDBRANCH  18  22
ENDBRANCH   4  14
BRANCH   8  24
HETATM   24  O17         0      13.449  28.923   2.555  1.00  0.00    -0.359 OA
HETATM   25  H17         0      12.688  29.096   2.015  1.00  0.00     0.218 HD
ENDBRANCH   8  24
TORSDOF 5
ENDMDL
MODEL 5
REMARK VINA RESULT:      -3.7      2.948      4.646
REMARK  5 active torsions:
REMARK  status: ('A' for Active; 'I' for Inactive)
REMARK    1  A    between atoms: C4_4  and  C5_5 
REMARK    2  A    between atoms: C8_8  and  O9_9 
REMARK    3  A    between atoms: C10_11  and  O11_12 
REMARK    4  A    between atoms: C16_18  and  O17_19 
REMARK    5  A    between atoms: C19_22  and  O20_23 
ROOT
HETATM    1  O1          0      17.236  26.561   5.151  1.00  0.00    -0.286 OA
HETATM    2  C2          0      16.463  25.565   5.116  1.00  0.00     0.201 C 
HETATM    3  C3          0      16.801  24.333   5.649  1.00  0.00     0.067 C 
HETATM    4  C4          0      15.974  23.225   5.507  1.00  0.00     0.103 C 
HETATM    5  O13         0      14.829  23.366   4.862  1.00  0.00    -0.307 OA
HETATM    6  C14         0      14.477  24.504   4.304  1.00  0.00     0.107 C 
HETATM    7  C15         0      13.509  24.563   3.312  1.00  0.00     0.049 C 
HETATM    8  C16         0      13.322  25.712   2.553  1.00  0.00     0.093 C 
HETATM    9  C18         0      13.737  26.891   3.162  1.00  0.00     0.048 C 
HETATM   10  C19         0      14.669  26.864   4.189  1.00  0.00     0.096 C 
HETATM   11  C21         0      15.172  25.666   4.619  1.00  0.00     0.084 C 
ENDROOT
BRANCH  10  12
HETATM   12  O20         0      15.389  28.018   4.485  1.00  0.00    -0.359 OA
HETATM   13  H20         0      15.728  28.529   3.759  1.00  0.00     0.218 HD
ENDBRANCH  10  12
BRANCH   4  14
HETATM   14  C5          0      16.609  21.906   5.533  1.00  0.00     0.025 C 
HETATM   15  C6          0      16.358  20.931   4.578  1.00  0.00     0.004 C 
HETATM   16  C7          0      17.429  20.147   4.161  1.00  0.00     0.026 C 
HETATM   17  C8          0      18.678  20.236   4.766  1.00  0.00     0.112 C 
HETATM   18  C10         0      18.660  20.736   6.061  1.00  0.00     0.112 C 
HETATM   19  C12         0      17.623  21.586   6.427  1.00  0.00     0.028 C 
BRANCH  17  20
HETATM   20  O9          0      19.836  20.036   4.036  1.00  0.00    -0.357 OA
HETATM   21  H9          0      20.086  19.200   3.660  1.00  0.00     0.218 HD
ENDBRANCH  17  20
BRANCH  18  22
HETATM   22  O11         0      19.847  20.669   6.777  1.00  0.00    -0.357 OA
HETATM   23  H11         0      20.423  19.937   6.588  1.00  0.00     0.218 HD
ENDBRANCH  18  22
ENDBRANCH   4  14
BRANCH   8  24
HETATM   24  O17         0      13.061  25.645   1.180  1.00  0.00    -0.359 OA
HETATM   25  H17         0      13.762  25.580   0.542  1.00  0.00     0.218 HD
ENDBRANCH   8  24
TORSDOF 5
ENDMDL
MODEL 6
REMARK VINA RESULT:      -3.7      2.926      4.637
REMARK  5 active torsions:
REMARK  status: ('A' for Active; 'I' for Inactive)
REMARK    1  A    between atoms: C4_4  and  C5_5 
REMARK    2  A    between atoms: C8_8  and  O9_9 
REMARK    3  A    between atoms: C10_11  and  O11_12 
REMARK    4  A    between atoms: C16_18  and  O17_19 
REMARK    5  A    between atoms: C19_22  and  O20_23 
ROOT
HETATM    1  O1          0      13.937  26.071   3.465  1.00  0.00    -0.286 OA
HETATM    2  C2          0      14.954  25.744   4.136  1.00  0.00     0.201 C 
HETATM    3  C3          0      15.546  24.497   4.041  1.00  0.00     0.067 C 
HETATM    4  C4          0      16.603  24.127   4.866  1.00  0.00     0.103 C 
HETATM    5  O13         0      17.058  25.003   5.744  1.00  0.00    -0.307 OA
HETATM    6  C14         0      16.508  26.187   5.901  1.00  0.00     0.107 C 
HETATM    7  C15         0      16.702  26.937   7.052  1.00  0.00     0.049 C 
HETATM    8  C16         0      15.925  28.057   7.323  1.00  0.00     0.093 C 
HETATM    9  C18         0      15.368  28.668   6.207  1.00  0.00     0.048 C 
HETATM   10  C19         0      15.202  27.961   5.024  1.00  0.00     0.096 C 
HETATM   11  C21         0      15.607  26.656   4.951  1.00  0.00     0.084 C 
ENDROOT
BRANCH  10  12
HETATM   12  O20         0      14.278  28.411   4.086  1.00  0.00    -0.359 OA
HETATM   13  H20         0      13.697  27.772   3.691  1.00  0.00     0.218 HD
ENDBRANCH  10  12
BRANCH   4  14
HETATM   14  C5          0      16.769  22.699   5.143  1.00  0.00     0.025 C 
HETATM   15  C6          0      16.387  21.710   4.248  1.00  0.00     0.004 C 
HETATM   16  C7          0      17.205  20.591   4.137  1.00  0.00     0.026 C 
HETATM   17  C8          0      18.293  20.396   4.982  1.00  0.00     0.112 C 
HETATM   18  C10         0      18.213  21.068   6.194  1.00  0.00     0.112 C 
HETATM   19  C12         0      17.457  22.232   6.255  1.00  0.00     0.028 C 
BRANCH  17  20
HETATM   20  O9          0      19.433  19.755   4.532  1.00  0.00    -0.357 OA
HETATM   21  H9          0      19.450  18.851   4.238  1.00  0.00     0.218 HD
ENDBRANCH  17  20
BRANCH  18  22
HETATM   22  O11         0      19.175  20.761   7.146  1.00  0.00    -0.357 OA
HETATM   23  H11         0      19.333  19.840   7.317  1.00  0.00     0.218 HD
ENDBRANCH  18  22
ENDBRANCH   4  14
BRANCH   8  24
HETATM   24  O17         0      15.472  28.335   8.617  1.00  0.00    -0.359 OA
HETATM   25  H17         0      14.597  28.668   8.779  1.00  0.00     0.218 HD
ENDBRANCH   8  24
TORSDOF 5
ENDMDL
MODEL 7
REMARK VINA RESULT:      -3.7      1.998      6.620
REMARK  5 active torsions:
REMARK  status: ('A' for Active; 'I' for Inactive)
REMARK    1  A    between atoms: C4_4  and  C5_5 
REMARK    2  A    between atoms: C8_8  and  O9_9 
REMARK    3  A    between atoms: C10_11  and  O11_12 
REMARK    4  A    between atoms: C16_18  and  O17_19 
REMARK    5  A    between atoms: C19_22  and  O20_23 
ROOT
HETATM    1  O1          0      13.042  21.146   0.912  1.00  0.00    -0.286 OA
HETATM    2  C2          0      14.167  21.513   1.349  1.00  0.00     0.201 C 
HETATM    3  C3          0      14.357  21.978   2.639  1.00  0.00     0.067 C 
HETATM    4  C4          0      15.585  22.473   3.062  1.00  0.00     0.103 C 
HETATM    5  O13         0      16.596  22.476   2.210  1.00  0.00    -0.307 OA
HETATM    6  C14         0      16.460  22.081   0.963  1.00  0.00     0.107 C 
HETATM    7  C15         0      17.367  22.446  -0.022  1.00  0.00     0.049 C 
HETATM    8  C16         0      17.089  22.245  -1.369  1.00  0.00     0.093 C 
HETATM    9  C18         0      16.175  21.233  -1.635  1.00  0.00     0.048 C 
HETATM   10  C19         0      15.284  20.811  -0.657  1.00  0.00     0.096 C 
HETATM   11  C21         0      15.317  21.385   0.584  1.00  0.00     0.084 C 
ENDROOT
BRANCH  10  12
HETATM   12  O20         0      14.124  20.143  -1.036  1.00  0.00    -0.359 OA
HETATM   13  H20         0      14.206  19.246  -1.338  1.00  0.00     0.218 HD
ENDBRANCH  10  12
BRANCH   4  14
HETATM   14  C5          0      15.574  23.457   4.146  1.00  0.00     0.025 C 
HETATM   15  C6          0      15.117  23.164   5.422  1.00  0.00     0.004 C 
HETATM   16  C7          0      15.805  23.721   6.496  1.00  0.00     0.026 C 
HETATM   17  C8          0      16.828  24.644   6.308  1.00  0.00     0.112 C 
HETATM   18  C10         0      16.777  25.326   5.100  1.00  0.00     0.112 C 
HETATM   19  C12         0      16.158  24.711   4.019  1.00  0.00     0.028 C 
BRANCH  17  20
HETATM   20  O9          0      17.904  24.696   7.176  1.00  0.00    -0.357 OA
HETATM   21  H9          0      17.861  24.429   8.087  1.00  0.00     0.218 HD
ENDBRANCH  17  20
BRANCH  18  22
HETATM   22  O11         0      17.658  26.387   4.941  1.00  0.00    -0.357 OA
HETATM   23  H11         0      18.200  26.612   5.688  1.00  0.00     0.218 HD
ENDBRANCH  18  22
ENDBRANCH   4  14
BRANCH   8  24
HETATM   24  O17         0      17.434  23.198  -2.334  1.00  0.00    -0.359 OA
HETATM   25  H17         0      17.121  24.094  -2.285  1.00  0.00     0.218 HD
ENDBRANCH   8  24
TORSDOF 5
ENDMDL
MODEL 8
REMARK VINA RESULT:      -3.6      1.641      2.233
REMARK  5 active torsions:
REMARK  status: ('A' for Active; 'I' for Inactive)
REMARK    1  A    between atoms: C4_4  and  C5_5 
REMARK    2  A    between atoms: C8_8  and  O9_9 
REMARK    3  A    between atoms: C10_11  and  O11_12 
REMARK    4  A    between atoms: C16_18  and  O17_19 
REMARK    5  A    between atoms: C19_22  and  O20_23 
ROOT
HETATM    1  O1          0      16.789  20.303   4.893  1.00  0.00    -0.286 OA
HETATM    2  C2          0      16.304  21.179   4.125  1.00  0.00     0.201 C 
HETATM    3  C3          0      15.910  20.903   2.826  1.00  0.00     0.067 C 
HETATM    4  C4          0      15.476  21.907   1.968  1.00  0.00     0.103 C 
HETATM    5  O13         0      15.422  23.148   2.419  1.00  0.00    -0.307 OA
HETATM    6  C14         0      15.819  23.470   3.630  1.00  0.00     0.107 C 
HETATM    7  C15         0      16.143  24.775   3.971  1.00  0.00     0.049 C 
HETATM    8  C16         0      16.799  25.069   5.160  1.00  0.00     0.093 C 
HETATM    9  C18         0      16.629  24.131   6.172  1.00  0.00     0.048 C 
HETATM   10  C19         0      16.260  22.827   5.870  1.00  0.00     0.096 C 
HETATM   11  C21         0      16.045  22.467   4.567  1.00  0.00     0.084 C 
ENDROOT
BRANCH  10  12
HETATM   12  O20         0      16.514  21.817   6.792  1.00  0.00    -0.359 OA
HETATM   13  H20         0      15.961  21.046   6.772  1.00  0.00     0.218 HD
ENDBRANCH  10  12
BRANCH   4  14
HETATM   14  C5          0      15.657  21.686   0.532  1.00  0.00     0.025 C 
HETATM   15  C6          0      14.653  21.187  -0.285  1.00  0.00     0.004 C 
HETATM   16  C7          0      14.543  21.717  -1.567  1.00  0.00     0.026 C 
HETATM   17  C8          0      15.480  22.613  -2.069  1.00  0.00     0.112 C 
HETATM   18  C10         0      16.726  22.552  -1.458  1.00  0.00     0.112 C 
HETATM   19  C12         0      16.797  22.099  -0.146  1.00  0.00     0.028 C 
BRANCH  17  20
HETATM   20  O9          0      15.106  23.610  -2.952  1.00  0.00    -0.357 OA
HETATM   21  H9          0      14.252  23.655  -3.366  1.00  0.00     0.218 HD
ENDBRANCH  17  20
BRANCH  18  22
HETATM   22  O11         0      17.748  23.286  -2.042  1.00  0.00    -0.357 OA
HETATM   23  H11         0      17.693  23.430  -2.979  1.00  0.00     0.218 HD
ENDBRANCH  18  22
ENDBRANCH   4  14
BRANCH   8  24
HETATM   24  O17         0      17.806  26.038   5.217  1.00  0.00    -0.359 OA
HETATM   25  H17         0      18.726  25.804   5.189  1.00  0.00     0.218 HD
ENDBRANCH   8  24
TORSDOF 5
ENDMDL
MODEL 9
REMARK VINA RESULT:      -3.6      1.708      2.113
REMARK  5 active torsions:
REMARK  status: ('A' for Active; 'I' for Inactive)
REMARK    1  A    between atoms: C4_4  and  C5_5 
REMARK    2  A    between atoms: C8_8  and  O9_9 
REMARK    3  A    between atoms: C10_11  and  O11_12 
REMARK    4  A    between atoms: C16_18  and  O17_19 
REMARK    5  A    between atoms: C19_22  and  O20_23 
ROOT
HETATM    1  O1          0      13.052  22.480   5.121  1.00  0.00    -0.286 OA
HETATM    2  C2          0      13.959  23.005   4.418  1.00  0.00     0.201 C 
HETATM    3  C3          0      14.185  22.651   3.099  1.00  0.00     0.067 C 
HETATM    4  C4          0      15.256  23.170   2.379  1.00  0.00     0.103 C 
HETATM    5  O13         0      16.059  24.036   2.972  1.00  0.00    -0.307 OA
HETATM    6  C14         0      15.911  24.377   4.233  1.00  0.00     0.107 C 
HETATM    7  C15         0      16.944  24.948   4.962  1.00  0.00     0.049 C 
HETATM    8  C16         0      16.871  25.070   6.345  1.00  0.00     0.093 C 
HETATM    9  C18         0      15.582  25.103   6.863  1.00  0.00     0.048 C 
HETATM   10  C19         0      14.517  24.582   6.140  1.00  0.00     0.096 C 
HETATM   11  C21         0      14.735  24.048   4.899  1.00  0.00     0.084 C 
ENDROOT
BRANCH  10  12
HETATM   12  O20         0      13.351  24.223   6.809  1.00  0.00    -0.359 OA
HETATM   13  H20         0      12.952  23.390   6.591  1.00  0.00     0.218 HD
ENDBRANCH  10  12
BRANCH   4  14
HETATM   14  C5          0      15.783  22.355   1.283  1.00  0.00     0.025 C 
HETATM   15  C6          0      15.571  22.664  -0.053  1.00  0.00     0.004 C 
HETATM   16  C7          0      16.620  22.445  -0.939  1.00  0.00     0.026 C 
HETATM   17  C8          0      17.794  21.816  -0.539  1.00  0.00     0.112 C 
HETATM   18  C10         0      17.665  21.006   0.582  1.00  0.00     0.112 C 
HETATM   19  C12         0      16.660  21.299   1.496  1.00  0.00     0.028 C 
BRANCH  17  20
HETATM   20  O9          0      19.010  22.159  -1.103  1.00  0.00    -0.357 OA
HETATM   21  H9          0      19.539  22.894  -0.811  1.00  0.00     0.218 HD
ENDBRANCH  17  20
BRANCH  18  22
HETATM   22  O11         0      18.754  20.211   0.911  1.00  0.00    -0.357 OA
HETATM   23  H11         0      18.632  19.586   1.616  1.00  0.00     0.218 HD
ENDBRANCH  18  22
ENDBRANCH   4  14
BRANCH   8  24
HETATM   24  O17         0      17.985  24.836   7.158  1.00  0.00    -0.359 OA
HETATM   25  H17         0      18.550  24.084   7.025  1.00  0.00     0.218 HD
ENDBRANCH   8  24
TORSDOF 5
ENDMDL
