MODEL 1
REMARK VINA RESULT:      -2.8      0.000      0.000
REMARK  5 active torsions:
REMARK  status: ('A' for Active; 'I' for Inactive)
REMARK    1  A    between atoms: C4_4  and  C5_5 
REMARK    2  A    between atoms: C8_8  and  O9_9 
REMARK    3  A    between atoms: C10_11  and  O11_12 
REMARK    4  A    between atoms: C16_18  and  O17_19 
REMARK    5  A    between atoms: C19_22  and  O20_23 
ROOT
HETATM    1  O1          0      14.746  26.124  -5.260  1.00  0.00    -0.286 OA
HETATM    2  C2          0      16.003  26.041  -5.188  1.00  0.00     0.201 C 
HETATM    3  C3          0      16.681  24.837  -5.268  1.00  0.00     0.067 C 
HETATM    4  C4          0      18.057  24.763  -5.084  1.00  0.00     0.103 C 
HETATM    5  O13         0      18.727  25.877  -4.847  1.00  0.00    -0.307 OA
HETATM    6  C14         0      18.128  27.041  -4.725  1.00  0.00     0.107 C 
HETATM    7  C15         0      18.739  28.116  -4.097  1.00  0.00     0.049 C 
HETATM    8  C16         0      18.019  29.251  -3.744  1.00  0.00     0.093 C 
HETATM    9  C18         0      16.870  29.473  -4.493  1.00  0.00     0.048 C 
HETATM   10  C19         0      16.258  28.429  -5.173  1.00  0.00     0.096 C 
HETATM   11  C21         0      16.801  27.173  -5.119  1.00  0.00     0.084 C 
ENDROOT
BRANCH  10  12
HETATM   12  O20         0      14.921  28.546  -5.540  1.00  0.00    -0.359 OA
HETATM   13  H20         0      14.479  29.366  -5.355  1.00  0.00     0.218 HD
ENDBRANCH  10  12
BRANCH   4  14
HETATM   14  C5          0      18.599  23.496  -4.588  1.00  0.00     0.025 C 
HETATM   15  C6          0      19.903  23.362  -4.134  1.00  0.00     0.004 C 
HETATM   16  C7          0      20.121  22.541  -3.032  1.00  0.00     0.026 C 
HETATM   17  C8          0      19.100  21.773  -2.482  1.00  0.00     0.112 C 
HETATM   18  C10         0      18.056  21.489  -3.352  1.00  0.00     0.112 C 
HETATM   19  C12         0      17.806  22.372  -4.395  1.00  0.00     0.028 C 
BRANCH  17  20
HETATM   20  O9          0      19.061  21.514  -1.124  1.00  0.00    -0.357 OA
HETATM   21  H9          0      18.455  21.933  -0.524  1.00  0.00     0.218 HD
ENDBRANCH  17  20
BRANCH  18  22
HETATM   22  O11         0      17.108  20.574  -2.917  1.00  0.00    -0.357 OA
HETATM   23  H11         0      16.273  20.571  -3.371  1.00  0.00     0.218 HD
ENDBRANCH  18  22
ENDBRANCH   4  14
BRANCH   8  24
HETATM   24  O17         0      18.246  29.911  -2.532  1.00  0.00    -0.359 OA
HETATM   25  H17         0      18.625  30.782  -2.500  1.00  0.00     0.218 HD
ENDBRANCH   8  24
TORSDOF 5
ENDMDL
MODEL 2
REMARK VINA RESULT:      -2.7      0.943      1.131
REMARK  5 active torsions:
REMARK  status: ('A' for Active; 'I' for Inactive)
REMARK    1  A    between atoms: C4_4  and  C5_5 
REMARK    2  A    between atoms: C8_8  and  O9_9 
REMARK    3  A    between atoms: C10_11  and  O11_12 
REMARK    4  A    between atoms: C16_18  and  O17_19 
REMARK    5  A    between atoms: C19_22  and  O20_23 
ROOT
HETATM    1  O1          0      14.840  24.879  -4.987  1.00  0.00    -0.286 OA
HETATM    2  C2          0      16.101  24.856  -4.976  1.00  0.00     0.201 C 
HETATM    3  C3          0      16.829  23.683  -4.872  1.00  0.00     0.067 C 
HETATM    4  C4          0      18.215  23.693  -4.759  1.00  0.00     0.103 C 
HETATM    5  O13         0      18.844  24.854  -4.773  1.00  0.00    -0.307 OA
HETATM    6  C14         0      18.199  25.999  -4.832  1.00  0.00     0.107 C 
HETATM    7  C15         0      18.792  27.193  -4.450  1.00  0.00     0.049 C 
HETATM    8  C16         0      18.040  28.348  -4.272  1.00  0.00     0.093 C 
HETATM    9  C18         0      16.845  28.385  -4.979  1.00  0.00     0.048 C 
HETATM   10  C19         0      16.247  27.211  -5.417  1.00  0.00     0.096 C 
HETATM   11  C21         0      16.849  26.008  -5.164  1.00  0.00     0.084 C 
ENDROOT
BRANCH  10  12
HETATM   12  O20         0      14.889  27.211  -5.720  1.00  0.00    -0.359 OA
HETATM   13  H20         0      14.306  27.701  -5.152  1.00  0.00     0.218 HD
ENDBRANCH  10  12
BRANCH   4  14
HETATM   14  C5          0      18.839  22.561  -4.071  1.00  0.00     0.025 C 
HETATM   15  C6          0      20.016  22.678  -3.346  1.00  0.00     0.004 C 
HETATM   16  C7          0      20.122  21.948  -2.167  1.00  0.00     0.026 C 
HETATM   17  C8          0      19.149  21.029  -1.788  1.00  0.00     0.112 C 
HETATM   18  C10         0      18.381  20.533  -2.833  1.00  0.00     0.112 C 
HETATM   19  C12         0      18.222  21.321  -3.967  1.00  0.00     0.028 C 
BRANCH  17  20
HETATM   20  O9          0      18.859  20.815  -0.452  1.00  0.00    -0.357 OA
HETATM   21  H9          0      19.119  20.037   0.027  1.00  0.00     0.218 HD
ENDBRANCH  17  20
BRANCH  18  22
HETATM   22  O11         0      17.528  19.479  -2.540  1.00  0.00    -0.357 OA
HETATM   23  H11         0      17.673  18.665  -3.008  1.00  0.00     0.218 HD
ENDBRANCH  18  22
ENDBRANCH   4  14
BRANCH   8  24
HETATM   24  O17         0      18.299  29.231  -3.218  1.00  0.00    -0.359 OA
HETATM   25  H17         0      18.323  28.937  -2.315  1.00  0.00     0.218 HD
ENDBRANCH   8  24
TORSDOF 5
ENDMDL
MODEL 3
REMARK VINA RESULT:      -2.6      2.290      6.737
REMARK  5 active torsions:
REMARK  status: ('A' for Active; 'I' for Inactive)
REMARK    1  A    between atoms: C4_4  and  C5_5 
REMARK    2  A    between atoms: C8_8  and  O9_9 
REMARK    3  A    between atoms: C10_11  and  O11_12 
REMARK    4  A    between atoms: C16_18  and  O17_19 
REMARK    5  A    between atoms: C19_22  and  O20_23 
ROOT
HETATM    1  O1          0      19.083  25.322  -4.230  1.00  0.00    -0.286 OA
HETATM    2  C2          0      17.876  24.955  -4.270  1.00  0.00     0.201 C 
HETATM    3  C3          0      16.917  25.610  -5.023  1.00  0.00     0.067 C 
HETATM    4  C4          0      15.576  25.249  -4.969  1.00  0.00     0.103 C 
HETATM    5  O13         0      15.221  24.240  -4.191  1.00  0.00    -0.307 OA
HETATM    6  C14         0      16.086  23.609  -3.428  1.00  0.00     0.107 C 
HETATM    7  C15         0      15.681  22.847  -2.341  1.00  0.00     0.049 C 
HETATM    8  C16         0      16.594  22.396  -1.396  1.00  0.00     0.093 C 
HETATM    9  C18         0      17.902  22.278  -1.852  1.00  0.00     0.048 C 
HETATM   10  C19         0      18.327  22.991  -2.965  1.00  0.00     0.096 C 
HETATM   11  C21         0      17.448  23.803  -3.628  1.00  0.00     0.084 C 
ENDROOT
BRANCH  10  12
HETATM   12  O20         0      19.688  23.214  -3.150  1.00  0.00    -0.359 OA
HETATM   13  H20         0      20.283  22.489  -2.999  1.00  0.00     0.218 HD
ENDBRANCH  10  12
BRANCH   4  14
HETATM   14  C5          0      14.589  26.288  -5.269  1.00  0.00     0.025 C 
HETATM   15  C6          0      13.223  26.046  -5.283  1.00  0.00     0.004 C 
HETATM   16  C7          0      12.388  27.039  -4.779  1.00  0.00     0.026 C 
HETATM   17  C8          0      12.880  28.283  -4.399  1.00  0.00     0.112 C 
HETATM   18  C10         0      14.082  28.638  -4.997  1.00  0.00     0.112 C 
HETATM   19  C12         0      14.937  27.625  -5.415  1.00  0.00     0.028 C 
BRANCH  17  20
HETATM   20  O9          0      12.306  28.983  -3.353  1.00  0.00    -0.357 OA
HETATM   21  H9          0      12.691  29.047  -2.487  1.00  0.00     0.218 HD
ENDBRANCH  17  20
BRANCH  18  22
HETATM   22  O11         0      14.521  29.940  -4.801  1.00  0.00    -0.357 OA
HETATM   23  H11         0      14.663  30.467  -5.579  1.00  0.00     0.218 HD
ENDBRANCH  18  22
ENDBRANCH   4  14
BRANCH   8  24
HETATM   24  O17         0      16.288  22.392  -0.030  1.00  0.00    -0.359 OA
HETATM   25  H17         0      16.236  21.584   0.467  1.00  0.00     0.218 HD
ENDBRANCH   8  24
TORSDOF 5
ENDMDL
MODEL 4
REMARK VINA RESULT:      -2.5      2.185      3.053
REMARK  5 active torsions:
REMARK  status: ('A' for Active; 'I' for Inactive)
REMARK    1  A    between atoms: C4_4  and  C5_5 
REMARK    2  A    between atoms: C8_8  and  O9_9 
REMARK    3  A    between atoms: C10_11  and  O11_12 
REMARK    4  A    between atoms: C16_18  and  O17_19 
REMARK    5  A    between atoms: C19_22  and  O20_23 
ROOT
HETATM    1  O1          0      14.346  24.602  -4.963  1.00  0.00    -0.286 OA
HETATM    2  C2          0      15.511  24.379  -4.534  1.00  0.00     0.201 C 
HETATM    3  C3          0      15.791  23.394  -3.602  1.00  0.00     0.067 C 
HETATM    4  C4          0      17.066  23.237  -3.069  1.00  0.00     0.103 C 
HETATM    5  O13         0      18.030  24.040  -3.482  1.00  0.00    -0.307 OA
HETATM    6  C14         0      17.810  25.015  -4.337  1.00  0.00     0.107 C 
HETATM    7  C15         0      18.684  26.084  -4.467  1.00  0.00     0.049 C 
HETATM    8  C16         0      18.328  27.226  -5.174  1.00  0.00     0.093 C 
HETATM    9  C18         0      17.346  27.036  -6.139  1.00  0.00     0.048 C 
HETATM   10  C19         0      16.484  25.951  -6.065  1.00  0.00     0.096 C 
HETATM   11  C21         0      16.611  25.052  -5.042  1.00  0.00     0.084 C 
ENDROOT
BRANCH  10  12
HETATM   12  O20         0      15.270  25.999  -6.744  1.00  0.00    -0.359 OA
HETATM   13  H20         0      15.030  26.813  -7.171  1.00  0.00     0.218 HD
ENDBRANCH  10  12
BRANCH   4  14
HETATM   14  C5          0      17.165  22.647  -1.733  1.00  0.00     0.025 C 
HETATM   15  C6          0      16.106  22.633  -0.836  1.00  0.00     0.004 C 
HETATM   16  C7          0      15.941  21.497  -0.051  1.00  0.00     0.026 C 
HETATM   17  C8          0      16.872  20.464  -0.057  1.00  0.00     0.112 C 
HETATM   18  C10         0      18.146  20.835  -0.464  1.00  0.00     0.112 C 
HETATM   19  C12         0      18.276  21.924  -1.318  1.00  0.00     0.028 C 
BRANCH  17  20
HETATM   20  O9          0      16.475  19.151   0.125  1.00  0.00    -0.357 OA
HETATM   21  H9          0      16.110  18.609  -0.565  1.00  0.00     0.218 HD
ENDBRANCH  17  20
BRANCH  18  22
HETATM   22  O11         0      19.154  19.894  -0.310  1.00  0.00    -0.357 OA
HETATM   23  H11         0      19.109  19.337   0.459  1.00  0.00     0.218 HD
ENDBRANCH  18  22
ENDBRANCH   4  14
BRANCH   8  24
HETATM   24  O17         0      18.677  28.503  -4.720  1.00  0.00    -0.359 OA
HETATM   25  H17         0      19.471  28.656  -4.222  1.00  0.00     0.218 HD
ENDBRANCH   8  24
TORSDOF 5
ENDMDL
MODEL 5
REMARK VINA RESULT:      -2.4      2.046      2.148
REMARK  5 active torsions:
REMARK  status: ('A' for Active; 'I' for Inactive)
REMARK    1  A    between atoms: C4_4  and  C5_5 
REMARK    2  A    between atoms: C8_8  and  O9_9 
REMARK    3  A    between atoms: C10_11  and  O11_12 
REMARK    4  A    between atoms: C16_18  and  O17_19 
REMARK    5  A    between atoms: C19_22  and  O20_23 
ROOT
HETATM    1  O1          0      16.136  25.995  -7.591  1.00  0.00    -0.286 OA
HETATM    2  C2          0      16.924  25.794  -6.627  1.00  0.00     0.201 C 
HETATM    3  C3          0      16.992  24.587  -5.952  1.00  0.00     0.067 C 
HETATM    4  C4          0      17.796  24.425  -4.829  1.00  0.00     0.103 C 
HETATM    5  O13         0      18.524  25.447  -4.417  1.00  0.00    -0.307 OA
HETATM    6  C14         0      18.469  26.625  -4.999  1.00  0.00     0.107 C 
HETATM    7  C15         0      18.898  27.778  -4.358  1.00  0.00     0.049 C 
HETATM    8  C16         0      18.606  29.038  -4.866  1.00  0.00     0.093 C 
HETATM    9  C18         0      18.365  29.077  -6.234  1.00  0.00     0.048 C 
HETATM   10  C19         0      17.979  27.931  -6.916  1.00  0.00     0.096 C 
HETATM   11  C21         0      17.851  26.749  -6.239  1.00  0.00     0.084 C 
ENDROOT
BRANCH  10  12
HETATM   12  O20         0      17.333  28.054  -8.142  1.00  0.00    -0.359 OA
HETATM   13  H20         0      17.013  28.912  -8.393  1.00  0.00     0.218 HD
ENDBRANCH  10  12
BRANCH   4  14
HETATM   14  C5          0      17.388  23.411  -3.855  1.00  0.00     0.025 C 
HETATM   15  C6          0      18.263  22.464  -3.344  1.00  0.00     0.004 C 
HETATM   16  C7          0      18.136  22.126  -2.001  1.00  0.00     0.026 C 
HETATM   17  C8          0      17.090  22.611  -1.223  1.00  0.00     0.112 C 
HETATM   18  C10         0      15.967  23.002  -1.939  1.00  0.00     0.112 C 
HETATM   19  C12         0      16.135  23.417  -3.255  1.00  0.00     0.028 C 
BRANCH  17  20
HETATM   20  O9          0      17.270  22.868   0.125  1.00  0.00    -0.357 OA
HETATM   21  H9          0      17.560  22.216   0.753  1.00  0.00     0.218 HD
ENDBRANCH  17  20
BRANCH  18  22
HETATM   22  O11         0      14.831  23.315  -1.206  1.00  0.00    -0.357 OA
HETATM   23  H11         0      14.422  24.154  -1.384  1.00  0.00     0.218 HD
ENDBRANCH  18  22
ENDBRANCH   4  14
BRANCH   8  24
HETATM   24  O17         0      18.252  30.100  -4.026  1.00  0.00    -0.359 OA
HETATM   25  H17         0      17.740  29.963  -3.238  1.00  0.00     0.218 HD
ENDBRANCH   8  24
TORSDOF 5
ENDMDL
MODEL 6
REMARK VINA RESULT:      -2.4      3.551      6.582
REMARK  5 active torsions:
REMARK  status: ('A' for Active; 'I' for Inactive)
REMARK    1  A    between atoms: C4_4  and  C5_5 
REMARK    2  A    between atoms: C8_8  and  O9_9 
REMARK    3  A    between atoms: C10_11  and  O11_12 
REMARK    4  A    between atoms: C16_18  and  O17_19 
REMARK    5  A    between atoms: C19_22  and  O20_23 
ROOT
HETATM    1  O1          0      15.967  23.063  -2.318  1.00  0.00    -0.286 OA
HETATM    2  C2          0      17.217  22.967  -2.459  1.00  0.00     0.201 C 
HETATM    3  C3          0      17.913  23.632  -3.454  1.00  0.00     0.067 C 
HETATM    4  C4          0      19.275  23.429  -3.652  1.00  0.00     0.103 C 
HETATM    5  O13         0      19.914  22.595  -2.851  1.00  0.00    -0.307 OA
HETATM    6  C14         0      19.294  21.910  -1.915  1.00  0.00     0.107 C 
HETATM    7  C15         0      19.850  20.769  -1.355  1.00  0.00     0.049 C 
HETATM    8  C16         0      19.095  19.913  -0.562  1.00  0.00     0.093 C 
HETATM    9  C18         0      17.997  20.500   0.055  1.00  0.00     0.048 C 
HETATM   10  C19         0      17.444  21.669  -0.453  1.00  0.00     0.096 C 
HETATM   11  C21         0      17.996  22.256  -1.558  1.00  0.00     0.084 C 
ENDROOT
BRANCH  10  12
HETATM   12  O20         0      16.134  22.001  -0.122  1.00  0.00    -0.359 OA
HETATM   13  H20         0      15.475  21.944  -0.804  1.00  0.00     0.218 HD
ENDBRANCH  10  12
BRANCH   4  14
HETATM   14  C5          0      19.796  23.650  -5.002  1.00  0.00     0.025 C 
HETATM   15  C6          0      19.860  22.646  -5.957  1.00  0.00     0.004 C 
HETATM   16  C7          0      19.572  22.990  -7.274  1.00  0.00     0.026 C 
HETATM   17  C8          0      19.359  24.311  -7.653  1.00  0.00     0.112 C 
HETATM   18  C10         0      19.926  25.255  -6.807  1.00  0.00     0.112 C 
HETATM   19  C12         0      20.125  24.914  -5.475  1.00  0.00     0.028 C 
BRANCH  17  20
HETATM   20  O9          0      18.474  24.623  -8.669  1.00  0.00    -0.357 OA
HETATM   21  H9          0      18.288  25.511  -8.953  1.00  0.00     0.218 HD
ENDBRANCH  17  20
BRANCH  18  22
HETATM   22  O11         0      19.908  26.575  -7.236  1.00  0.00    -0.357 OA
HETATM   23  H11         0      19.155  27.098  -6.985  1.00  0.00     0.218 HD
ENDBRANCH  18  22
ENDBRANCH   4  14
BRANCH   8  24
HETATM   24  O17         0      19.232  18.524  -0.653  1.00  0.00    -0.359 OA
HETATM   25  H17         0      19.251  17.972   0.120  1.00  0.00     0.218 HD
ENDBRANCH   8  24
TORSDOF 5
ENDMDL
MODEL 7
REMARK VINA RESULT:      -2.3      2.288      4.160
REMARK  5 active torsions:
REMARK  status: ('A' for Active; 'I' for Inactive)
REMARK    1  A    between atoms: C4_4  and  C5_5 
REMARK    2  A    between atoms: C8_8  and  O9_9 
REMARK    3  A    between atoms: C10_11  and  O11_12 
REMARK    4  A    between atoms: C16_18  and  O17_19 
REMARK    5  A    between atoms: C19_22  and  O20_23 
ROOT
HETATM    1  O1          0      20.125  24.767  -5.054  1.00  0.00    -0.286 OA
HETATM    2  C2          0      19.353  24.153  -4.266  1.00  0.00     0.201 C 
HETATM    3  C3          0      19.775  23.102  -3.471  1.00  0.00     0.067 C 
HETATM    4  C4          0      18.883  22.377  -2.689  1.00  0.00     0.103 C 
HETATM    5  O13         0      17.607  22.721  -2.697  1.00  0.00    -0.307 OA
HETATM    6  C14         0      17.148  23.686  -3.462  1.00  0.00     0.107 C 
HETATM    7  C15         0      15.802  23.790  -3.780  1.00  0.00     0.049 C 
HETATM    8  C16         0      15.360  24.647  -4.781  1.00  0.00     0.093 C 
HETATM    9  C18         0      16.200  25.722  -5.046  1.00  0.00     0.048 C 
HETATM   10  C19         0      17.543  25.670  -4.699  1.00  0.00     0.096 C 
HETATM   11  C21         0      18.041  24.558  -4.076  1.00  0.00     0.084 C 
ENDROOT
BRANCH  10  12
HETATM   12  O20         0      18.444  26.519  -5.335  1.00  0.00    -0.359 OA
HETATM   13  H20         0      19.367  26.420  -5.136  1.00  0.00     0.218 HD
ENDBRANCH  10  12
BRANCH   4  14
HETATM   14  C5          0      19.237  20.990  -2.379  1.00  0.00     0.025 C 
HETATM   15  C6          0      20.025  20.640  -1.292  1.00  0.00     0.004 C 
HETATM   16  C7          0      19.690  19.480  -0.601  1.00  0.00     0.026 C 
HETATM   17  C8          0      18.691  18.624  -1.052  1.00  0.00     0.112 C 
HETATM   18  C10         0      18.423  18.712  -2.412  1.00  0.00     0.112 C 
HETATM   19  C12         0      18.688  19.912  -3.061  1.00  0.00     0.028 C 
BRANCH  17  20
HETATM   20  O9          0      17.907  17.917  -0.158  1.00  0.00    -0.357 OA
HETATM   21  H9          0      17.902  18.074   0.779  1.00  0.00     0.218 HD
ENDBRANCH  17  20
BRANCH  18  22
HETATM   22  O11         0      17.574  17.754  -2.948  1.00  0.00    -0.357 OA
HETATM   23  H11         0      17.289  17.059  -2.367  1.00  0.00     0.218 HD
ENDBRANCH  18  22
ENDBRANCH   4  14
BRANCH   8  24
HETATM   24  O17         0      14.344  24.271  -5.667  1.00  0.00    -0.359 OA
HETATM   25  H17         0      13.838  24.915  -6.148  1.00  0.00     0.218 HD
ENDBRANCH   8  24
TORSDOF 5
ENDMDL
MODEL 8
REMARK VINA RESULT:      -2.3      1.963      6.816
REMARK  5 active torsions:
REMARK  status: ('A' for Active; 'I' for Inactive)
REMARK    1  A    between atoms: C4_4  and  C5_5 
REMARK    2  A    between atoms: C8_8  and  O9_9 
REMARK    3  A    between atoms: C10_11  and  O11_12 
REMARK    4  A    between atoms: C16_18  and  O17_19 
REMARK    5  A    between atoms: C19_22  and  O20_23 
ROOT
HETATM    1  O1          0      15.046  20.305  -4.072  1.00  0.00    -0.286 OA
HETATM    2  C2          0      15.643  21.290  -3.556  1.00  0.00     0.201 C 
HETATM    3  C3          0      15.621  22.557  -4.114  1.00  0.00     0.067 C 
HETATM    4  C4          0      16.371  23.600  -3.583  1.00  0.00     0.103 C 
HETATM    5  O13         0      17.103  23.372  -2.507  1.00  0.00    -0.307 OA
HETATM    6  C14         0      17.188  22.179  -1.960  1.00  0.00     0.107 C 
HETATM    7  C15         0      18.230  21.839  -1.108  1.00  0.00     0.049 C 
HETATM    8  C16         0      18.457  20.518  -0.739  1.00  0.00     0.093 C 
HETATM    9  C18         0      17.344  19.689  -0.807  1.00  0.00     0.048 C 
HETATM   10  C19         0      16.265  20.023  -1.614  1.00  0.00     0.096 C 
HETATM   11  C21         0      16.289  21.187  -2.334  1.00  0.00     0.084 C 
ENDROOT
BRANCH  10  12
HETATM   12  O20         0      15.381  19.026  -2.015  1.00  0.00    -0.359 OA
HETATM   13  H20         0      15.431  18.722  -2.913  1.00  0.00     0.218 HD
ENDBRANCH  10  12
BRANCH   4  14
HETATM   14  C5          0      16.779  24.666  -4.500  1.00  0.00     0.025 C 
HETATM   15  C6          0      15.997  25.078  -5.569  1.00  0.00     0.004 C 
HETATM   16  C7          0      15.966  26.438  -5.859  1.00  0.00     0.026 C 
HETATM   17  C8          0      16.787  27.344  -5.196  1.00  0.00     0.112 C 
HETATM   18  C10         0      17.931  26.789  -4.638  1.00  0.00     0.112 C 
HETATM   19  C12         0      17.906  25.447  -4.279  1.00  0.00     0.028 C 
BRANCH  17  20
HETATM   20  O9          0      16.361  28.638  -4.949  1.00  0.00    -0.357 OA
HETATM   21  H9          0      15.916  28.904  -4.153  1.00  0.00     0.218 HD
ENDBRANCH  17  20
BRANCH  18  22
HETATM   22  O11         0      18.874  27.672  -4.131  1.00  0.00    -0.357 OA
HETATM   23  H11         0      18.749  28.594  -4.324  1.00  0.00     0.218 HD
ENDBRANCH  18  22
ENDBRANCH   4  14
BRANCH   8  24
HETATM   24  O17         0      19.754  20.002  -0.639  1.00  0.00    -0.359 OA
HETATM   25  H17         0      19.931  19.074  -0.735  1.00  0.00     0.218 HD
ENDBRANCH   8  24
TORSDOF 5
ENDMDL
MODEL 9
REMARK VINA RESULT:      -2.2      2.516      6.463
REMARK  5 active torsions:
REMARK  status: ('A' for Active; 'I' for Inactive)
REMARK    1  A    between atoms: C4_4  and  C5_5 
REMARK    2  A    between atoms: C8_8  and  O9_9 
REMARK    3  A    between atoms: C10_11  and  O11_12 
REMARK    4  A    between atoms: C16_18  and  O17_19 
REMARK    5  A    between atoms: C19_22  and  O20_23 
ROOT
HETATM    1  O1          0      15.814  23.984  -3.862  1.00  0.00    -0.286 OA
HETATM    2  C2          0      17.072  24.079  -3.845  1.00  0.00     0.201 C 
HETATM    3  C3          0      17.750  25.159  -4.384  1.00  0.00     0.067 C 
HETATM    4  C4          0      19.138  25.192  -4.445  1.00  0.00     0.103 C 
HETATM    5  O13         0      19.819  24.170  -3.956  1.00  0.00    -0.307 OA
HETATM    6  C14         0      19.224  23.104  -3.467  1.00  0.00     0.107 C 
HETATM    7  C15         0      19.890  21.895  -3.329  1.00  0.00     0.049 C 
HETATM    8  C16         0      19.202  20.718  -3.057  1.00  0.00     0.093 C 
HETATM    9  C18         0      17.975  20.888  -2.426  1.00  0.00     0.048 C 
HETATM   10  C19         0      17.303  22.100  -2.505  1.00  0.00     0.096 C 
HETATM   11  C21         0      17.861  23.142  -3.196  1.00  0.00     0.084 C 
ENDROOT
BRANCH  10  12
HETATM   12  O20         0      15.933  22.136  -2.266  1.00  0.00    -0.359 OA
HETATM   13  H20         0      15.419  21.376  -2.511  1.00  0.00     0.218 HD
ENDBRANCH  10  12
BRANCH   4  14
HETATM   14  C5          0      19.743  25.998  -5.506  1.00  0.00     0.025 C 
HETATM   15  C6          0      20.089  25.476  -6.744  1.00  0.00     0.004 C 
HETATM   16  C7          0      19.877  26.275  -7.863  1.00  0.00     0.026 C 
HETATM   17  C8          0      19.462  27.597  -7.747  1.00  0.00     0.112 C 
HETATM   18  C10         0      19.756  28.192  -6.527  1.00  0.00     0.112 C 
HETATM   19  C12         0      19.879  27.377  -5.408  1.00  0.00     0.028 C 
BRANCH  17  20
HETATM   20  O9          0      18.642  28.169  -8.703  1.00  0.00    -0.357 OA
HETATM   21  H9          0      18.166  27.671  -9.357  1.00  0.00     0.218 HD
ENDBRANCH  17  20
BRANCH  18  22
HETATM   22  O11         0      19.537  29.558  -6.425  1.00  0.00    -0.357 OA
HETATM   23  H11         0      19.697  29.957  -5.578  1.00  0.00     0.218 HD
ENDBRANCH  18  22
ENDBRANCH   4  14
BRANCH   8  24
HETATM   24  O17         0      19.553  19.510  -3.669  1.00  0.00    -0.359 OA
HETATM   25  H17         0      19.589  19.421  -4.614  1.00  0.00     0.218 HD
ENDBRANCH   8  24
TORSDOF 5
ENDMDL
