MODEL 1
REMARK VINA RESULT:      -5.7      0.000      0.000
REMARK  5 active torsions:
REMARK  status: ('A' for Active; 'I' for Inactive)
REMARK    1  A    between atoms: C4_4  and  C5_5 
REMARK    2  A    between atoms: C8_8  and  O9_9 
REMARK    3  A    between atoms: C10_11  and  O11_12 
REMARK    4  A    between atoms: C16_18  and  O17_19 
REMARK    5  A    between atoms: C19_22  and  O20_23 
ROOT
HETATM    1  O1          0      59.665  86.948 -21.614  1.00  0.00    -0.286 OA
HETATM    2  C2          0      58.950  87.705 -22.326  1.00  0.00     0.201 C 
HETATM    3  C3          0      57.689  88.127 -21.940  1.00  0.00     0.067 C 
HETATM    4  C4          0      56.880  88.875 -22.788  1.00  0.00     0.103 C 
HETATM    5  O13         0      57.343  89.203 -23.981  1.00  0.00    -0.307 OA
HETATM    6  C14         0      58.517  88.797 -24.411  1.00  0.00     0.107 C 
HETATM    7  C15         0      58.838  88.787 -25.761  1.00  0.00     0.049 C 
HETATM    8  C16         0      59.967  88.127 -26.230  1.00  0.00     0.093 C 
HETATM    9  C18         0      60.982  87.963 -25.295  1.00  0.00     0.048 C 
HETATM   10  C19         0      60.704  88.014 -23.936  1.00  0.00     0.096 C 
HETATM   11  C21         0      59.423  88.243 -23.513  1.00  0.00     0.084 C 
ENDROOT
BRANCH  10  12
HETATM   12  O20         0      61.593  87.433 -23.037  1.00  0.00    -0.359 OA
HETATM   13  H20         0      62.400  87.895 -22.847  1.00  0.00     0.218 HD
ENDBRANCH  10  12
BRANCH   4  14
HETATM   14  C5          0      55.432  88.769 -22.599  1.00  0.00     0.025 C 
HETATM   15  C6          0      54.705  89.671 -21.835  1.00  0.00     0.004 C 
HETATM   16  C7          0      53.442  90.032 -22.293  1.00  0.00     0.026 C 
HETATM   17  C8          0      52.864  89.418 -23.399  1.00  0.00     0.112 C 
HETATM   18  C10         0      53.359  88.152 -23.684  1.00  0.00     0.112 C 
HETATM   19  C12         0      54.657  87.847 -23.290  1.00  0.00     0.028 C 
BRANCH  17  20
HETATM   20  O9          0      52.025  90.123 -24.243  1.00  0.00    -0.357 OA
HETATM   21  H9          0      51.252  90.592 -23.949  1.00  0.00     0.218 HD
ENDBRANCH  17  20
BRANCH  18  22
HETATM   22  O11         0      52.691  87.420 -24.656  1.00  0.00    -0.357 OA
HETATM   23  H11         0      52.223  87.914 -25.320  1.00  0.00     0.218 HD
ENDBRANCH  18  22
ENDBRANCH   4  14
BRANCH   8  24
HETATM   24  O17         0      59.943  87.397 -27.424  1.00  0.00    -0.359 OA
HETATM   25  H17         0      60.639  87.468 -28.066  1.00  0.00     0.218 HD
ENDBRANCH   8  24
TORSDOF 5
ENDMDL
MODEL 2
REMARK VINA RESULT:      -5.3     13.347     15.331
REMARK  5 active torsions:
REMARK  status: ('A' for Active; 'I' for Inactive)
REMARK    1  A    between atoms: C4_4  and  C5_5 
REMARK    2  A    between atoms: C8_8  and  O9_9 
REMARK    3  A    between atoms: C10_11  and  O11_12 
REMARK    4  A    between atoms: C16_18  and  O17_19 
REMARK    5  A    between atoms: C19_22  and  O20_23 
ROOT
HETATM    1  O1          0      53.763  75.709 -20.112  1.00  0.00    -0.286 OA
HETATM    2  C2          0      54.050  74.940 -21.070  1.00  0.00     0.201 C 
HETATM    3  C3          0      55.353  74.615 -21.408  1.00  0.00     0.067 C 
HETATM    4  C4          0      55.645  73.848 -22.530  1.00  0.00     0.103 C 
HETATM    5  O13         0      54.646  73.406 -23.274  1.00  0.00    -0.307 OA
HETATM    6  C14         0      53.394  73.716 -23.019  1.00  0.00     0.107 C 
HETATM    7  C15         0      52.402  73.605 -23.983  1.00  0.00     0.049 C 
HETATM    8  C16         0      51.146  74.168 -23.794  1.00  0.00     0.093 C 
HETATM    9  C18         0      50.777  74.348 -22.466  1.00  0.00     0.048 C 
HETATM   10  C19         0      51.741  74.416 -21.470  1.00  0.00     0.096 C 
HETATM   11  C21         0      53.064  74.288 -21.795  1.00  0.00     0.084 C 
ENDROOT
BRANCH  10  12
HETATM   12  O20         0      51.423  75.016 -20.255  1.00  0.00    -0.359 OA
HETATM   13  H20         0      51.415  74.471 -19.478  1.00  0.00     0.218 HD
ENDBRANCH  10  12
BRANCH   4  14
HETATM   14  C5          0      56.954  74.045 -23.154  1.00  0.00     0.025 C 
HETATM   15  C6          0      57.383  73.312 -24.250  1.00  0.00     0.004 C 
HETATM   16  C7          0      58.120  73.978 -25.224  1.00  0.00     0.026 C 
HETATM   17  C8          0      58.533  75.295 -25.052  1.00  0.00     0.112 C 
HETATM   18  C10         0      58.615  75.709 -23.729  1.00  0.00     0.112 C 
HETATM   19  C12         0      57.804  75.082 -22.790  1.00  0.00     0.028 C 
BRANCH  17  20
HETATM   20  O9          0      58.638  76.152 -26.133  1.00  0.00    -0.357 OA
HETATM   21  H9          0      57.946  76.744 -26.406  1.00  0.00     0.218 HD
ENDBRANCH  17  20
BRANCH  18  22
HETATM   22  O11         0      59.199  76.945 -23.492  1.00  0.00    -0.357 OA
HETATM   23  H11         0      59.959  76.959 -22.922  1.00  0.00     0.218 HD
ENDBRANCH  18  22
ENDBRANCH   4  14
BRANCH   8  24
HETATM   24  O17         0      50.466  74.804 -24.839  1.00  0.00    -0.359 OA
HETATM   25  H17         0      50.929  75.182 -25.578  1.00  0.00     0.218 HD
ENDBRANCH   8  24
TORSDOF 5
ENDMDL
MODEL 3
REMARK VINA RESULT:      -5.2     10.059     11.191
REMARK  5 active torsions:
REMARK  status: ('A' for Active; 'I' for Inactive)
REMARK    1  A    between atoms: C4_4  and  C5_5 
REMARK    2  A    between atoms: C8_8  and  O9_9 
REMARK    3  A    between atoms: C10_11  and  O11_12 
REMARK    4  A    between atoms: C16_18  and  O17_19 
REMARK    5  A    between atoms: C19_22  and  O20_23 
ROOT
HETATM    1  O1          0      54.978  76.220 -21.917  1.00  0.00    -0.286 OA
HETATM    2  C2          0      56.136  76.652 -21.663  1.00  0.00     0.201 C 
HETATM    3  C3          0      56.377  77.655 -20.740  1.00  0.00     0.067 C 
HETATM    4  C4          0      57.650  78.183 -20.553  1.00  0.00     0.103 C 
HETATM    5  O13         0      58.650  77.694 -21.266  1.00  0.00    -0.307 OA
HETATM    6  C14         0      58.469  76.769 -22.182  1.00  0.00     0.107 C 
HETATM    7  C15         0      59.399  76.542 -23.186  1.00  0.00     0.049 C 
HETATM    8  C16         0      59.095  75.752 -24.287  1.00  0.00     0.093 C 
HETATM    9  C18         0      58.088  74.817 -24.079  1.00  0.00     0.048 C 
HETATM   10  C19         0      57.168  74.989 -23.053  1.00  0.00     0.096 C 
HETATM   11  C21         0      57.263  76.078 -22.231  1.00  0.00     0.084 C 
ENDROOT
BRANCH  10  12
HETATM   12  O20         0      55.947  74.323 -23.116  1.00  0.00    -0.359 OA
HETATM   13  H20         0      55.954  73.375 -23.067  1.00  0.00     0.218 HD
ENDBRANCH  10  12
BRANCH   4  14
HETATM   14  C5          0      57.738  79.560 -20.065  1.00  0.00     0.025 C 
HETATM   15  C6          0      58.841  80.370 -20.296  1.00  0.00     0.004 C 
HETATM   16  C7          0      58.607  81.716 -20.561  1.00  0.00     0.026 C 
HETATM   17  C8          0      57.334  82.268 -20.467  1.00  0.00     0.112 C 
HETATM   18  C10         0      56.459  81.570 -19.645  1.00  0.00     0.112 C 
HETATM   19  C12         0      56.666  80.208 -19.465  1.00  0.00     0.028 C 
BRANCH  17  20
HETATM   20  O9          0      56.946  83.300 -21.302  1.00  0.00    -0.357 OA
HETATM   21  H9          0      57.506  84.032 -21.532  1.00  0.00     0.218 HD
ENDBRANCH  17  20
BRANCH  18  22
HETATM   22  O11         0      55.242  82.175 -19.366  1.00  0.00    -0.357 OA
HETATM   23  H11         0      54.695  82.404 -20.109  1.00  0.00     0.218 HD
ENDBRANCH  18  22
ENDBRANCH   4  14
BRANCH   8  24
HETATM   24  O17         0      59.522  76.099 -25.574  1.00  0.00    -0.359 OA
HETATM   25  H17         0      60.096  75.534 -26.079  1.00  0.00     0.218 HD
ENDBRANCH   8  24
TORSDOF 5
ENDMDL
MODEL 4
REMARK VINA RESULT:      -5.1      2.226      3.200
REMARK  5 active torsions:
REMARK  status: ('A' for Active; 'I' for Inactive)
REMARK    1  A    between atoms: C4_4  and  C5_5 
REMARK    2  A    between atoms: C8_8  and  O9_9 
REMARK    3  A    between atoms: C10_11  and  O11_12 
REMARK    4  A    between atoms: C16_18  and  O17_19 
REMARK    5  A    between atoms: C19_22  and  O20_23 
ROOT
HETATM    1  O1          0      61.620  85.526 -23.486  1.00  0.00    -0.286 OA
HETATM    2  C2          0      61.172  86.670 -23.773  1.00  0.00     0.201 C 
HETATM    3  C3          0      60.137  87.268 -23.075  1.00  0.00     0.067 C 
HETATM    4  C4          0      59.595  88.484 -23.476  1.00  0.00     0.103 C 
HETATM    5  O13         0      60.101  89.085 -24.538  1.00  0.00    -0.307 OA
HETATM    6  C14         0      61.059  88.544 -25.257  1.00  0.00     0.107 C 
HETATM    7  C15         0      61.314  88.950 -26.559  1.00  0.00     0.049 C 
HETATM    8  C16         0      62.144  88.214 -27.396  1.00  0.00     0.093 C 
HETATM    9  C18         0      63.077  87.417 -26.744  1.00  0.00     0.048 C 
HETATM   10  C19         0      62.876  87.030 -25.425  1.00  0.00     0.096 C 
HETATM   11  C21         0      61.759  87.451 -24.757  1.00  0.00     0.084 C 
ENDROOT
BRANCH  10  12
HETATM   12  O20         0      63.551  85.918 -24.932  1.00  0.00    -0.359 OA
HETATM   13  H20         0      63.650  85.167 -25.506  1.00  0.00     0.218 HD
ENDBRANCH  10  12
BRANCH   4  14
HETATM   14  C5          0      58.201  88.748 -23.114  1.00  0.00     0.025 C 
HETATM   15  C6          0      57.233  89.085 -24.048  1.00  0.00     0.004 C 
HETATM   16  C7          0      55.957  88.560 -23.873  1.00  0.00     0.026 C 
HETATM   17  C8          0      55.617  87.833 -22.736  1.00  0.00     0.112 C 
HETATM   18  C10         0      56.410  88.089 -21.626  1.00  0.00     0.112 C 
HETATM   19  C12         0      57.711  88.533 -21.832  1.00  0.00     0.028 C 
BRANCH  17  20
HETATM   20  O9          0      54.701  86.798 -22.804  1.00  0.00    -0.357 OA
HETATM   21  H9          0      54.934  85.899 -23.005  1.00  0.00     0.218 HD
ENDBRANCH  17  20
BRANCH  18  22
HETATM   22  O11         0      56.001  87.537 -20.421  1.00  0.00    -0.357 OA
HETATM   23  H11         0      55.768  88.143 -19.727  1.00  0.00     0.218 HD
ENDBRANCH  18  22
ENDBRANCH   4  14
BRANCH   8  24
HETATM   24  O17         0      61.839  88.032 -28.749  1.00  0.00    -0.359 OA
HETATM   25  H17         0      62.418  88.339 -29.437  1.00  0.00     0.218 HD
ENDBRANCH   8  24
TORSDOF 5
ENDMDL
MODEL 5
REMARK VINA RESULT:      -5.1     13.125     14.094
REMARK  5 active torsions:
REMARK  status: ('A' for Active; 'I' for Inactive)
REMARK    1  A    between atoms: C4_4  and  C5_5 
REMARK    2  A    between atoms: C8_8  and  O9_9 
REMARK    3  A    between atoms: C10_11  and  O11_12 
REMARK    4  A    between atoms: C16_18  and  O17_19 
REMARK    5  A    between atoms: C19_22  and  O20_23 
ROOT
HETATM    1  O1          0      58.353  74.507 -25.465  1.00  0.00    -0.286 OA
HETATM    2  C2          0      57.750  74.439 -24.359  1.00  0.00     0.201 C 
HETATM    3  C3          0      56.619  73.665 -24.167  1.00  0.00     0.067 C 
HETATM    4  C4          0      55.914  73.688 -22.969  1.00  0.00     0.103 C 
HETATM    5  O13         0      56.356  74.456 -21.988  1.00  0.00    -0.307 OA
HETATM    6  C14         0      57.403  75.238 -22.129  1.00  0.00     0.107 C 
HETATM    7  C15         0      57.632  76.313 -21.283  1.00  0.00     0.049 C 
HETATM    8  C16         0      58.585  77.279 -21.585  1.00  0.00     0.093 C 
HETATM    9  C18         0      59.607  76.853 -22.425  1.00  0.00     0.048 C 
HETATM   10  C19         0      59.428  75.752 -23.251  1.00  0.00     0.096 C 
HETATM   11  C21         0      58.242  75.069 -23.226  1.00  0.00     0.084 C 
ENDROOT
BRANCH  10  12
HETATM   12  O20         0      60.246  75.598 -24.366  1.00  0.00    -0.359 OA
HETATM   13  H20         0      61.148  75.887 -24.300  1.00  0.00     0.218 HD
ENDBRANCH  10  12
BRANCH   4  14
HETATM   14  C5          0      54.487  73.367 -23.024  1.00  0.00     0.025 C 
HETATM   15  C6          0      53.552  73.949 -22.181  1.00  0.00     0.004 C 
HETATM   16  C7          0      52.308  74.264 -22.718  1.00  0.00     0.026 C 
HETATM   17  C8          0      51.956  73.893 -24.011  1.00  0.00     0.112 C 
HETATM   18  C10         0      52.666  72.812 -24.517  1.00  0.00     0.112 C 
HETATM   19  C12         0      53.942  72.570 -24.022  1.00  0.00     0.028 C 
BRANCH  17  20
HETATM   20  O9          0      51.121  74.689 -24.774  1.00  0.00    -0.357 OA
HETATM   21  H9          0      51.019  74.598 -25.715  1.00  0.00     0.218 HD
ENDBRANCH  17  20
BRANCH  18  22
HETATM   22  O11         0      52.229  72.283 -25.723  1.00  0.00    -0.357 OA
HETATM   23  H11         0      52.647  71.482 -26.017  1.00  0.00     0.218 HD
ENDBRANCH  18  22
ENDBRANCH   4  14
BRANCH   8  24
HETATM   24  O17         0      58.349  78.637 -21.344  1.00  0.00    -0.359 OA
HETATM   25  H17         0      57.662  79.112 -21.796  1.00  0.00     0.218 HD
ENDBRANCH   8  24
TORSDOF 5
ENDMDL
MODEL 6
REMARK VINA RESULT:      -5.1      1.994      6.778
REMARK  5 active torsions:
REMARK  status: ('A' for Active; 'I' for Inactive)
REMARK    1  A    between atoms: C4_4  and  C5_5 
REMARK    2  A    between atoms: C8_8  and  O9_9 
REMARK    3  A    between atoms: C10_11  and  O11_12 
REMARK    4  A    between atoms: C16_18  and  O17_19 
REMARK    5  A    between atoms: C19_22  and  O20_23 
ROOT
HETATM    1  O1          0      54.984  89.324 -24.181  1.00  0.00    -0.286 OA
HETATM    2  C2          0      56.157  89.208 -23.731  1.00  0.00     0.201 C 
HETATM    3  C3          0      57.270  89.118 -24.550  1.00  0.00     0.067 C 
HETATM    4  C4          0      58.539  88.888 -24.032  1.00  0.00     0.103 C 
HETATM    5  O13         0      58.679  88.775 -22.723  1.00  0.00    -0.307 OA
HETATM    6  C14         0      57.652  88.816 -21.904  1.00  0.00     0.107 C 
HETATM    7  C15         0      57.725  88.311 -20.614  1.00  0.00     0.049 C 
HETATM    8  C16         0      56.582  88.123 -19.846  1.00  0.00     0.093 C 
HETATM    9  C18         0      55.502  88.925 -20.196  1.00  0.00     0.048 C 
HETATM   10  C19         0      55.420  89.485 -21.463  1.00  0.00     0.096 C 
HETATM   11  C21         0      56.419  89.259 -22.371  1.00  0.00     0.084 C 
ENDROOT
BRANCH  10  12
HETATM   12  O20         0      54.183  89.900 -21.945  1.00  0.00    -0.359 OA
HETATM   13  H20         0      53.627  90.408 -21.366  1.00  0.00     0.218 HD
ENDBRANCH  10  12
BRANCH   4  14
HETATM   14  C5          0      59.509  88.224 -24.905  1.00  0.00     0.025 C 
HETATM   15  C6          0      59.178  87.730 -26.158  1.00  0.00     0.004 C 
HETATM   16  C7          0      60.116  87.872 -27.175  1.00  0.00     0.026 C 
HETATM   17  C8          0      61.393  88.364 -26.927  1.00  0.00     0.112 C 
HETATM   18  C10         0      61.822  88.225 -25.614  1.00  0.00     0.112 C 
HETATM   19  C12         0      60.865  88.172 -24.608  1.00  0.00     0.028 C 
BRANCH  17  20
HETATM   20  O9          0      62.061  89.115 -27.878  1.00  0.00    -0.357 OA
HETATM   21  H9          0      61.873  89.076 -28.809  1.00  0.00     0.218 HD
ENDBRANCH  17  20
BRANCH  18  22
HETATM   22  O11         0      63.151  88.525 -25.352  1.00  0.00    -0.357 OA
HETATM   23  H11         0      63.794  87.862 -25.575  1.00  0.00     0.218 HD
ENDBRANCH  18  22
ENDBRANCH   4  14
BRANCH   8  24
HETATM   24  O17         0      56.428  86.997 -19.030  1.00  0.00    -0.359 OA
HETATM   25  H17         0      55.679  86.896 -18.454  1.00  0.00     0.218 HD
ENDBRANCH   8  24
TORSDOF 5
ENDMDL
MODEL 7
REMARK VINA RESULT:      -5.0      8.790     11.382
REMARK  5 active torsions:
REMARK  status: ('A' for Active; 'I' for Inactive)
REMARK    1  A    between atoms: C4_4  and  C5_5 
REMARK    2  A    between atoms: C8_8  and  O9_9 
REMARK    3  A    between atoms: C10_11  and  O11_12 
REMARK    4  A    between atoms: C16_18  and  O17_19 
REMARK    5  A    between atoms: C19_22  and  O20_23 
ROOT
HETATM    1  O1          0      53.836  77.896 -16.909  1.00  0.00    -0.286 OA
HETATM    2  C2          0      53.840  78.914 -17.654  1.00  0.00     0.201 C 
HETATM    3  C3          0      54.937  79.283 -18.415  1.00  0.00     0.067 C 
HETATM    4  C4          0      54.951  80.465 -19.147  1.00  0.00     0.103 C 
HETATM    5  O13         0      53.880  81.239 -19.124  1.00  0.00    -0.307 OA
HETATM    6  C14         0      52.827  80.954 -18.389  1.00  0.00     0.107 C 
HETATM    7  C15         0      51.893  81.920 -18.046  1.00  0.00     0.049 C 
HETATM    8  C16         0      50.932  81.681 -17.071  1.00  0.00     0.093 C 
HETATM    9  C18         0      50.622  80.341 -16.869  1.00  0.00     0.048 C 
HETATM   10  C19         0      51.515  79.347 -17.243  1.00  0.00     0.096 C 
HETATM   11  C21         0      52.702  79.686 -17.831  1.00  0.00     0.084 C 
ENDROOT
BRANCH  10  12
HETATM   12  O20         0      51.412  78.086 -16.662  1.00  0.00    -0.359 OA
HETATM   13  H20         0      50.950  77.410 -17.144  1.00  0.00     0.218 HD
ENDBRANCH  10  12
BRANCH   4  14
HETATM   14  C5          0      56.256  81.076 -19.407  1.00  0.00     0.025 C 
HETATM   15  C6          0      57.402  80.330 -19.642  1.00  0.00     0.004 C 
HETATM   16  C7          0      58.295  80.804 -20.597  1.00  0.00     0.026 C 
HETATM   17  C8          0      58.125  82.044 -21.203  1.00  0.00     0.112 C 
HETATM   18  C10         0      57.360  82.945 -20.474  1.00  0.00     0.112 C 
HETATM   19  C12         0      56.415  82.444 -19.588  1.00  0.00     0.028 C 
BRANCH  17  20
HETATM   20  O9          0      58.516  82.252 -22.514  1.00  0.00    -0.357 OA
HETATM   21  H9          0      58.439  83.087 -22.961  1.00  0.00     0.218 HD
ENDBRANCH  17  20
BRANCH  18  22
HETATM   22  O11         0      57.316  84.252 -20.939  1.00  0.00    -0.357 OA
HETATM   23  H11         0      57.181  84.935 -20.292  1.00  0.00     0.218 HD
ENDBRANCH  18  22
ENDBRANCH   4  14
BRANCH   8  24
HETATM   24  O17         0      50.568  82.668 -16.148  1.00  0.00    -0.359 OA
HETATM   25  H17         0      49.693  83.038 -16.133  1.00  0.00     0.218 HD
ENDBRANCH   8  24
TORSDOF 5
ENDMDL
MODEL 8
REMARK VINA RESULT:      -4.9     10.607     12.000
REMARK  5 active torsions:
REMARK  status: ('A' for Active; 'I' for Inactive)
REMARK    1  A    between atoms: C4_4  and  C5_5 
REMARK    2  A    between atoms: C8_8  and  O9_9 
REMARK    3  A    between atoms: C10_11  and  O11_12 
REMARK    4  A    between atoms: C16_18  and  O17_19 
REMARK    5  A    between atoms: C19_22  and  O20_23 
ROOT
HETATM    1  O1          0      55.961  75.356 -21.360  1.00  0.00    -0.286 OA
HETATM    2  C2          0      57.104  75.822 -21.620  1.00  0.00     0.201 C 
HETATM    3  C3          0      57.715  76.788 -20.839  1.00  0.00     0.067 C 
HETATM    4  C4          0      58.929  77.359 -21.204  1.00  0.00     0.103 C 
HETATM    5  O13         0      59.516  76.948 -22.314  1.00  0.00    -0.307 OA
HETATM    6  C14         0      58.961  76.062 -23.111  1.00  0.00     0.107 C 
HETATM    7  C15         0      59.350  75.924 -24.435  1.00  0.00     0.049 C 
HETATM    8  C16         0      58.600  75.176 -25.335  1.00  0.00     0.093 C 
HETATM    9  C18         0      57.806  74.191 -24.759  1.00  0.00     0.048 C 
HETATM   10  C19         0      57.436  74.273 -23.424  1.00  0.00     0.096 C 
HETATM   11  C21         0      57.870  75.324 -22.663  1.00  0.00     0.084 C 
ENDROOT
BRANCH  10  12
HETATM   12  O20         0      56.325  73.561 -22.980  1.00  0.00    -0.359 OA
HETATM   13  H20         0      56.076  73.648 -22.068  1.00  0.00     0.218 HD
ENDBRANCH  10  12
BRANCH   4  14
HETATM   14  C5          0      59.205  78.714 -20.721  1.00  0.00     0.025 C 
HETATM   15  C6          0      60.439  79.329 -20.871  1.00  0.00     0.004 C 
HETATM   16  C7          0      60.449  80.689 -21.164  1.00  0.00     0.026 C 
HETATM   17  C8          0      59.280  81.442 -21.174  1.00  0.00     0.112 C 
HETATM   18  C10         0      58.243  80.913 -20.417  1.00  0.00     0.112 C 
HETATM   19  C12         0      58.210  79.539 -20.212  1.00  0.00     0.028 C 
BRANCH  17  20
HETATM   20  O9          0      59.129  82.506 -22.045  1.00  0.00    -0.357 OA
HETATM   21  H9          0      59.213  82.432 -22.989  1.00  0.00     0.218 HD
ENDBRANCH  17  20
BRANCH  18  22
HETATM   22  O11         0      57.123  81.713 -20.239  1.00  0.00    -0.357 OA
HETATM   23  H11         0      57.094  82.243 -19.451  1.00  0.00     0.218 HD
ENDBRANCH  18  22
ENDBRANCH   4  14
BRANCH   8  24
HETATM   24  O17         0      58.404  75.602 -26.653  1.00  0.00    -0.359 OA
HETATM   25  H17         0      57.869  76.360 -26.858  1.00  0.00     0.218 HD
ENDBRANCH   8  24
TORSDOF 5
ENDMDL
MODEL 9
REMARK VINA RESULT:      -4.8     13.794     15.565
REMARK  5 active torsions:
REMARK  status: ('A' for Active; 'I' for Inactive)
REMARK    1  A    between atoms: C4_4  and  C5_5 
REMARK    2  A    between atoms: C8_8  and  O9_9 
REMARK    3  A    between atoms: C10_11  and  O11_12 
REMARK    4  A    between atoms: C16_18  and  O17_19 
REMARK    5  A    between atoms: C19_22  and  O20_23 
ROOT
HETATM    1  O1          0      56.376  73.796 -23.345  1.00  0.00    -0.286 OA
HETATM    2  C2          0      57.359  74.265 -23.982  1.00  0.00     0.201 C 
HETATM    3  C3          0      57.861  73.673 -25.129  1.00  0.00     0.067 C 
HETATM    4  C4          0      59.007  74.151 -25.753  1.00  0.00     0.103 C 
HETATM    5  O13         0      59.614  75.208 -25.243  1.00  0.00    -0.307 OA
HETATM    6  C14         0      59.202  75.784 -24.135  1.00  0.00     0.107 C 
HETATM    7  C15         0      60.030  76.609 -23.388  1.00  0.00     0.049 C 
HETATM    8  C16         0      59.683  77.007 -22.102  1.00  0.00     0.093 C 
HETATM    9  C18         0      58.320  76.998 -21.833  1.00  0.00     0.048 C 
HETATM   10  C19         0      57.456  76.219 -22.591  1.00  0.00     0.096 C 
HETATM   11  C21         0      57.948  75.467 -23.623  1.00  0.00     0.084 C 
ENDROOT
BRANCH  10  12
HETATM   12  O20         0      56.214  75.874 -22.067  1.00  0.00    -0.359 OA
HETATM   13  H20         0      56.133  75.036 -21.628  1.00  0.00     0.218 HD
ENDBRANCH  10  12
BRANCH   4  14
HETATM   14  C5          0      59.795  73.193 -26.531  1.00  0.00     0.025 C 
HETATM   15  C6          0      59.995  71.881 -26.127  1.00  0.00     0.004 C 
HETATM   16  C7          0      59.990  70.896 -27.110  1.00  0.00     0.026 C 
HETATM   17  C8          0      59.923  71.216 -28.462  1.00  0.00     0.112 C 
HETATM   18  C10         0      60.360  72.495 -28.778  1.00  0.00     0.112 C 
HETATM   19  C12         0      60.275  73.481 -27.802  1.00  0.00     0.028 C 
BRANCH  17  20
HETATM   20  O9          0      59.273  70.384 -29.356  1.00  0.00    -0.357 OA
HETATM   21  H9          0      59.193  69.444 -29.240  1.00  0.00     0.218 HD
ENDBRANCH  17  20
BRANCH  18  22
HETATM   22  O11         0      60.493  72.799 -30.125  1.00  0.00    -0.357 OA
HETATM   23  H11         0      61.288  72.507 -30.555  1.00  0.00     0.218 HD
ENDBRANCH  18  22
ENDBRANCH   4  14
BRANCH   8  24
HETATM   24  O17         0      60.636  77.077 -21.079  1.00  0.00    -0.359 OA
HETATM   25  H17         0      61.102  77.881 -20.886  1.00  0.00     0.218 HD
ENDBRANCH   8  24
TORSDOF 5
ENDMDL
