MODEL 1
REMARK VINA RESULT:      -4.9      0.000      0.000
REMARK  5 active torsions:
REMARK  status: ('A' for Active; 'I' for Inactive)
REMARK    1  A    between atoms: C4_4  and  C5_5 
REMARK    2  A    between atoms: C8_8  and  O9_9 
REMARK    3  A    between atoms: C10_11  and  O11_12 
REMARK    4  A    between atoms: C16_18  and  O17_19 
REMARK    5  A    between atoms: C19_22  and  O20_23 
ROOT
HETATM    1  O1          0      37.197 115.715  -0.406  1.00  0.00    -0.286 OA
HETATM    2  C2          0      36.229 114.936  -0.624  1.00  0.00     0.201 C 
HETATM    3  C3          0      36.399 113.631  -1.055  1.00  0.00     0.067 C 
HETATM    4  C4          0      35.315 112.826  -1.386  1.00  0.00     0.103 C 
HETATM    5  O13         0      34.096 113.321  -1.263  1.00  0.00    -0.307 OA
HETATM    6  C14         0      33.880 114.565  -0.894  1.00  0.00     0.107 C 
HETATM    7  C15         0      32.673 115.203  -1.143  1.00  0.00     0.049 C 
HETATM    8  C16         0      32.537 116.577  -0.986  1.00  0.00     0.093 C 
HETATM    9  C18         0      33.437 117.158  -0.100  1.00  0.00     0.048 C 
HETATM   10  C19         0      34.633 116.525   0.208  1.00  0.00     0.096 C 
HETATM   11  C21         0      34.922 115.310  -0.352  1.00  0.00     0.084 C 
ENDROOT
BRANCH  10  12
HETATM   12  O20         0      35.688 117.274   0.720  1.00  0.00    -0.359 OA
HETATM   13  H20         0      35.546 118.202   0.863  1.00  0.00     0.218 HD
ENDBRANCH  10  12
BRANCH   4  14
HETATM   14  C5          0      35.546 111.757  -2.359  1.00  0.00     0.025 C 
HETATM   15  C6          0      34.784 111.608  -3.508  1.00  0.00     0.004 C 
HETATM   16  C7          0      35.440 111.214  -4.670  1.00  0.00     0.026 C 
HETATM   17  C8          0      36.782 110.850  -4.662  1.00  0.00     0.112 C 
HETATM   18  C10         0      37.261 110.427  -3.429  1.00  0.00     0.112 C 
HETATM   19  C12         0      36.640 110.904  -2.281  1.00  0.00     0.028 C 
BRANCH  17  20
HETATM   20  O9          0      37.592 111.104  -5.755  1.00  0.00    -0.357 OA
HETATM   21  H9          0      37.675 110.517  -6.498  1.00  0.00     0.218 HD
ENDBRANCH  17  20
BRANCH  18  22
HETATM   22  O11         0      38.534 109.876  -3.405  1.00  0.00    -0.357 OA
HETATM   23  H11         0      38.600 108.956  -3.177  1.00  0.00     0.218 HD
ENDBRANCH  18  22
ENDBRANCH   4  14
BRANCH   8  24
HETATM   24  O17         0      31.795 117.344  -1.890  1.00  0.00    -0.359 OA
HETATM   25  H17         0      31.103 116.963  -2.417  1.00  0.00     0.218 HD
ENDBRANCH   8  24
TORSDOF 5
ENDMDL
MODEL 2
REMARK VINA RESULT:      -4.8      1.287      2.704
REMARK  5 active torsions:
REMARK  status: ('A' for Active; 'I' for Inactive)
REMARK    1  A    between atoms: C4_4  and  C5_5 
REMARK    2  A    between atoms: C8_8  and  O9_9 
REMARK    3  A    between atoms: C10_11  and  O11_12 
REMARK    4  A    between atoms: C16_18  and  O17_19 
REMARK    5  A    between atoms: C19_22  and  O20_23 
ROOT
HETATM    1  O1          0      31.300 114.796  -2.107  1.00  0.00    -0.286 OA
HETATM    2  C2          0      32.562 114.778  -2.096  1.00  0.00     0.201 C 
HETATM    3  C3          0      33.304 113.798  -2.733  1.00  0.00     0.067 C 
HETATM    4  C4          0      34.688 113.743  -2.620  1.00  0.00     0.103 C 
HETATM    5  O13         0      35.303 114.665  -1.900  1.00  0.00    -0.307 OA
HETATM    6  C14         0      34.644 115.595  -1.244  1.00  0.00     0.107 C 
HETATM    7  C15         0      35.219 116.297  -0.195  1.00  0.00     0.049 C 
HETATM    8  C16         0      34.451 117.086   0.652  1.00  0.00     0.093 C 
HETATM    9  C18         0      33.261 117.549   0.104  1.00  0.00     0.048 C 
HETATM   10  C19         0      32.681 116.898  -0.976  1.00  0.00     0.096 C 
HETATM   11  C21         0      33.296 115.802  -1.517  1.00  0.00     0.084 C 
ENDROOT
BRANCH  10  12
HETATM   12  O20         0      31.326 117.078  -1.232  1.00  0.00    -0.359 OA
HETATM   13  H20         0      31.039 117.075  -2.138  1.00  0.00     0.218 HD
ENDBRANCH  10  12
BRANCH   4  14
HETATM   14  C5          0      35.321 112.432  -2.775  1.00  0.00     0.025 C 
HETATM   15  C6          0      34.687 111.357  -3.382  1.00  0.00     0.004 C 
HETATM   16  C7          0      35.457 110.526  -4.188  1.00  0.00     0.026 C 
HETATM   17  C8          0      36.836 110.675  -4.284  1.00  0.00     0.112 C 
HETATM   18  C10         0      37.426 111.317  -3.203  1.00  0.00     0.112 C 
HETATM   19  C12         0      36.657 112.209  -2.465  1.00  0.00     0.028 C 
BRANCH  17  20
HETATM   20  O9          0      37.500 110.389  -5.463  1.00  0.00    -0.357 OA
HETATM   21  H9          0      37.234 109.704  -6.066  1.00  0.00     0.218 HD
ENDBRANCH  17  20
BRANCH  18  22
HETATM   22  O11         0      38.813 111.325  -3.157  1.00  0.00    -0.357 OA
HETATM   23  H11         0      39.215 111.298  -2.296  1.00  0.00     0.218 HD
ENDBRANCH  18  22
ENDBRANCH   4  14
BRANCH   8  24
HETATM   24  O17         0      34.691 117.124   2.030  1.00  0.00    -0.359 OA
HETATM   25  H17         0      35.399 117.639   2.399  1.00  0.00     0.218 HD
ENDBRANCH   8  24
TORSDOF 5
ENDMDL
MODEL 3
REMARK VINA RESULT:      -4.8      1.750      2.370
REMARK  5 active torsions:
REMARK  status: ('A' for Active; 'I' for Inactive)
REMARK    1  A    between atoms: C4_4  and  C5_5 
REMARK    2  A    between atoms: C8_8  and  O9_9 
REMARK    3  A    between atoms: C10_11  and  O11_12 
REMARK    4  A    between atoms: C16_18  and  O17_19 
REMARK    5  A    between atoms: C19_22  and  O20_23 
ROOT
HETATM    1  O1          0      34.883 114.011   1.325  1.00  0.00    -0.286 OA
HETATM    2  C2          0      34.998 114.052   0.069  1.00  0.00     0.201 C 
HETATM    3  C3          0      34.787 112.949  -0.740  1.00  0.00     0.067 C 
HETATM    4  C4          0      35.021 112.995  -2.110  1.00  0.00     0.103 C 
HETATM    5  O13         0      35.435 114.129  -2.645  1.00  0.00    -0.307 OA
HETATM    6  C14         0      35.687 115.195  -1.917  1.00  0.00     0.107 C 
HETATM    7  C15         0      36.482 116.230  -2.388  1.00  0.00     0.049 C 
HETATM    8  C16         0      36.952 117.223  -1.537  1.00  0.00     0.093 C 
HETATM    9  C18         0      36.189 117.425  -0.393  1.00  0.00     0.048 C 
HETATM   10  C19         0      35.348 116.427   0.080  1.00  0.00     0.096 C 
HETATM   11  C21         0      35.256 115.241  -0.596  1.00  0.00     0.084 C 
ENDROOT
BRANCH  10  12
HETATM   12  O20         0      34.941 116.453   1.410  1.00  0.00    -0.359 OA
HETATM   13  H20         0      35.300 117.129   1.972  1.00  0.00     0.218 HD
ENDBRANCH  10  12
BRANCH   4  14
HETATM   14  C5          0      35.364 111.735  -2.773  1.00  0.00     0.025 C 
HETATM   15  C6          0      34.656 111.240  -3.859  1.00  0.00     0.004 C 
HETATM   16  C7          0      35.379 110.617  -4.871  1.00  0.00     0.026 C 
HETATM   17  C8          0      36.743 110.374  -4.749  1.00  0.00     0.112 C 
HETATM   18  C10         0      37.207 110.318  -3.441  1.00  0.00     0.112 C 
HETATM   19  C12         0      36.513 111.019  -2.463  1.00  0.00     0.028 C 
BRANCH  17  20
HETATM   20  O9          0      37.571 110.406  -5.857  1.00  0.00    -0.357 OA
HETATM   21  H9          0      37.895 109.628  -6.296  1.00  0.00     0.218 HD
ENDBRANCH  17  20
BRANCH  18  22
HETATM   22  O11         0      38.515 109.893  -3.257  1.00  0.00    -0.357 OA
HETATM   23  H11         0      39.119 110.515  -2.868  1.00  0.00     0.218 HD
ENDBRANCH  18  22
ENDBRANCH   4  14
BRANCH   8  24
HETATM   24  O17         0      38.252 117.728  -1.653  1.00  0.00    -0.359 OA
HETATM   25  H17         0      38.998 117.277  -1.277  1.00  0.00     0.218 HD
ENDBRANCH   8  24
TORSDOF 5
ENDMDL
MODEL 4
REMARK VINA RESULT:      -4.7      1.623      6.743
REMARK  5 active torsions:
REMARK  status: ('A' for Active; 'I' for Inactive)
REMARK    1  A    between atoms: C4_4  and  C5_5 
REMARK    2  A    between atoms: C8_8  and  O9_9 
REMARK    3  A    between atoms: C10_11  and  O11_12 
REMARK    4  A    between atoms: C16_18  and  O17_19 
REMARK    5  A    between atoms: C19_22  and  O20_23 
ROOT
HETATM    1  O1          0      33.547 112.698  -5.391  1.00  0.00    -0.286 OA
HETATM    2  C2          0      33.936 112.796  -4.195  1.00  0.00     0.201 C 
HETATM    3  C3          0      33.623 113.878  -3.390  1.00  0.00     0.067 C 
HETATM    4  C4          0      34.149 114.010  -2.110  1.00  0.00     0.103 C 
HETATM    5  O13         0      34.950 113.064  -1.652  1.00  0.00    -0.307 OA
HETATM    6  C14         0      35.309 112.035  -2.388  1.00  0.00     0.107 C 
HETATM    7  C15         0      36.428 111.273  -2.084  1.00  0.00     0.049 C 
HETATM    8  C16         0      36.947 110.358  -2.992  1.00  0.00     0.093 C 
HETATM    9  C18         0      36.036 109.876  -3.924  1.00  0.00     0.048 C 
HETATM   10  C19         0      34.882 110.590  -4.219  1.00  0.00     0.096 C 
HETATM   11  C21         0      34.631 111.770  -3.573  1.00  0.00     0.084 C 
ENDROOT
BRANCH  10  12
HETATM   12  O20         0      34.220 110.348  -5.418  1.00  0.00    -0.359 OA
HETATM   13  H20         0      33.698 109.558  -5.488  1.00  0.00     0.218 HD
ENDBRANCH  10  12
BRANCH   4  14
HETATM   14  C5          0      34.286 115.367  -1.578  1.00  0.00     0.025 C 
HETATM   15  C6          0      33.198 116.138  -1.195  1.00  0.00     0.004 C 
HETATM   16  C7          0      33.340 116.936  -0.064  1.00  0.00     0.026 C 
HETATM   17  C8          0      34.563 117.069   0.586  1.00  0.00     0.112 C 
HETATM   18  C10         0      35.672 116.797  -0.204  1.00  0.00     0.112 C 
HETATM   19  C12         0      35.521 115.928  -1.278  1.00  0.00     0.028 C 
BRANCH  17  20
HETATM   20  O9          0      34.621 117.248   1.957  1.00  0.00    -0.357 OA
HETATM   21  H9          0      34.397 118.062   2.393  1.00  0.00     0.218 HD
ENDBRANCH  17  20
BRANCH  18  22
HETATM   22  O11         0      36.915 117.095   0.335  1.00  0.00    -0.357 OA
HETATM   23  H11         0      36.937 117.352   1.250  1.00  0.00     0.218 HD
ENDBRANCH  18  22
ENDBRANCH   4  14
BRANCH   8  24
HETATM   24  O17         0      38.327 110.203  -3.163  1.00  0.00    -0.359 OA
HETATM   25  H17         0      38.772 109.400  -2.921  1.00  0.00     0.218 HD
ENDBRANCH   8  24
TORSDOF 5
ENDMDL
MODEL 5
REMARK VINA RESULT:      -4.6     13.714     15.601
REMARK  5 active torsions:
REMARK  status: ('A' for Active; 'I' for Inactive)
REMARK    1  A    between atoms: C4_4  and  C5_5 
REMARK    2  A    between atoms: C8_8  and  O9_9 
REMARK    3  A    between atoms: C10_11  and  O11_12 
REMARK    4  A    between atoms: C16_18  and  O17_19 
REMARK    5  A    between atoms: C19_22  and  O20_23 
ROOT
HETATM    1  O1          0      22.234 121.872   6.255  1.00  0.00    -0.286 OA
HETATM    2  C2          0      23.192 121.489   5.528  1.00  0.00     0.201 C 
HETATM    3  C3          0      24.135 122.360   5.009  1.00  0.00     0.067 C 
HETATM    4  C4          0      25.119 121.926   4.128  1.00  0.00     0.103 C 
HETATM    5  O13         0      25.160 120.647   3.801  1.00  0.00    -0.307 OA
HETATM    6  C14         0      24.266 119.785   4.236  1.00  0.00     0.107 C 
HETATM    7  C15         0      24.057 118.568   3.604  1.00  0.00     0.049 C 
HETATM    8  C16         0      22.953 117.780   3.904  1.00  0.00     0.093 C 
HETATM    9  C18         0      22.410 117.986   5.167  1.00  0.00     0.048 C 
HETATM   10  C19         0      22.638 119.175   5.847  1.00  0.00     0.096 C 
HETATM   11  C21         0      23.418 120.144   5.277  1.00  0.00     0.084 C 
ENDROOT
BRANCH  10  12
HETATM   12  O20         0      21.772 119.551   6.869  1.00  0.00    -0.359 OA
HETATM   13  H20         0      21.861 119.120   7.710  1.00  0.00     0.218 HD
ENDBRANCH  10  12
BRANCH   4  14
HETATM   14  C5          0      25.658 122.912   3.189  1.00  0.00     0.025 C 
HETATM   15  C6          0      24.852 123.696   2.377  1.00  0.00     0.004 C 
HETATM   16  C7          0      25.236 125.017   2.169  1.00  0.00     0.026 C 
HETATM   17  C8          0      26.450 125.506   2.641  1.00  0.00     0.112 C 
HETATM   18  C10         0      27.420 124.536   2.858  1.00  0.00     0.112 C 
HETATM   19  C12         0      27.007 123.241   3.148  1.00  0.00     0.028 C 
BRANCH  17  20
HETATM   20  O9          0      26.574 126.822   3.049  1.00  0.00    -0.357 OA
HETATM   21  H9          0      25.923 127.492   2.875  1.00  0.00     0.218 HD
ENDBRANCH  17  20
BRANCH  18  22
HETATM   22  O11         0      28.702 124.984   3.146  1.00  0.00    -0.357 OA
HETATM   23  H11         0      29.244 125.240   2.408  1.00  0.00     0.218 HD
ENDBRANCH  18  22
ENDBRANCH   4  14
BRANCH   8  24
HETATM   24  O17         0      22.252 117.096   2.905  1.00  0.00    -0.359 OA
HETATM   25  H17         0      22.410 116.177   2.724  1.00  0.00     0.218 HD
ENDBRANCH   8  24
TORSDOF 5
ENDMDL
MODEL 6
REMARK VINA RESULT:      -4.6      3.321      5.607
REMARK  5 active torsions:
REMARK  status: ('A' for Active; 'I' for Inactive)
REMARK    1  A    between atoms: C4_4  and  C5_5 
REMARK    2  A    between atoms: C8_8  and  O9_9 
REMARK    3  A    between atoms: C10_11  and  O11_12 
REMARK    4  A    between atoms: C16_18  and  O17_19 
REMARK    5  A    between atoms: C19_22  and  O20_23 
ROOT
HETATM    1  O1          0      35.269 119.273   3.432  1.00  0.00    -0.286 OA
HETATM    2  C2          0      34.736 119.080   2.305  1.00  0.00     0.201 C 
HETATM    3  C3          0      34.760 117.852   1.665  1.00  0.00     0.067 C 
HETATM    4  C4          0      34.256 117.691   0.379  1.00  0.00     0.103 C 
HETATM    5  O13         0      33.727 118.736  -0.231  1.00  0.00    -0.307 OA
HETATM    6  C14         0      33.713 119.932   0.317  1.00  0.00     0.107 C 
HETATM    7  C15         0      33.538 121.081  -0.442  1.00  0.00     0.049 C 
HETATM    8  C16         0      33.777 122.341   0.093  1.00  0.00     0.093 C 
HETATM    9  C18         0      33.667 122.423   1.476  1.00  0.00     0.048 C 
HETATM   10  C19         0      33.790 121.285   2.262  1.00  0.00     0.096 C 
HETATM   11  C21         0      34.005 120.071   1.669  1.00  0.00     0.084 C 
ENDROOT
BRANCH  10  12
HETATM   12  O20         0      34.113 121.421   3.608  1.00  0.00    -0.359 OA
HETATM   13  H20         0      33.403 121.549   4.226  1.00  0.00     0.218 HD
ENDBRANCH  10  12
BRANCH   4  14
HETATM   14  C5          0      34.827 116.615  -0.433  1.00  0.00     0.025 C 
HETATM   15  C6          0      36.143 116.623  -0.874  1.00  0.00     0.004 C 
HETATM   16  C7          0      36.826 115.411  -0.887  1.00  0.00     0.026 C 
HETATM   17  C8          0      36.185 114.210  -0.600  1.00  0.00     0.112 C 
HETATM   18  C10         0      34.811 114.223  -0.800  1.00  0.00     0.112 C 
HETATM   19  C12         0      34.141 115.437  -0.697  1.00  0.00     0.028 C 
BRANCH  17  20
HETATM   20  O9          0      36.860 113.180   0.032  1.00  0.00    -0.357 OA
HETATM   21  H9          0      37.791 113.196   0.219  1.00  0.00     0.218 HD
ENDBRANCH  17  20
BRANCH  18  22
HETATM   22  O11         0      34.152 113.006  -0.711  1.00  0.00    -0.357 OA
HETATM   23  H11         0      34.056 112.510  -1.516  1.00  0.00     0.218 HD
ENDBRANCH  18  22
ENDBRANCH   4  14
BRANCH   8  24
HETATM   24  O17         0      34.402 123.344  -0.656  1.00  0.00    -0.359 OA
HETATM   25  H17         0      35.231 123.724  -0.389  1.00  0.00     0.218 HD
ENDBRANCH   8  24
TORSDOF 5
ENDMDL
MODEL 7
REMARK VINA RESULT:      -4.6      2.643      5.159
REMARK  5 active torsions:
REMARK  status: ('A' for Active; 'I' for Inactive)
REMARK    1  A    between atoms: C4_4  and  C5_5 
REMARK    2  A    between atoms: C8_8  and  O9_9 
REMARK    3  A    between atoms: C10_11  and  O11_12 
REMARK    4  A    between atoms: C16_18  and  O17_19 
REMARK    5  A    between atoms: C19_22  and  O20_23 
ROOT
HETATM    1  O1          0      31.090 118.952  -0.925  1.00  0.00    -0.286 OA
HETATM    2  C2          0      32.263 118.600  -0.626  1.00  0.00     0.201 C 
HETATM    3  C3          0      32.773 117.350  -0.935  1.00  0.00     0.067 C 
HETATM    4  C4          0      34.034 116.951  -0.505  1.00  0.00     0.103 C 
HETATM    5  O13         0      34.762 117.799   0.199  1.00  0.00    -0.307 OA
HETATM    6  C14         0      34.311 118.983   0.551  1.00  0.00     0.107 C 
HETATM    7  C15         0      34.879 119.700   1.595  1.00  0.00     0.049 C 
HETATM    8  C16         0      34.250 120.820   2.127  1.00  0.00     0.093 C 
HETATM    9  C18         0      33.371 121.465   1.265  1.00  0.00     0.048 C 
HETATM   10  C19         0      32.821 120.790   0.183  1.00  0.00     0.096 C 
HETATM   11  C21         0      33.160 119.484  -0.046  1.00  0.00     0.084 C 
ENDROOT
BRANCH  10  12
HETATM   12  O20         0      31.651 121.272  -0.396  1.00  0.00    -0.359 OA
HETATM   13  H20         0      31.226 120.735  -1.054  1.00  0.00     0.218 HD
ENDBRANCH  10  12
BRANCH   4  14
HETATM   14  C5          0      34.257 115.515  -0.328  1.00  0.00     0.025 C 
HETATM   15  C6          0      33.692 114.558  -1.159  1.00  0.00     0.004 C 
HETATM   16  C7          0      34.468 113.452  -1.489  1.00  0.00     0.026 C 
HETATM   17  C8          0      35.712 113.234  -0.908  1.00  0.00     0.112 C 
HETATM   18  C10         0      35.896 113.857   0.319  1.00  0.00     0.112 C 
HETATM   19  C12         0      35.170 115.011   0.589  1.00  0.00     0.028 C 
BRANCH  17  20
HETATM   20  O9          0      36.730 112.623  -1.620  1.00  0.00    -0.357 OA
HETATM   21  H9          0      36.959 112.850  -2.513  1.00  0.00     0.218 HD
ENDBRANCH  17  20
BRANCH  18  22
HETATM   22  O11         0      37.041 113.523   1.028  1.00  0.00    -0.357 OA
HETATM   23  H11         0      37.493 112.729   0.766  1.00  0.00     0.218 HD
ENDBRANCH  18  22
ENDBRANCH   4  14
BRANCH   8  24
HETATM   24  O17         0      34.243 121.067   3.504  1.00  0.00    -0.359 OA
HETATM   25  H17         0      34.136 121.943   3.854  1.00  0.00     0.218 HD
ENDBRANCH   8  24
TORSDOF 5
ENDMDL
MODEL 8
REMARK VINA RESULT:      -4.6      2.645      7.909
REMARK  5 active torsions:
REMARK  status: ('A' for Active; 'I' for Inactive)
REMARK    1  A    between atoms: C4_4  and  C5_5 
REMARK    2  A    between atoms: C8_8  and  O9_9 
REMARK    3  A    between atoms: C10_11  and  O11_12 
REMARK    4  A    between atoms: C16_18  and  O17_19 
REMARK    5  A    between atoms: C19_22  and  O20_23 
ROOT
HETATM    1  O1          0      32.057 115.976  -2.356  1.00  0.00    -0.286 OA
HETATM    2  C2          0      32.805 116.199  -1.365  1.00  0.00     0.201 C 
HETATM    3  C3          0      32.746 117.370  -0.629  1.00  0.00     0.067 C 
HETATM    4  C4          0      33.650 117.634   0.394  1.00  0.00     0.103 C 
HETATM    5  O13         0      34.571 116.730   0.676  1.00  0.00    -0.307 OA
HETATM    6  C14         0      34.694 115.618  -0.016  1.00  0.00     0.107 C 
HETATM    7  C15         0      35.864 114.873   0.000  1.00  0.00     0.049 C 
HETATM    8  C16         0      36.082 113.852  -0.917  1.00  0.00     0.093 C 
HETATM    9  C18         0      34.931 113.287  -1.450  1.00  0.00     0.048 C 
HETATM   10  C19         0      33.731 113.986  -1.440  1.00  0.00     0.096 C 
HETATM   11  C21         0      33.679 115.236  -0.886  1.00  0.00     0.084 C 
ENDROOT
BRANCH  10  12
HETATM   12  O20         0      32.726 113.625  -2.332  1.00  0.00    -0.359 OA
HETATM   13  H20         0      32.934 112.984  -3.002  1.00  0.00     0.218 HD
ENDBRANCH  10  12
BRANCH   4  14
HETATM   14  C5          0      33.926 119.040   0.698  1.00  0.00     0.025 C 
HETATM   15  C6          0      32.928 120.000   0.786  1.00  0.00     0.004 C 
HETATM   16  C7          0      33.056 120.974   1.771  1.00  0.00     0.026 C 
HETATM   17  C8          0      34.201 121.073   2.555  1.00  0.00     0.112 C 
HETATM   18  C10         0      35.341 120.518   1.989  1.00  0.00     0.112 C 
HETATM   19  C12         0      35.187 119.487   1.069  1.00  0.00     0.028 C 
BRANCH  17  20
HETATM   20  O9          0      34.125 121.500   3.869  1.00  0.00    -0.357 OA
HETATM   21  H9          0      33.340 121.866   4.260  1.00  0.00     0.218 HD
ENDBRANCH  17  20
BRANCH  18  22
HETATM   22  O11         0      36.544 120.754   2.639  1.00  0.00    -0.357 OA
HETATM   23  H11         0      36.722 120.235   3.415  1.00  0.00     0.218 HD
ENDBRANCH  18  22
ENDBRANCH   4  14
BRANCH   8  24
HETATM   24  O17         0      37.339 113.651  -1.500  1.00  0.00    -0.359 OA
HETATM   25  H17         0      37.437 113.497  -2.432  1.00  0.00     0.218 HD
ENDBRANCH   8  24
TORSDOF 5
ENDMDL
MODEL 9
REMARK VINA RESULT:      -4.5     13.379     15.414
REMARK  5 active torsions:
REMARK  status: ('A' for Active; 'I' for Inactive)
REMARK    1  A    between atoms: C4_4  and  C5_5 
REMARK    2  A    between atoms: C8_8  and  O9_9 
REMARK    3  A    between atoms: C10_11  and  O11_12 
REMARK    4  A    between atoms: C16_18  and  O17_19 
REMARK    5  A    between atoms: C19_22  and  O20_23 
ROOT
HETATM    1  O1          0      23.697 125.563   3.782  1.00  0.00    -0.286 OA
HETATM    2  C2          0      23.982 124.398   3.391  1.00  0.00     0.201 C 
HETATM    3  C3          0      23.038 123.392   3.279  1.00  0.00     0.067 C 
HETATM    4  C4          0      23.396 122.091   2.944  1.00  0.00     0.103 C 
HETATM    5  O13         0      24.668 121.823   2.709  1.00  0.00    -0.307 OA
HETATM    6  C14         0      25.609 122.732   2.838  1.00  0.00     0.107 C 
HETATM    7  C15         0      26.945 122.387   2.988  1.00  0.00     0.049 C 
HETATM    8  C16         0      27.894 123.325   3.375  1.00  0.00     0.093 C 
HETATM    9  C18         0      27.568 124.644   3.085  1.00  0.00     0.048 C 
HETATM   10  C19         0      26.246 125.016   2.882  1.00  0.00     0.096 C 
HETATM   11  C21         0      25.257 124.073   2.953  1.00  0.00     0.084 C 
ENDROOT
BRANCH  10  12
HETATM   12  O20         0      25.885 126.352   3.028  1.00  0.00    -0.359 OA
HETATM   13  H20         0      26.502 127.014   2.741  1.00  0.00     0.218 HD
ENDBRANCH  10  12
BRANCH   4  14
HETATM   14  C5          0      22.525 121.013   3.418  1.00  0.00     0.025 C 
HETATM   15  C6          0      21.595 120.385   2.603  1.00  0.00     0.004 C 
HETATM   16  C7          0      21.421 119.014   2.762  1.00  0.00     0.026 C 
HETATM   17  C8          0      22.050 118.312   3.785  1.00  0.00     0.112 C 
HETATM   18  C10         0      22.418 119.086   4.877  1.00  0.00     0.112 C 
HETATM   19  C12         0      22.669 120.438   4.674  1.00  0.00     0.028 C 
BRANCH  17  20
HETATM   20  O9          0      22.449 117.000   3.603  1.00  0.00    -0.357 OA
HETATM   21  H9          0      21.853 116.292   3.388  1.00  0.00     0.218 HD
ENDBRANCH  17  20
BRANCH  18  22
HETATM   22  O11         0      22.875 118.411   6.000  1.00  0.00    -0.357 OA
HETATM   23  H11         0      22.684 118.802   6.844  1.00  0.00     0.218 HD
ENDBRANCH  18  22
ENDBRANCH   4  14
BRANCH   8  24
HETATM   24  O17         0      28.915 123.000   4.276  1.00  0.00    -0.359 OA
HETATM   25  H17         0      28.769 122.407   5.003  1.00  0.00     0.218 HD
ENDBRANCH   8  24
TORSDOF 5
ENDMDL
