MODEL 1
REMARK VINA RESULT:      -0.0      0.000      0.000
REMARK  5 active torsions:
REMARK  status: ('A' for Active; 'I' for Inactive)
REMARK    1  A    between atoms: C4_4  and  C5_5 
REMARK    2  A    between atoms: C8_8  and  O9_9 
REMARK    3  A    between atoms: C10_11  and  O11_12 
REMARK    4  A    between atoms: C16_18  and  O17_19 
REMARK    5  A    between atoms: C19_22  and  O20_23 
ROOT
HETATM    1  O1          0      30.355 105.185  40.882  1.00  0.00    -0.286 OA
HETATM    2  C2          0      29.962 106.244  40.319  1.00  0.00     0.201 C 
HETATM    3  C3          0      29.493 107.339  41.024  1.00  0.00     0.067 C 
HETATM    4  C4          0      28.970 108.453  40.377  1.00  0.00     0.103 C 
HETATM    5  O13         0      28.942 108.464  39.056  1.00  0.00    -0.307 OA
HETATM    6  C14         0      29.340 107.436  38.339  1.00  0.00     0.107 C 
HETATM    7  C15         0      28.953 107.274  37.017  1.00  0.00     0.049 C 
HETATM    8  C16         0      29.160 106.074  36.347  1.00  0.00     0.093 C 
HETATM    9  C18         0      30.193 105.292  36.848  1.00  0.00     0.048 C 
HETATM   10  C19         0      30.636 105.460  38.153  1.00  0.00     0.096 C 
HETATM   11  C21         0      30.062 106.414  38.947  1.00  0.00     0.084 C 
ENDROOT
BRANCH  10  12
HETATM   12  O20         0      31.332 104.427  38.774  1.00  0.00    -0.359 OA
HETATM   13  H20         0      32.170 104.172  38.408  1.00  0.00     0.218 HD
ENDBRANCH  10  12
BRANCH   4  14
HETATM   14  C5          0      27.987 109.253  41.110  1.00  0.00     0.025 C 
HETATM   15  C6          0      27.014 110.013  40.477  1.00  0.00     0.004 C 
HETATM   16  C7          0      25.751 110.057  41.059  1.00  0.00     0.026 C 
HETATM   17  C8          0      25.498 109.478  42.298  1.00  0.00     0.112 C 
HETATM   18  C10         0      26.618 109.321  43.104  1.00  0.00     0.112 C 
HETATM   19  C12         0      27.859 109.193  42.491  1.00  0.00     0.028 C 
BRANCH  17  20
HETATM   20  O9          0      24.263 108.924  42.582  1.00  0.00    -0.357 OA
HETATM   21  H9          0      23.578 108.799  41.935  1.00  0.00     0.218 HD
ENDBRANCH  17  20
BRANCH  18  22
HETATM   22  O11         0      26.398 108.925  44.415  1.00  0.00    -0.357 OA
HETATM   23  H11         0      26.562 109.571  45.093  1.00  0.00     0.218 HD
ENDBRANCH  18  22
ENDBRANCH   4  14
BRANCH   8  24
HETATM   24  O17         0      28.199 105.551  35.474  1.00  0.00    -0.359 OA
HETATM   25  H17         0      27.338 105.943  35.387  1.00  0.00     0.218 HD
ENDBRANCH   8  24
TORSDOF 5
ENDMDL
MODEL 2
REMARK VINA RESULT:      -0.0      6.724      9.492
REMARK  5 active torsions:
REMARK  status: ('A' for Active; 'I' for Inactive)
REMARK    1  A    between atoms: C4_4  and  C5_5 
REMARK    2  A    between atoms: C8_8  and  O9_9 
REMARK    3  A    between atoms: C10_11  and  O11_12 
REMARK    4  A    between atoms: C16_18  and  O17_19 
REMARK    5  A    between atoms: C19_22  and  O20_23 
ROOT
HETATM    1  O1          0      30.796 111.714  49.609  1.00  0.00    -0.286 OA
HETATM    2  C2          0      30.370 111.334  48.484  1.00  0.00     0.201 C 
HETATM    3  C3          0      29.903 110.051  48.253  1.00  0.00     0.067 C 
HETATM    4  C4          0      29.536 109.628  46.981  1.00  0.00     0.103 C 
HETATM    5  O13         0      29.619 110.485  45.978  1.00  0.00    -0.307 OA
HETATM    6  C14         0      30.090 111.702  46.136  1.00  0.00     0.107 C 
HETATM    7  C15         0      30.550 112.453  45.064  1.00  0.00     0.049 C 
HETATM    8  C16         0      31.275 113.622  45.260  1.00  0.00     0.093 C 
HETATM    9  C18         0      31.054 114.253  46.478  1.00  0.00     0.048 C 
HETATM   10  C19         0      30.550 113.542  47.559  1.00  0.00     0.096 C 
HETATM   11  C21         0      30.253 112.214  47.419  1.00  0.00     0.084 C 
ENDROOT
BRANCH  10  12
HETATM   12  O20         0      30.740 114.036  48.846  1.00  0.00    -0.359 OA
HETATM   13  H20         0      30.231 113.651  49.550  1.00  0.00     0.218 HD
ENDBRANCH  10  12
BRANCH   4  14
HETATM   14  C5          0      29.642 108.196  46.695  1.00  0.00     0.025 C 
HETATM   15  C6          0      29.842 107.698  45.415  1.00  0.00     0.004 C 
HETATM   16  C7          0      30.682 106.598  45.276  1.00  0.00     0.026 C 
HETATM   17  C8          0      31.201 105.932  46.381  1.00  0.00     0.112 C 
HETATM   18  C10         0      30.467 106.089  47.550  1.00  0.00     0.112 C 
HETATM   19  C12         0      29.701 107.239  47.699  1.00  0.00     0.028 C 
BRANCH  17  20
HETATM   20  O9          0      32.455 105.350  46.334  1.00  0.00    -0.357 OA
HETATM   21  H9          0      32.622 104.438  46.545  1.00  0.00     0.218 HD
ENDBRANCH  17  20
BRANCH  18  22
HETATM   22  O11         0      30.830 105.298  48.631  1.00  0.00    -0.357 OA
HETATM   23  H11         0      30.164 104.718  48.982  1.00  0.00     0.218 HD
ENDBRANCH  18  22
ENDBRANCH   4  14
BRANCH   8  24
HETATM   24  O17         0      32.373 113.943  44.454  1.00  0.00    -0.359 OA
HETATM   25  H17         0      32.673 114.839  44.353  1.00  0.00     0.218 HD
ENDBRANCH   8  24
TORSDOF 5
ENDMDL
MODEL 3
REMARK VINA RESULT:       0.0      2.970      5.307
REMARK  5 active torsions:
REMARK  status: ('A' for Active; 'I' for Inactive)
REMARK    1  A    between atoms: C4_4  and  C5_5 
REMARK    2  A    between atoms: C8_8  and  O9_9 
REMARK    3  A    between atoms: C10_11  and  O11_12 
REMARK    4  A    between atoms: C16_18  and  O17_19 
REMARK    5  A    between atoms: C19_22  and  O20_23 
ROOT
HETATM    1  O1          0      33.315 107.756  38.490  1.00  0.00    -0.286 OA
HETATM    2  C2          0      32.277 107.469  39.147  1.00  0.00     0.201 C 
HETATM    3  C3          0      31.044 107.264  38.550  1.00  0.00     0.067 C 
HETATM    4  C4          0      29.896 107.051  39.305  1.00  0.00     0.103 C 
HETATM    5  O13         0      29.998 107.024  40.622  1.00  0.00    -0.307 OA
HETATM    6  C14         0      31.136 107.250  41.240  1.00  0.00     0.107 C 
HETATM    7  C15         0      31.182 107.617  42.577  1.00  0.00     0.049 C 
HETATM    8  C16         0      32.351 108.099  43.153  1.00  0.00     0.093 C 
HETATM    9  C18         0      33.524 107.699  42.524  1.00  0.00     0.048 C 
HETATM   10  C19         0      33.507 107.281  41.200  1.00  0.00     0.096 C 
HETATM   11  C21         0      32.323 107.246  40.514  1.00  0.00     0.084 C 
ENDROOT
BRANCH  10  12
HETATM   12  O20         0      34.687 107.306  40.463  1.00  0.00    -0.359 OA
HETATM   13  H20         0      34.674 107.736  39.617  1.00  0.00     0.218 HD
ENDBRANCH  10  12
BRANCH   4  14
HETATM   14  C5          0      28.618 107.438  38.704  1.00  0.00     0.025 C 
HETATM   15  C6          0      27.511 107.796  39.458  1.00  0.00     0.004 C 
HETATM   16  C7          0      26.715 108.834  38.983  1.00  0.00     0.026 C 
HETATM   17  C8          0      26.934 109.408  37.736  1.00  0.00     0.112 C 
HETATM   18  C10         0      27.609 108.597  36.834  1.00  0.00     0.112 C 
HETATM   19  C12         0      28.464 107.622  37.336  1.00  0.00     0.028 C 
BRANCH  17  20
HETATM   20  O9          0      26.676 110.750  37.518  1.00  0.00    -0.357 OA
HETATM   21  H9          0      27.267 111.449  37.774  1.00  0.00     0.218 HD
ENDBRANCH  17  20
BRANCH  18  22
HETATM   22  O11         0      27.687 109.043  35.523  1.00  0.00    -0.357 OA
HETATM   23  H11         0      27.714 108.379  34.844  1.00  0.00     0.218 HD
ENDBRANCH  18  22
ENDBRANCH   4  14
BRANCH   8  24
HETATM   24  O17         0      32.331 109.158  44.067  1.00  0.00    -0.359 OA
HETATM   25  H17         0      31.560 109.356  44.585  1.00  0.00     0.218 HD
ENDBRANCH   8  24
TORSDOF 5
ENDMDL
MODEL 4
REMARK VINA RESULT:       0.0      3.213      5.281
REMARK  5 active torsions:
REMARK  status: ('A' for Active; 'I' for Inactive)
REMARK    1  A    between atoms: C4_4  and  C5_5 
REMARK    2  A    between atoms: C8_8  and  O9_9 
REMARK    3  A    between atoms: C10_11  and  O11_12 
REMARK    4  A    between atoms: C16_18  and  O17_19 
REMARK    5  A    between atoms: C19_22  and  O20_23 
ROOT
HETATM    1  O1          0      27.621 108.835  38.537  1.00  0.00    -0.286 OA
HETATM    2  C2          0      27.486 107.680  39.024  1.00  0.00     0.201 C 
HETATM    3  C3          0      28.108 107.282  40.196  1.00  0.00     0.067 C 
HETATM    4  C4          0      28.026 105.973  40.656  1.00  0.00     0.103 C 
HETATM    5  O13         0      27.319 105.099  39.962  1.00  0.00    -0.307 OA
HETATM    6  C14         0      26.740 105.414  38.824  1.00  0.00     0.107 C 
HETATM    7  C15         0      26.351 104.447  37.909  1.00  0.00     0.049 C 
HETATM    8  C16         0      25.979 104.786  36.614  1.00  0.00     0.093 C 
HETATM    9  C18         0      25.514 106.086  36.458  1.00  0.00     0.048 C 
HETATM   10  C19         0      25.846 107.069  37.381  1.00  0.00     0.096 C 
HETATM   11  C21         0      26.623 106.752  38.461  1.00  0.00     0.084 C 
ENDROOT
BRANCH  10  12
HETATM   12  O20         0      25.760 108.408  37.010  1.00  0.00    -0.359 OA
HETATM   13  H20         0      26.065 109.061  37.627  1.00  0.00     0.218 HD
ENDBRANCH  10  12
BRANCH   4  14
HETATM   14  C5          0      29.127 105.486  41.489  1.00  0.00     0.025 C 
HETATM   15  C6          0      29.473 104.145  41.569  1.00  0.00     0.004 C 
HETATM   16  C7          0      30.826 103.831  41.642  1.00  0.00     0.026 C 
HETATM   17  C8          0      31.798 104.818  41.767  1.00  0.00     0.112 C 
HETATM   18  C10         0      31.343 106.015  42.304  1.00  0.00     0.112 C 
HETATM   19  C12         0      30.002 106.344  42.143  1.00  0.00     0.028 C 
BRANCH  17  20
HETATM   20  O9          0      33.048 104.658  41.196  1.00  0.00    -0.357 OA
HETATM   21  H9          0      33.330 105.108  40.408  1.00  0.00     0.218 HD
ENDBRANCH  17  20
BRANCH  18  22
HETATM   22  O11         0      32.302 106.965  42.625  1.00  0.00    -0.357 OA
HETATM   23  H11         0      32.596 106.991  43.528  1.00  0.00     0.218 HD
ENDBRANCH  18  22
ENDBRANCH   4  14
BRANCH   8  24
HETATM   24  O17         0      26.361 104.005  35.517  1.00  0.00    -0.359 OA
HETATM   25  H17         0      26.462 104.379  34.649  1.00  0.00     0.218 HD
ENDBRANCH   8  24
TORSDOF 5
ENDMDL
MODEL 5
REMARK VINA RESULT:       0.0      4.193      7.040
REMARK  5 active torsions:
REMARK  status: ('A' for Active; 'I' for Inactive)
REMARK    1  A    between atoms: C4_4  and  C5_5 
REMARK    2  A    between atoms: C8_8  and  O9_9 
REMARK    3  A    between atoms: C10_11  and  O11_12 
REMARK    4  A    between atoms: C16_18  and  O17_19 
REMARK    5  A    between atoms: C19_22  and  O20_23 
ROOT
HETATM    1  O1          0      23.424 110.427  44.139  1.00  0.00    -0.286 OA
HETATM    2  C2          0      24.244 110.365  43.182  1.00  0.00     0.201 C 
HETATM    3  C3          0      23.856 110.442  41.855  1.00  0.00     0.067 C 
HETATM    4  C4          0      24.767 110.267  40.819  1.00  0.00     0.103 C 
HETATM    5  O13         0      26.034 110.043  41.118  1.00  0.00    -0.307 OA
HETATM    6  C14         0      26.448 109.924  42.360  1.00  0.00     0.107 C 
HETATM    7  C15         0      27.651 109.307  42.674  1.00  0.00     0.049 C 
HETATM    8  C16         0      27.963 108.957  43.982  1.00  0.00     0.093 C 
HETATM    9  C18         0      27.311 109.699  44.960  1.00  0.00     0.048 C 
HETATM   10  C19         0      26.130 110.367  44.668  1.00  0.00     0.096 C 
HETATM   11  C21         0      25.612 110.309  43.403  1.00  0.00     0.084 C 
ENDROOT
BRANCH  10  12
HETATM   12  O20         0      25.276 110.725  45.706  1.00  0.00    -0.359 OA
HETATM   13  H20         0      25.658 111.120  46.481  1.00  0.00     0.218 HD
ENDBRANCH  10  12
BRANCH   4  14
HETATM   14  C5          0      24.244 109.768  39.545  1.00  0.00     0.025 C 
HETATM   15  C6          0      25.019 109.053  38.643  1.00  0.00     0.004 C 
HETATM   16  C7          0      24.414 107.999  37.967  1.00  0.00     0.026 C 
HETATM   17  C8          0      23.051 107.746  38.081  1.00  0.00     0.112 C 
HETATM   18  C10         0      22.288 108.841  38.465  1.00  0.00     0.112 C 
HETATM   19  C12         0      22.898 109.841  39.213  1.00  0.00     0.028 C 
BRANCH  17  20
HETATM   20  O9          0      22.562 106.453  38.019  1.00  0.00    -0.357 OA
HETATM   21  H9          0      23.114 105.679  38.026  1.00  0.00     0.218 HD
ENDBRANCH  17  20
BRANCH  18  22
HETATM   22  O11         0      20.909 108.696  38.411  1.00  0.00    -0.357 OA
HETATM   23  H11         0      20.575 107.912  37.990  1.00  0.00     0.218 HD
ENDBRANCH  18  22
ENDBRANCH   4  14
BRANCH   8  24
HETATM   24  O17         0      28.606 107.750  44.280  1.00  0.00    -0.359 OA
HETATM   25  H17         0      28.256 106.915  43.995  1.00  0.00     0.218 HD
ENDBRANCH   8  24
TORSDOF 5
ENDMDL
MODEL 6
REMARK VINA RESULT:       0.0      8.910     11.474
REMARK  5 active torsions:
REMARK  status: ('A' for Active; 'I' for Inactive)
REMARK    1  A    between atoms: C4_4  and  C5_5 
REMARK    2  A    between atoms: C8_8  and  O9_9 
REMARK    3  A    between atoms: C10_11  and  O11_12 
REMARK    4  A    between atoms: C16_18  and  O17_19 
REMARK    5  A    between atoms: C19_22  and  O20_23 
ROOT
HETATM    1  O1          0      36.451 111.686  34.090  1.00  0.00    -0.286 OA
HETATM    2  C2          0      37.137 110.845  34.734  1.00  0.00     0.201 C 
HETATM    3  C3          0      37.192 109.504  34.394  1.00  0.00     0.067 C 
HETATM    4  C4          0      37.873 108.581  35.181  1.00  0.00     0.103 C 
HETATM    5  O13         0      38.495 109.008  36.265  1.00  0.00    -0.307 OA
HETATM    6  C14         0      38.443 110.263  36.653  1.00  0.00     0.107 C 
HETATM    7  C15         0      38.736 110.639  37.956  1.00  0.00     0.049 C 
HETATM    8  C16         0      38.437 111.912  38.425  1.00  0.00     0.093 C 
HETATM    9  C18         0      38.349 112.893  37.445  1.00  0.00     0.048 C 
HETATM   10  C19         0      38.103 112.549  36.123  1.00  0.00     0.096 C 
HETATM   11  C21         0      37.963 111.232  35.779  1.00  0.00     0.084 C 
ENDROOT
BRANCH  10  12
HETATM   12  O20         0      37.592 113.508  35.254  1.00  0.00    -0.359 OA
HETATM   13  H20         0      37.700 113.367  34.321  1.00  0.00     0.218 HD
ENDBRANCH  10  12
BRANCH   4  14
HETATM   14  C5          0      37.413 107.192  35.132  1.00  0.00     0.025 C 
HETATM   15  C6          0      37.587 106.305  36.185  1.00  0.00     0.004 C 
HETATM   16  C7          0      36.555 105.411  36.452  1.00  0.00     0.026 C 
HETATM   17  C8          0      35.445 105.309  35.621  1.00  0.00     0.112 C 
HETATM   18  C10         0      35.654 105.744  34.318  1.00  0.00     0.112 C 
HETATM   19  C12         0      36.635 106.702  34.091  1.00  0.00     0.028 C 
BRANCH  17  20
HETATM   20  O9          0      34.199 104.999  36.136  1.00  0.00    -0.357 OA
HETATM   21  H9          0      34.033 104.256  36.705  1.00  0.00     0.218 HD
ENDBRANCH  17  20
BRANCH  18  22
HETATM   22  O11         0      34.643 105.491  33.402  1.00  0.00    -0.357 OA
HETATM   23  H11         0      34.805 105.747  32.501  1.00  0.00     0.218 HD
ENDBRANCH  18  22
ENDBRANCH   4  14
BRANCH   8  24
HETATM   24  O17         0      37.935 112.115  39.716  1.00  0.00    -0.359 OA
HETATM   25  H17         0      37.094 112.529  39.865  1.00  0.00     0.218 HD
ENDBRANCH   8  24
TORSDOF 5
ENDMDL
MODEL 7
REMARK VINA RESULT:       0.0      7.582      8.387
REMARK  5 active torsions:
REMARK  status: ('A' for Active; 'I' for Inactive)
REMARK    1  A    between atoms: C4_4  and  C5_5 
REMARK    2  A    between atoms: C8_8  and  O9_9 
REMARK    3  A    between atoms: C10_11  and  O11_12 
REMARK    4  A    between atoms: C16_18  and  O17_19 
REMARK    5  A    between atoms: C19_22  and  O20_23 
ROOT
HETATM    1  O1          0      33.868 110.907  41.927  1.00  0.00    -0.286 OA
HETATM    2  C2          0      33.908 111.623  40.889  1.00  0.00     0.201 C 
HETATM    3  C3          0      34.611 112.814  40.824  1.00  0.00     0.067 C 
HETATM    4  C4          0      34.555 113.633  39.703  1.00  0.00     0.103 C 
HETATM    5  O13         0      33.826 113.248  38.671  1.00  0.00    -0.307 OA
HETATM    6  C14         0      33.109 112.145  38.694  1.00  0.00     0.107 C 
HETATM    7  C15         0      32.057 111.938  37.813  1.00  0.00     0.049 C 
HETATM    8  C16         0      31.151 110.902  38.002  1.00  0.00     0.093 C 
HETATM    9  C18         0      31.632 109.828  38.741  1.00  0.00     0.048 C 
HETATM   10  C19         0      32.713 109.989  39.597  1.00  0.00     0.096 C 
HETATM   11  C21         0      33.320 111.211  39.702  1.00  0.00     0.084 C 
ENDROOT
BRANCH  10  12
HETATM   12  O20         0      32.908 109.073  40.626  1.00  0.00    -0.359 OA
HETATM   13  H20         0      32.218 108.444  40.799  1.00  0.00     0.218 HD
ENDBRANCH  10  12
BRANCH   4  14
HETATM   14  C5          0      34.786 115.064  39.907  1.00  0.00     0.025 C 
HETATM   15  C6          0      34.258 116.038  39.072  1.00  0.00     0.004 C 
HETATM   16  C7          0      33.810 117.217  39.659  1.00  0.00     0.026 C 
HETATM   17  C8          0      34.002 117.477  41.011  1.00  0.00     0.112 C 
HETATM   18  C10         0      35.053 116.780  41.592  1.00  0.00     0.112 C 
HETATM   19  C12         0      35.425 115.562  41.036  1.00  0.00     0.028 C 
BRANCH  17  20
HETATM   20  O9          0      33.074 118.209  41.731  1.00  0.00    -0.357 OA
HETATM   21  H9          0      33.147 119.143  41.891  1.00  0.00     0.218 HD
ENDBRANCH  17  20
BRANCH  18  22
HETATM   22  O11         0      35.407 117.140  42.885  1.00  0.00    -0.357 OA
HETATM   23  H11         0      34.849 116.826  43.587  1.00  0.00     0.218 HD
ENDBRANCH  18  22
ENDBRANCH   4  14
BRANCH   8  24
HETATM   24  O17         0      29.783 111.078  37.766  1.00  0.00    -0.359 OA
HETATM   25  H17         0      29.158 110.376  37.904  1.00  0.00     0.218 HD
ENDBRANCH   8  24
TORSDOF 5
ENDMDL
MODEL 8
REMARK VINA RESULT:       0.0      7.643      8.546
REMARK  5 active torsions:
REMARK  status: ('A' for Active; 'I' for Inactive)
REMARK    1  A    between atoms: C4_4  and  C5_5 
REMARK    2  A    between atoms: C8_8  and  O9_9 
REMARK    3  A    between atoms: C10_11  and  O11_12 
REMARK    4  A    between atoms: C16_18  and  O17_19 
REMARK    5  A    between atoms: C19_22  and  O20_23 
ROOT
HETATM    1  O1          0      34.710 109.672  41.133  1.00  0.00    -0.286 OA
HETATM    2  C2          0      35.094 110.165  40.037  1.00  0.00     0.201 C 
HETATM    3  C3          0      35.811 111.346  39.956  1.00  0.00     0.067 C 
HETATM    4  C4          0      36.132 111.920  38.731  1.00  0.00     0.103 C 
HETATM    5  O13         0      35.756 111.305  37.623  1.00  0.00    -0.307 OA
HETATM    6  C14         0      35.041 110.202  37.645  1.00  0.00     0.107 C 
HETATM    7  C15         0      34.316 109.779  36.540  1.00  0.00     0.049 C 
HETATM    8  C16         0      33.370 108.767  36.642  1.00  0.00     0.093 C 
HETATM    9  C18         0      33.566 107.884  37.697  1.00  0.00     0.048 C 
HETATM   10  C19         0      34.326 108.258  38.797  1.00  0.00     0.096 C 
HETATM   11  C21         0      34.899 109.499  38.836  1.00  0.00     0.084 C 
ENDROOT
BRANCH  10  12
HETATM   12  O20         0      34.163 107.576  40.000  1.00  0.00    -0.359 OA
HETATM   13  H20         0      33.437 106.967  40.071  1.00  0.00     0.218 HD
ENDBRANCH  10  12
BRANCH   4  14
HETATM   14  C5          0      36.324 113.371  38.701  1.00  0.00     0.025 C 
HETATM   15  C6          0      36.111 114.135  37.563  1.00  0.00     0.004 C 
HETATM   16  C7          0      35.530 115.388  37.726  1.00  0.00     0.026 C 
HETATM   17  C8          0      35.293 115.923  38.988  1.00  0.00     0.112 C 
HETATM   18  C10         0      36.088 115.400  39.999  1.00  0.00     0.112 C 
HETATM   19  C12         0      36.586 114.111  39.847  1.00  0.00     0.028 C 
BRANCH  17  20
HETATM   20  O9          0      34.204 116.746  39.216  1.00  0.00    -0.357 OA
HETATM   21  H9          0      33.314 116.428  39.318  1.00  0.00     0.218 HD
ENDBRANCH  17  20
BRANCH  18  22
HETATM   22  O11         0      36.027 116.027  41.235  1.00  0.00    -0.357 OA
HETATM   23  H11         0      35.268 115.838  41.775  1.00  0.00     0.218 HD
ENDBRANCH  18  22
ENDBRANCH   4  14
BRANCH   8  24
HETATM   24  O17         0      32.151 108.836  35.958  1.00  0.00    -0.359 OA
HETATM   25  H17         0      32.085 108.625  35.034  1.00  0.00     0.218 HD
ENDBRANCH   8  24
TORSDOF 5
ENDMDL
MODEL 9
REMARK VINA RESULT:       0.0      3.430      7.346
REMARK  5 active torsions:
REMARK  status: ('A' for Active; 'I' for Inactive)
REMARK    1  A    between atoms: C4_4  and  C5_5 
REMARK    2  A    between atoms: C8_8  and  O9_9 
REMARK    3  A    between atoms: C10_11  and  O11_12 
REMARK    4  A    between atoms: C16_18  and  O17_19 
REMARK    5  A    between atoms: C19_22  and  O20_23 
ROOT
HETATM    1  O1          0      23.421 111.386  40.420  1.00  0.00    -0.286 OA
HETATM    2  C2          0      24.582 111.295  39.936  1.00  0.00     0.201 C 
HETATM    3  C3          0      24.823 110.872  38.640  1.00  0.00     0.067 C 
HETATM    4  C4          0      26.115 110.682  38.164  1.00  0.00     0.103 C 
HETATM    5  O13         0      27.132 110.933  38.970  1.00  0.00    -0.307 OA
HETATM    6  C14         0      26.958 111.301  40.220  1.00  0.00     0.107 C 
HETATM    7  C15         0      27.967 111.179  41.165  1.00  0.00     0.049 C 
HETATM    8  C16         0      27.707 111.325  42.522  1.00  0.00     0.093 C 
HETATM    9  C18         0      26.588 112.092  42.826  1.00  0.00     0.048 C 
HETATM   10  C19         0      25.581 112.273  41.887  1.00  0.00     0.096 C 
HETATM   11  C21         0      25.698 111.707  40.647  1.00  0.00     0.084 C 
ENDROOT
BRANCH  10  12
HETATM   12  O20         0      24.311 112.648  42.316  1.00  0.00    -0.359 OA
HETATM   13  H20         0      23.772 111.991  42.739  1.00  0.00     0.218 HD
ENDBRANCH  10  12
BRANCH   4  14
HETATM   14  C5          0      26.295 109.709  37.085  1.00  0.00     0.025 C 
HETATM   15  C6          0      27.485 109.025  36.880  1.00  0.00     0.004 C 
HETATM   16  C7          0      27.402 107.692  36.489  1.00  0.00     0.026 C 
HETATM   17  C8          0      26.184 107.096  36.181  1.00  0.00     0.112 C 
HETATM   18  C10         0      25.184 107.983  35.805  1.00  0.00     0.112 C 
HETATM   19  C12         0      25.245 109.287  36.280  1.00  0.00     0.028 C 
BRANCH  17  20
HETATM   20  O9          0      25.964 105.756  36.444  1.00  0.00    -0.357 OA
HETATM   21  H9          0      26.649 105.149  36.699  1.00  0.00     0.218 HD
ENDBRANCH  17  20
BRANCH  18  22
HETATM   22  O11         0      24.011 107.432  35.307  1.00  0.00    -0.357 OA
HETATM   23  H11         0      23.899 106.494  35.409  1.00  0.00     0.218 HD
ENDBRANCH  18  22
ENDBRANCH   4  14
BRANCH   8  24
HETATM   24  O17         0      28.312 110.497  43.474  1.00  0.00    -0.359 OA
HETATM   25  H17         0      28.447 109.571  43.315  1.00  0.00     0.218 HD
ENDBRANCH   8  24
TORSDOF 5
ENDMDL
