MODEL 1
REMARK VINA RESULT:      -0.0      0.000      0.000
REMARK  5 active torsions:
REMARK  status: ('A' for Active; 'I' for Inactive)
REMARK    1  A    between atoms: C4_4  and  C5_5 
REMARK    2  A    between atoms: C8_8  and  O9_9 
REMARK    3  A    between atoms: C10_11  and  O11_12 
REMARK    4  A    between atoms: C16_18  and  O17_19 
REMARK    5  A    between atoms: C19_22  and  O20_23 
ROOT
HETATM    1  O1          0       9.173   0.373  48.009  1.00  0.00    -0.286 OA
HETATM    2  C2          0       9.466   0.608  46.805  1.00  0.00     0.201 C 
HETATM    3  C3          0      10.688   0.267  46.250  1.00  0.00     0.067 C 
HETATM    4  C4          0      11.024   0.629  44.950  1.00  0.00     0.103 C 
HETATM    5  O13         0      10.141   1.297  44.229  1.00  0.00    -0.307 OA
HETATM    6  C14         0       8.982   1.677  44.719  1.00  0.00     0.107 C 
HETATM    7  C15         0       8.238   2.692  44.134  1.00  0.00     0.049 C 
HETATM    8  C16         0       7.153   3.261  44.790  1.00  0.00     0.093 C 
HETATM    9  C18         0       6.552   2.449  45.744  1.00  0.00     0.048 C 
HETATM   10  C19         0       7.252   1.396  46.316  1.00  0.00     0.096 C 
HETATM   11  C21         0       8.539   1.144  45.925  1.00  0.00     0.084 C 
ENDROOT
BRANCH  10  12
HETATM   12  O20         0       6.829   0.881  47.538  1.00  0.00    -0.359 OA
HETATM   13  H20         0       5.898   0.747  47.666  1.00  0.00     0.218 HD
ENDBRANCH  10  12
BRANCH   4  14
HETATM   14  C5          0      12.447   0.788  44.645  1.00  0.00     0.025 C 
HETATM   15  C6          0      12.913   1.623  43.640  1.00  0.00     0.004 C 
HETATM   16  C7          0      14.082   2.336  43.885  1.00  0.00     0.026 C 
HETATM   17  C8          0      14.838   2.126  45.033  1.00  0.00     0.112 C 
HETATM   18  C10         0      14.657   0.884  45.627  1.00  0.00     0.112 C 
HETATM   19  C12         0      13.444   0.232  45.436  1.00  0.00     0.028 C 
BRANCH  17  20
HETATM   20  O9          0      15.537   3.165  45.622  1.00  0.00    -0.357 OA
HETATM   21  H9          0      15.161   4.019  45.799  1.00  0.00     0.218 HD
ENDBRANCH  17  20
BRANCH  18  22
HETATM   22  O11         0      15.520   0.550  46.661  1.00  0.00    -0.357 OA
HETATM   23  H11         0      15.818  -0.352  46.698  1.00  0.00     0.218 HD
ENDBRANCH  18  22
ENDBRANCH   4  14
BRANCH   8  24
HETATM   24  O17         0       6.908   4.638  44.736  1.00  0.00    -0.359 OA
HETATM   25  H17         0       6.038   4.984  44.581  1.00  0.00     0.218 HD
ENDBRANCH   8  24
TORSDOF 5
ENDMDL
MODEL 2
REMARK VINA RESULT:      -0.0      6.064      7.520
REMARK  5 active torsions:
REMARK  status: ('A' for Active; 'I' for Inactive)
REMARK    1  A    between atoms: C4_4  and  C5_5 
REMARK    2  A    between atoms: C8_8  and  O9_9 
REMARK    3  A    between atoms: C10_11  and  O11_12 
REMARK    4  A    between atoms: C16_18  and  O17_19 
REMARK    5  A    between atoms: C19_22  and  O20_23 
ROOT
HETATM    1  O1          0       3.379   1.410  40.801  1.00  0.00    -0.286 OA
HETATM    2  C2          0       4.015   2.431  41.180  1.00  0.00     0.201 C 
HETATM    3  C3          0       4.740   3.230  40.311  1.00  0.00     0.067 C 
HETATM    4  C4          0       5.515   4.289  40.770  1.00  0.00     0.103 C 
HETATM    5  O13         0       5.538   4.544  42.066  1.00  0.00    -0.307 OA
HETATM    6  C14         0       4.899   3.795  42.937  1.00  0.00     0.107 C 
HETATM    7  C15         0       5.227   3.800  44.285  1.00  0.00     0.049 C 
HETATM    8  C16         0       4.731   2.833  45.152  1.00  0.00     0.093 C 
HETATM    9  C18         0       3.541   2.239  44.751  1.00  0.00     0.048 C 
HETATM   10  C19         0       3.159   2.257  43.416  1.00  0.00     0.096 C 
HETATM   11  C21         0       3.952   2.879  42.491  1.00  0.00     0.084 C 
ENDROOT
BRANCH  10  12
HETATM   12  O20         0       2.236   1.320  42.960  1.00  0.00    -0.359 OA
HETATM   13  H20         0       1.437   1.203  43.460  1.00  0.00     0.218 HD
ENDBRANCH  10  12
BRANCH   4  14
HETATM   14  C5          0       6.667   4.678  39.954  1.00  0.00     0.025 C 
HETATM   15  C6          0       7.793   5.290  40.487  1.00  0.00     0.004 C 
HETATM   16  C7          0       9.031   4.922  39.971  1.00  0.00     0.026 C 
HETATM   17  C8          0       9.142   4.075  38.874  1.00  0.00     0.112 C 
HETATM   18  C10         0       8.022   4.038  38.054  1.00  0.00     0.112 C 
HETATM   19  C12         0       6.784   4.328  38.615  1.00  0.00     0.028 C 
BRANCH  17  20
HETATM   20  O9          0      10.207   3.199  38.759  1.00  0.00    -0.357 OA
HETATM   21  H9          0      10.827   3.213  38.039  1.00  0.00     0.218 HD
ENDBRANCH  17  20
BRANCH  18  22
HETATM   22  O11         0       8.146   3.360  36.850  1.00  0.00    -0.357 OA
HETATM   23  H11         0       7.839   2.461  36.829  1.00  0.00     0.218 HD
ENDBRANCH  18  22
ENDBRANCH   4  14
BRANCH   8  24
HETATM   24  O17         0       5.532   2.273  46.154  1.00  0.00    -0.359 OA
HETATM   25  H17         0       5.194   2.101  47.025  1.00  0.00     0.218 HD
ENDBRANCH   8  24
TORSDOF 5
ENDMDL
MODEL 3
REMARK VINA RESULT:      -0.0      5.974      8.356
REMARK  5 active torsions:
REMARK  status: ('A' for Active; 'I' for Inactive)
REMARK    1  A    between atoms: C4_4  and  C5_5 
REMARK    2  A    between atoms: C8_8  and  O9_9 
REMARK    3  A    between atoms: C10_11  and  O11_12 
REMARK    4  A    between atoms: C16_18  and  O17_19 
REMARK    5  A    between atoms: C19_22  and  O20_23 
ROOT
HETATM    1  O1          0       4.413   1.326  39.314  1.00  0.00    -0.286 OA
HETATM    2  C2          0       5.090   2.304  39.733  1.00  0.00     0.201 C 
HETATM    3  C3          0       5.501   3.339  38.910  1.00  0.00     0.067 C 
HETATM    4  C4          0       6.334   4.352  39.373  1.00  0.00     0.103 C 
HETATM    5  O13         0       6.720   4.328  40.637  1.00  0.00    -0.307 OA
HETATM    6  C14         0       6.389   3.349  41.450  1.00  0.00     0.107 C 
HETATM    7  C15         0       7.092   3.102  42.621  1.00  0.00     0.049 C 
HETATM    8  C16         0       6.906   1.928  43.340  1.00  0.00     0.093 C 
HETATM    9  C18         0       5.674   1.312  43.151  1.00  0.00     0.048 C 
HETATM   10  C19         0       4.923   1.572  42.013  1.00  0.00     0.096 C 
HETATM   11  C21         0       5.391   2.455  41.078  1.00  0.00     0.084 C 
ENDROOT
BRANCH  10  12
HETATM   12  O20         0       3.946   0.663  41.621  1.00  0.00    -0.359 OA
HETATM   13  H20         0       3.037   0.929  41.690  1.00  0.00     0.218 HD
ENDBRANCH  10  12
BRANCH   4  14
HETATM   14  C5          0       7.185   5.022  38.389  1.00  0.00     0.025 C 
HETATM   15  C6          0       8.391   5.621  38.722  1.00  0.00     0.004 C 
HETATM   16  C7          0       9.442   5.500  37.818  1.00  0.00     0.026 C 
HETATM   17  C8          0       9.265   4.921  36.566  1.00  0.00     0.112 C 
HETATM   18  C10         0       7.958   4.943  36.097  1.00  0.00     0.112 C 
HETATM   19  C12         0       6.924   4.977  37.025  1.00  0.00     0.028 C 
BRANCH  17  20
HETATM   20  O9          0      10.284   4.205  35.965  1.00  0.00    -0.357 OA
HETATM   21  H9          0      10.269   3.262  35.848  1.00  0.00     0.218 HD
ENDBRANCH  17  20
BRANCH  18  22
HETATM   22  O11         0       7.756   4.551  34.781  1.00  0.00    -0.357 OA
HETATM   23  H11         0       6.960   4.067  34.594  1.00  0.00     0.218 HD
ENDBRANCH  18  22
ENDBRANCH   4  14
BRANCH   8  24
HETATM   24  O17         0       7.983   1.255  43.928  1.00  0.00    -0.359 OA
HETATM   25  H17         0       7.907   0.841  44.779  1.00  0.00     0.218 HD
ENDBRANCH   8  24
TORSDOF 5
ENDMDL
MODEL 4
REMARK VINA RESULT:      -0.0     10.951     13.763
REMARK  5 active torsions:
REMARK  status: ('A' for Active; 'I' for Inactive)
REMARK    1  A    between atoms: C4_4  and  C5_5 
REMARK    2  A    between atoms: C8_8  and  O9_9 
REMARK    3  A    between atoms: C10_11  and  O11_12 
REMARK    4  A    between atoms: C16_18  and  O17_19 
REMARK    5  A    between atoms: C19_22  and  O20_23 
ROOT
HETATM    1  O1          0      14.503   2.474  34.425  1.00  0.00    -0.286 OA
HETATM    2  C2          0      15.065   3.578  34.663  1.00  0.00     0.201 C 
HETATM    3  C3          0      14.527   4.525  35.518  1.00  0.00     0.067 C 
HETATM    4  C4          0      15.114   5.774  35.683  1.00  0.00     0.103 C 
HETATM    5  O13         0      16.223   6.047  35.018  1.00  0.00    -0.307 OA
HETATM    6  C14         0      16.754   5.199  34.166  1.00  0.00     0.107 C 
HETATM    7  C15         0      17.652   5.608  33.191  1.00  0.00     0.049 C 
HETATM    8  C16         0      18.011   4.769  32.143  1.00  0.00     0.093 C 
HETATM    9  C18         0      17.871   3.411  32.403  1.00  0.00     0.048 C 
HETATM   10  C19         0      17.016   2.969  33.403  1.00  0.00     0.096 C 
HETATM   11  C21         0      16.317   3.878  34.150  1.00  0.00     0.084 C 
ENDROOT
BRANCH  10  12
HETATM   12  O20         0      16.552   1.658  33.372  1.00  0.00    -0.359 OA
HETATM   13  H20         0      15.646   1.500  33.606  1.00  0.00     0.218 HD
ENDBRANCH  10  12
BRANCH   4  14
HETATM   14  C5          0      14.238   6.879  36.077  1.00  0.00     0.025 C 
HETATM   15  C6          0      14.512   8.203  35.768  1.00  0.00     0.004 C 
HETATM   16  C7          0      13.440   9.019  35.419  1.00  0.00     0.026 C 
HETATM   17  C8          0      12.126   8.573  35.505  1.00  0.00     0.112 C 
HETATM   18  C10         0      11.927   7.523  36.391  1.00  0.00     0.112 C 
HETATM   19  C12         0      12.993   6.671  36.656  1.00  0.00     0.028 C 
BRANCH  17  20
HETATM   20  O9          0      11.167   9.017  34.612  1.00  0.00    -0.357 OA
HETATM   21  H9          0      11.370   9.475  33.804  1.00  0.00     0.218 HD
ENDBRANCH  17  20
BRANCH  18  22
HETATM   22  O11         0      10.612   7.166  36.657  1.00  0.00    -0.357 OA
HETATM   23  H11         0      10.443   6.735  37.487  1.00  0.00     0.218 HD
ENDBRANCH  18  22
ENDBRANCH   4  14
BRANCH   8  24
HETATM   24  O17         0      18.169   5.256  30.841  1.00  0.00    -0.359 OA
HETATM   25  H17         0      18.874   4.958  30.278  1.00  0.00     0.218 HD
ENDBRANCH   8  24
TORSDOF 5
ENDMDL
MODEL 5
REMARK VINA RESULT:       0.0      9.619     11.859
REMARK  5 active torsions:
REMARK  status: ('A' for Active; 'I' for Inactive)
REMARK    1  A    between atoms: C4_4  and  C5_5 
REMARK    2  A    between atoms: C8_8  and  O9_9 
REMARK    3  A    between atoms: C10_11  and  O11_12 
REMARK    4  A    between atoms: C16_18  and  O17_19 
REMARK    5  A    between atoms: C19_22  and  O20_23 
ROOT
HETATM    1  O1          0       9.741  -8.301  36.708  1.00  0.00    -0.286 OA
HETATM    2  C2          0      10.245  -7.817  37.758  1.00  0.00     0.201 C 
HETATM    3  C3          0       9.479  -7.335  38.805  1.00  0.00     0.067 C 
HETATM    4  C4          0      10.059  -6.713  39.905  1.00  0.00     0.103 C 
HETATM    5  O13         0      11.375  -6.603  39.952  1.00  0.00    -0.307 OA
HETATM    6  C14         0      12.146  -7.010  38.968  1.00  0.00     0.107 C 
HETATM    7  C15         0      13.447  -6.551  38.821  1.00  0.00     0.049 C 
HETATM    8  C16         0      14.165  -6.780  37.654  1.00  0.00     0.093 C 
HETATM    9  C18         0      13.753  -7.883  36.917  1.00  0.00     0.048 C 
HETATM   10  C19         0      12.472  -8.397  37.073  1.00  0.00     0.096 C 
HETATM   11  C21         0      11.615  -7.823  37.972  1.00  0.00     0.084 C 
ENDROOT
BRANCH  10  12
HETATM   12  O20         0      11.927  -9.185  36.064  1.00  0.00    -0.359 OA
HETATM   13  H20         0      11.639  -8.753  35.269  1.00  0.00     0.218 HD
ENDBRANCH  10  12
BRANCH   4  14
HETATM   14  C5          0       9.243  -5.736  40.629  1.00  0.00     0.025 C 
HETATM   15  C6          0       9.792  -4.685  41.350  1.00  0.00     0.004 C 
HETATM   16  C7          0       9.133  -3.461  41.308  1.00  0.00     0.026 C 
HETATM   17  C8          0       7.899  -3.318  40.681  1.00  0.00     0.112 C 
HETATM   18  C10         0       7.169  -4.492  40.564  1.00  0.00     0.112 C 
HETATM   19  C12         0       7.859  -5.698  40.524  1.00  0.00     0.028 C 
BRANCH  17  20
HETATM   20  O9          0       7.558  -2.134  40.051  1.00  0.00    -0.357 OA
HETATM   21  H9          0       8.178  -1.442  39.856  1.00  0.00     0.218 HD
ENDBRANCH  17  20
BRANCH  18  22
HETATM   22  O11         0       5.859  -4.376  40.121  1.00  0.00    -0.357 OA
HETATM   23  H11         0       5.733  -4.133  39.211  1.00  0.00     0.218 HD
ENDBRANCH  18  22
ENDBRANCH   4  14
BRANCH   8  24
HETATM   24  O17         0      14.994  -5.796  37.103  1.00  0.00    -0.359 OA
HETATM   25  H17         0      15.526  -5.965  36.334  1.00  0.00     0.218 HD
ENDBRANCH   8  24
TORSDOF 5
ENDMDL
MODEL 6
REMARK VINA RESULT:       0.0     11.078     13.282
REMARK  5 active torsions:
REMARK  status: ('A' for Active; 'I' for Inactive)
REMARK    1  A    between atoms: C4_4  and  C5_5 
REMARK    2  A    between atoms: C8_8  and  O9_9 
REMARK    3  A    between atoms: C10_11  and  O11_12 
REMARK    4  A    between atoms: C16_18  and  O17_19 
REMARK    5  A    between atoms: C19_22  and  O20_23 
ROOT
HETATM    1  O1          0      10.119  -9.549  35.762  1.00  0.00    -0.286 OA
HETATM    2  C2          0      10.150  -8.857  36.816  1.00  0.00     0.201 C 
HETATM    3  C3          0       9.005  -8.410  37.455  1.00  0.00     0.067 C 
HETATM    4  C4          0       9.068  -7.565  38.556  1.00  0.00     0.103 C 
HETATM    5  O13         0      10.255  -7.201  39.010  1.00  0.00    -0.307 OA
HETATM    6  C14         0      11.371  -7.566  38.419  1.00  0.00     0.107 C 
HETATM    7  C15         0      12.564  -6.888  38.627  1.00  0.00     0.049 C 
HETATM    8  C16         0      13.671  -7.111  37.818  1.00  0.00     0.093 C 
HETATM    9  C18         0      13.701  -8.352  37.193  1.00  0.00     0.048 C 
HETATM   10  C19         0      12.532  -9.078  37.010  1.00  0.00     0.096 C 
HETATM   11  C21         0      11.343  -8.576  37.464  1.00  0.00     0.084 C 
ENDROOT
BRANCH  10  12
HETATM   12  O20         0      12.492 -10.068  36.033  1.00  0.00    -0.359 OA
HETATM   13  H20         0      11.664 -10.506  35.877  1.00  0.00     0.218 HD
ENDBRANCH  10  12
BRANCH   4  14
HETATM   14  C5          0       7.923  -6.683  38.790  1.00  0.00     0.025 C 
HETATM   15  C6          0       8.032  -5.470  39.455  1.00  0.00     0.004 C 
HETATM   16  C7          0       7.267  -4.407  38.985  1.00  0.00     0.026 C 
HETATM   17  C8          0       6.326  -4.576  37.975  1.00  0.00     0.112 C 
HETATM   18  C10         0       5.853  -5.874  37.835  1.00  0.00     0.112 C 
HETATM   19  C12         0       6.673  -6.922  38.234  1.00  0.00     0.028 C 
BRANCH  17  20
HETATM   20  O9          0       6.067  -3.561  37.071  1.00  0.00    -0.357 OA
HETATM   21  H9          0       6.680  -3.283  36.400  1.00  0.00     0.218 HD
ENDBRANCH  17  20
BRANCH  18  22
HETATM   22  O11         0       4.780  -6.062  36.975  1.00  0.00    -0.357 OA
HETATM   23  H11         0       4.950  -5.956  36.046  1.00  0.00     0.218 HD
ENDBRANCH  18  22
ENDBRANCH   4  14
BRANCH   8  24
HETATM   24  O17         0      14.496  -6.059  37.405  1.00  0.00    -0.359 OA
HETATM   25  H17         0      15.282  -6.212  36.894  1.00  0.00     0.218 HD
ENDBRANCH   8  24
TORSDOF 5
ENDMDL
MODEL 7
REMARK VINA RESULT:       0.0      8.506     11.026
REMARK  5 active torsions:
REMARK  status: ('A' for Active; 'I' for Inactive)
REMARK    1  A    between atoms: C4_4  and  C5_5 
REMARK    2  A    between atoms: C8_8  and  O9_9 
REMARK    3  A    between atoms: C10_11  and  O11_12 
REMARK    4  A    between atoms: C16_18  and  O17_19 
REMARK    5  A    between atoms: C19_22  and  O20_23 
ROOT
HETATM    1  O1          0      16.261  -1.483  36.267  1.00  0.00    -0.286 OA
HETATM    2  C2          0      15.017  -1.302  36.159  1.00  0.00     0.201 C 
HETATM    3  C3          0      14.277  -0.600  37.095  1.00  0.00     0.067 C 
HETATM    4  C4          0      12.893  -0.503  37.006  1.00  0.00     0.103 C 
HETATM    5  O13         0      12.280  -1.082  35.988  1.00  0.00    -0.307 OA
HETATM    6  C14         0      12.931  -1.791  35.092  1.00  0.00     0.107 C 
HETATM    7  C15         0      12.285  -2.710  34.278  1.00  0.00     0.049 C 
HETATM    8  C16         0      13.000  -3.632  33.522  1.00  0.00     0.093 C 
HETATM    9  C18         0      14.301  -3.254  33.212  1.00  0.00     0.048 C 
HETATM   10  C19         0      14.960  -2.302  33.978  1.00  0.00     0.096 C 
HETATM   11  C21         0      14.319  -1.719  35.036  1.00  0.00     0.084 C 
ENDROOT
BRANCH  10  12
HETATM   12  O20         0      16.350  -2.249  33.947  1.00  0.00    -0.359 OA
HETATM   13  H20         0      16.783  -2.382  33.112  1.00  0.00     0.218 HD
ENDBRANCH  10  12
BRANCH   4  14
HETATM   14  C5          0      12.153  -0.306  38.254  1.00  0.00     0.025 C 
HETATM   15  C6          0      10.838  -0.717  38.421  1.00  0.00     0.004 C 
HETATM   16  C7          0      10.481  -1.245  39.658  1.00  0.00     0.026 C 
HETATM   17  C8          0      11.361  -1.243  40.734  1.00  0.00     0.112 C 
HETATM   18  C10         0      12.360  -0.281  40.664  1.00  0.00     0.112 C 
HETATM   19  C12         0      12.757   0.168  39.411  1.00  0.00     0.028 C 
BRANCH  17  20
HETATM   20  O9          0      11.342  -2.263  41.668  1.00  0.00    -0.357 OA
HETATM   21  H9          0      11.216  -3.179  41.447  1.00  0.00     0.218 HD
ENDBRANCH  17  20
BRANCH  18  22
HETATM   22  O11         0      13.147  -0.109  41.794  1.00  0.00    -0.357 OA
HETATM   23  H11         0      13.717   0.652  41.809  1.00  0.00     0.218 HD
ENDBRANCH  18  22
ENDBRANCH   4  14
BRANCH   8  24
HETATM   24  O17         0      12.565  -4.954  33.382  1.00  0.00    -0.359 OA
HETATM   25  H17         0      13.173  -5.665  33.216  1.00  0.00     0.218 HD
ENDBRANCH   8  24
TORSDOF 5
ENDMDL
MODEL 8
REMARK VINA RESULT:       0.0      6.747      9.701
REMARK  5 active torsions:
REMARK  status: ('A' for Active; 'I' for Inactive)
REMARK    1  A    between atoms: C4_4  and  C5_5 
REMARK    2  A    between atoms: C8_8  and  O9_9 
REMARK    3  A    between atoms: C10_11  and  O11_12 
REMARK    4  A    between atoms: C16_18  and  O17_19 
REMARK    5  A    between atoms: C19_22  and  O20_23 
ROOT
HETATM    1  O1          0      12.037  -0.880  39.823  1.00  0.00    -0.286 OA
HETATM    2  C2          0      12.243   0.311  39.462  1.00  0.00     0.201 C 
HETATM    3  C3          0      11.233   1.253  39.370  1.00  0.00     0.067 C 
HETATM    4  C4          0      11.471   2.529  38.872  1.00  0.00     0.103 C 
HETATM    5  O13         0      12.698   2.847  38.498  1.00  0.00    -0.307 OA
HETATM    6  C14         0      13.685   1.979  38.529  1.00  0.00     0.107 C 
HETATM    7  C15         0      14.843   2.162  37.788  1.00  0.00     0.049 C 
HETATM    8  C16         0      15.764   1.134  37.623  1.00  0.00     0.093 C 
HETATM    9  C18         0      15.748   0.166  38.620  1.00  0.00     0.048 C 
HETATM   10  C19         0      14.622  -0.012  39.412  1.00  0.00     0.096 C 
HETATM   11  C21         0      13.525   0.783  39.221  1.00  0.00     0.084 C 
ENDROOT
BRANCH  10  12
HETATM   12  O20         0      14.444  -1.220  40.080  1.00  0.00    -0.359 OA
HETATM   13  H20         0      13.898  -1.879  39.669  1.00  0.00     0.218 HD
ENDBRANCH  10  12
BRANCH   4  14
HETATM   14  C5          0      10.342   3.227  38.252  1.00  0.00     0.025 C 
HETATM   15  C6          0      10.504   4.198  37.274  1.00  0.00     0.004 C 
HETATM   16  C7          0       9.582   4.224  36.233  1.00  0.00     0.026 C 
HETATM   17  C8          0       8.461   3.401  36.231  1.00  0.00     0.112 C 
HETATM   18  C10         0       8.063   2.960  37.486  1.00  0.00     0.112 C 
HETATM   19  C12         0       9.023   2.863  38.486  1.00  0.00     0.028 C 
BRANCH  17  20
HETATM   20  O9          0       7.942   2.912  35.045  1.00  0.00    -0.357 OA
HETATM   21  H9          0       7.270   3.356  34.540  1.00  0.00     0.218 HD
ENDBRANCH  17  20
BRANCH  18  22
HETATM   22  O11         0       6.847   2.296  37.562  1.00  0.00    -0.357 OA
HETATM   23  H11         0       6.844   1.375  37.326  1.00  0.00     0.218 HD
ENDBRANCH  18  22
ENDBRANCH   4  14
BRANCH   8  24
HETATM   24  O17         0      16.404   0.918  36.397  1.00  0.00    -0.359 OA
HETATM   25  H17         0      16.513   0.045  36.038  1.00  0.00     0.218 HD
ENDBRANCH   8  24
TORSDOF 5
ENDMDL
MODEL 9
REMARK VINA RESULT:       0.0      4.442      7.552
REMARK  5 active torsions:
REMARK  status: ('A' for Active; 'I' for Inactive)
REMARK    1  A    between atoms: C4_4  and  C5_5 
REMARK    2  A    between atoms: C8_8  and  O9_9 
REMARK    3  A    between atoms: C10_11  and  O11_12 
REMARK    4  A    between atoms: C16_18  and  O17_19 
REMARK    5  A    between atoms: C19_22  and  O20_23 
ROOT
HETATM    1  O1          0      12.182  -3.816  45.046  1.00  0.00    -0.286 OA
HETATM    2  C2          0      12.017  -2.735  44.416  1.00  0.00     0.201 C 
HETATM    3  C3          0      10.778  -2.307  43.971  1.00  0.00     0.067 C 
HETATM    4  C4          0      10.639  -1.164  43.191  1.00  0.00     0.103 C 
HETATM    5  O13         0      11.720  -0.466  42.889  1.00  0.00    -0.307 OA
HETATM    6  C14         0      12.924  -0.849  43.254  1.00  0.00     0.107 C 
HETATM    7  C15         0      14.065  -0.371  42.626  1.00  0.00     0.049 C 
HETATM    8  C16         0      15.305  -0.961  42.836  1.00  0.00     0.093 C 
HETATM    9  C18         0      15.434  -1.642  44.040  1.00  0.00     0.048 C 
HETATM   10  C19         0      14.311  -2.094  44.719  1.00  0.00     0.096 C 
HETATM   11  C21         0      13.065  -1.851  44.208  1.00  0.00     0.084 C 
ENDROOT
BRANCH  10  12
HETATM   12  O20         0      14.445  -3.119  45.651  1.00  0.00    -0.359 OA
HETATM   13  H20         0      13.668  -3.402  46.117  1.00  0.00     0.218 HD
ENDBRANCH  10  12
BRANCH   4  14
HETATM   14  C5          0       9.487  -1.105  42.289  1.00  0.00     0.025 C 
HETATM   15  C6          0       9.486  -0.360  41.119  1.00  0.00     0.004 C 
HETATM   16  C7          0       8.848  -0.904  40.009  1.00  0.00     0.026 C 
HETATM   17  C8          0       8.120  -2.086  40.093  1.00  0.00     0.112 C 
HETATM   18  C10         0       7.661  -2.396  41.366  1.00  0.00     0.112 C 
HETATM   19  C12         0       8.367  -1.909  42.459  1.00  0.00     0.028 C 
BRANCH  17  20
HETATM   20  O9          0       8.064  -2.961  39.022  1.00  0.00    -0.357 OA
HETATM   21  H9          0       7.900  -2.689  38.126  1.00  0.00     0.218 HD
ENDBRANCH  17  20
BRANCH  18  22
HETATM   22  O11         0       6.775  -3.458  41.473  1.00  0.00    -0.357 OA
HETATM   23  H11         0       6.832  -4.135  40.808  1.00  0.00     0.218 HD
ENDBRANCH  18  22
ENDBRANCH   4  14
BRANCH   8  24
HETATM   24  O17         0      16.215  -1.140  41.788  1.00  0.00    -0.359 OA
HETATM   25  H17         0      16.281  -1.964  41.321  1.00  0.00     0.218 HD
ENDBRANCH   8  24
TORSDOF 5
ENDMDL
