MODEL 1
REMARK VINA RESULT:      -7.5      0.000      0.000
REMARK  5 active torsions:
REMARK  status: ('A' for Active; 'I' for Inactive)
REMARK    1  A    between atoms: C4_4  and  C5_5 
REMARK    2  A    between atoms: C8_8  and  O9_9 
REMARK    3  A    between atoms: C10_11  and  O11_12 
REMARK    4  A    between atoms: C16_18  and  O17_19 
REMARK    5  A    between atoms: C19_22  and  O20_23 
ROOT
HETATM    1  O1          0      58.590  12.771  34.827  1.00  0.00    -0.286 OA
HETATM    2  C2          0      59.825  12.687  34.585  1.00  0.00     0.201 C 
HETATM    3  C3          0      60.759  12.362  35.555  1.00  0.00     0.067 C 
HETATM    4  C4          0      62.123  12.377  35.286  1.00  0.00     0.103 C 
HETATM    5  O13         0      62.527  12.690  34.068  1.00  0.00    -0.307 OA
HETATM    6  C14         0      61.685  13.042  33.121  1.00  0.00     0.107 C 
HETATM    7  C15         0      62.100  13.742  31.997  1.00  0.00     0.049 C 
HETATM    8  C16         0      61.183  14.329  31.134  1.00  0.00     0.093 C 
HETATM    9  C18         0      59.918  13.754  31.141  1.00  0.00     0.048 C 
HETATM   10  C19         0      59.488  13.008  32.230  1.00  0.00     0.096 C 
HETATM   11  C21         0      60.323  12.824  33.298  1.00  0.00     0.084 C 
ENDROOT
BRANCH  10  12
HETATM   12  O20         0      58.124  12.815  32.427  1.00  0.00    -0.359 OA
HETATM   13  H20         0      57.560  13.579  32.414  1.00  0.00     0.218 HD
ENDBRANCH  10  12
BRANCH   4  14
HETATM   14  C5          0      63.025  12.625  36.413  1.00  0.00     0.025 C 
HETATM   15  C6          0      63.923  11.676  36.880  1.00  0.00     0.004 C 
HETATM   16  C7          0      65.175  12.121  37.292  1.00  0.00     0.026 C 
HETATM   17  C8          0      65.479  13.477  37.366  1.00  0.00     0.112 C 
HETATM   18  C10         0      64.377  14.311  37.499  1.00  0.00     0.112 C 
HETATM   19  C12         0      63.155  13.876  37.001  1.00  0.00     0.028 C 
BRANCH  17  20
HETATM   20  O9          0      66.760  13.930  37.110  1.00  0.00    -0.357 OA
HETATM   21  H9          0      67.061  14.808  37.317  1.00  0.00     0.218 HD
ENDBRANCH  17  20
BRANCH  18  22
HETATM   22  O11         0      64.631  15.649  37.766  1.00  0.00    -0.357 OA
HETATM   23  H11         0      64.021  16.096  38.341  1.00  0.00     0.218 HD
ENDBRANCH  18  22
ENDBRANCH   4  14
BRANCH   8  24
HETATM   24  O17         0      61.415  15.589  30.571  1.00  0.00    -0.359 OA
HETATM   25  H17         0      60.742  16.260  30.553  1.00  0.00     0.218 HD
ENDBRANCH   8  24
TORSDOF 5
ENDMDL
MODEL 2
REMARK VINA RESULT:      -7.0      1.629      6.405
REMARK  5 active torsions:
REMARK  status: ('A' for Active; 'I' for Inactive)
REMARK    1  A    between atoms: C4_4  and  C5_5 
REMARK    2  A    between atoms: C8_8  and  O9_9 
REMARK    3  A    between atoms: C10_11  and  O11_12 
REMARK    4  A    between atoms: C16_18  and  O17_19 
REMARK    5  A    between atoms: C19_22  and  O20_23 
ROOT
HETATM    1  O1          0      64.245  10.533  36.644  1.00  0.00    -0.286 OA
HETATM    2  C2          0      63.754  11.583  36.146  1.00  0.00     0.201 C 
HETATM    3  C3          0      62.604  11.581  35.375  1.00  0.00     0.067 C 
HETATM    4  C4          0      62.142  12.736  34.753  1.00  0.00     0.103 C 
HETATM    5  O13         0      62.813  13.861  34.924  1.00  0.00    -0.307 OA
HETATM    6  C14         0      63.931  13.910  35.615  1.00  0.00     0.107 C 
HETATM    7  C15         0      64.833  14.954  35.472  1.00  0.00     0.049 C 
HETATM    8  C16         0      66.115  14.878  36.003  1.00  0.00     0.093 C 
HETATM    9  C18         0      66.254  14.010  37.079  1.00  0.00     0.048 C 
HETATM   10  C19         0      65.342  12.982  37.279  1.00  0.00     0.096 C 
HETATM   11  C21         0      64.288  12.833  36.419  1.00  0.00     0.084 C 
ENDROOT
BRANCH  10  12
HETATM   12  O20         0      65.710  11.889  38.057  1.00  0.00    -0.359 OA
HETATM   13  H20         0      65.276  11.060  37.893  1.00  0.00     0.218 HD
ENDBRANCH  10  12
BRANCH   4  14
HETATM   14  C5          0      61.346  12.568  33.536  1.00  0.00     0.025 C 
HETATM   15  C6          0      60.139  11.885  33.515  1.00  0.00     0.004 C 
HETATM   16  C7          0      59.125  12.392  32.708  1.00  0.00     0.026 C 
HETATM   17  C8          0      59.344  13.462  31.848  1.00  0.00     0.112 C 
HETATM   18  C10         0      60.670  13.647  31.479  1.00  0.00     0.112 C 
HETATM   19  C12         0      61.664  13.207  32.345  1.00  0.00     0.028 C 
BRANCH  17  20
HETATM   20  O9          0      58.337  14.371  31.576  1.00  0.00    -0.357 OA
HETATM   21  H9          0      57.414  14.146  31.558  1.00  0.00     0.218 HD
ENDBRANCH  17  20
BRANCH  18  22
HETATM   22  O11         0      60.920  14.577  30.480  1.00  0.00    -0.357 OA
HETATM   23  H11         0      61.435  15.339  30.720  1.00  0.00     0.218 HD
ENDBRANCH  18  22
ENDBRANCH   4  14
BRANCH   8  24
HETATM   24  O17         0      67.224  15.367  35.303  1.00  0.00    -0.359 OA
HETATM   25  H17         0      68.099  15.031  35.458  1.00  0.00     0.218 HD
ENDBRANCH   8  24
TORSDOF 5
ENDMDL
MODEL 3
REMARK VINA RESULT:      -6.9      1.999      2.431
REMARK  5 active torsions:
REMARK  status: ('A' for Active; 'I' for Inactive)
REMARK    1  A    between atoms: C4_4  and  C5_5 
REMARK    2  A    between atoms: C8_8  and  O9_9 
REMARK    3  A    between atoms: C10_11  and  O11_12 
REMARK    4  A    between atoms: C16_18  and  O17_19 
REMARK    5  A    between atoms: C19_22  and  O20_23 
ROOT
HETATM    1  O1          0      58.412  12.955  34.241  1.00  0.00    -0.286 OA
HETATM    2  C2          0      59.634  12.702  34.056  1.00  0.00     0.201 C 
HETATM    3  C3          0      60.441  12.146  35.034  1.00  0.00     0.067 C 
HETATM    4  C4          0      61.807  11.972  34.840  1.00  0.00     0.103 C 
HETATM    5  O13         0      62.334  12.330  33.682  1.00  0.00    -0.307 OA
HETATM    6  C14         0      61.619  12.897  32.734  1.00  0.00     0.107 C 
HETATM    7  C15         0      62.209  13.625  31.711  1.00  0.00     0.049 C 
HETATM    8  C16         0      61.451  14.427  30.866  1.00  0.00     0.093 C 
HETATM    9  C18         0      60.116  14.058  30.749  1.00  0.00     0.048 C 
HETATM   10  C19         0      59.507  13.291  31.733  1.00  0.00     0.096 C 
HETATM   11  C21         0      60.231  12.879  32.818  1.00  0.00     0.084 C 
ENDROOT
BRANCH  10  12
HETATM   12  O20         0      58.119  13.296  31.838  1.00  0.00    -0.359 OA
HETATM   13  H20         0      57.623  13.735  31.158  1.00  0.00     0.218 HD
ENDBRANCH  10  12
BRANCH   4  14
HETATM   14  C5          0      62.658  11.969  36.031  1.00  0.00     0.025 C 
HETATM   15  C6          0      62.349  12.686  37.178  1.00  0.00     0.004 C 
HETATM   16  C7          0      62.633  12.094  38.404  1.00  0.00     0.026 C 
HETATM   17  C8          0      63.322  10.889  38.490  1.00  0.00     0.112 C 
HETATM   18  C10         0      64.114  10.594  37.388  1.00  0.00     0.112 C 
HETATM   19  C12         0      63.759  11.132  36.157  1.00  0.00     0.028 C 
BRANCH  17  20
HETATM   20  O9          0      63.051   9.988  39.504  1.00  0.00    -0.357 OA
HETATM   21  H9          0      63.123  10.196  40.429  1.00  0.00     0.218 HD
ENDBRANCH  17  20
BRANCH  18  22
HETATM   22  O11         0      64.966   9.504  37.500  1.00  0.00    -0.357 OA
HETATM   23  H11         0      65.187   9.048  36.697  1.00  0.00     0.218 HD
ENDBRANCH  18  22
ENDBRANCH   4  14
BRANCH   8  24
HETATM   24  O17         0      61.907  15.682  30.448  1.00  0.00    -0.359 OA
HETATM   25  H17         0      62.455  15.782  29.679  1.00  0.00     0.218 HD
ENDBRANCH   8  24
TORSDOF 5
ENDMDL
MODEL 4
REMARK VINA RESULT:      -6.8      2.133      3.709
REMARK  5 active torsions:
REMARK  status: ('A' for Active; 'I' for Inactive)
REMARK    1  A    between atoms: C4_4  and  C5_5 
REMARK    2  A    between atoms: C8_8  and  O9_9 
REMARK    3  A    between atoms: C10_11  and  O11_12 
REMARK    4  A    between atoms: C16_18  and  O17_19 
REMARK    5  A    between atoms: C19_22  and  O20_23 
ROOT
HETATM    1  O1          0      64.781  15.204  32.747  1.00  0.00    -0.286 OA
HETATM    2  C2          0      64.119  14.765  33.727  1.00  0.00     0.201 C 
HETATM    3  C3          0      64.538  14.906  35.039  1.00  0.00     0.067 C 
HETATM    4  C4          0      63.843  14.324  36.092  1.00  0.00     0.103 C 
HETATM    5  O13         0      62.745  13.638  35.826  1.00  0.00    -0.307 OA
HETATM    6  C14         0      62.324  13.443  34.596  1.00  0.00     0.107 C 
HETATM    7  C15         0      61.437  12.423  34.280  1.00  0.00     0.049 C 
HETATM    8  C16         0      61.195  12.060  32.960  1.00  0.00     0.093 C 
HETATM    9  C18         0      61.437  13.058  32.024  1.00  0.00     0.048 C 
HETATM   10  C19         0      62.282  14.117  32.323  1.00  0.00     0.096 C 
HETATM   11  C21         0      62.869  14.190  33.557  1.00  0.00     0.084 C 
ENDROOT
BRANCH  10  12
HETATM   12  O20         0      62.855  14.846  31.285  1.00  0.00    -0.359 OA
HETATM   13  H20         0      62.881  15.792  31.367  1.00  0.00     0.218 HD
ENDBRANCH  10  12
BRANCH   4  14
HETATM   14  C5          0      64.606  13.992  37.297  1.00  0.00     0.025 C 
HETATM   15  C6          0      64.206  14.375  38.569  1.00  0.00     0.004 C 
HETATM   16  C7          0      64.408  13.471  39.607  1.00  0.00     0.026 C 
HETATM   17  C8          0      65.103  12.282  39.414  1.00  0.00     0.112 C 
HETATM   18  C10         0      65.976  12.290  38.335  1.00  0.00     0.112 C 
HETATM   19  C12         0      65.705  13.143  37.272  1.00  0.00     0.028 C 
BRANCH  17  20
HETATM   20  O9          0      64.770  11.143  40.125  1.00  0.00    -0.357 OA
HETATM   21  H9          0      65.159  10.909  40.960  1.00  0.00     0.218 HD
ENDBRANCH  17  20
BRANCH  18  22
HETATM   22  O11         0      66.831  11.204  38.210  1.00  0.00    -0.357 OA
HETATM   23  H11         0      67.751  11.357  38.390  1.00  0.00     0.218 HD
ENDBRANCH  18  22
ENDBRANCH   4  14
BRANCH   8  24
HETATM   24  O17         0      61.054  10.719  32.587  1.00  0.00    -0.359 OA
HETATM   25  H17         0      61.807  10.157  32.449  1.00  0.00     0.218 HD
ENDBRANCH   8  24
TORSDOF 5
ENDMDL
MODEL 5
REMARK VINA RESULT:      -6.8      2.176      6.148
REMARK  5 active torsions:
REMARK  status: ('A' for Active; 'I' for Inactive)
REMARK    1  A    between atoms: C4_4  and  C5_5 
REMARK    2  A    between atoms: C8_8  and  O9_9 
REMARK    3  A    between atoms: C10_11  and  O11_12 
REMARK    4  A    between atoms: C16_18  and  O17_19 
REMARK    5  A    between atoms: C19_22  and  O20_23 
ROOT
HETATM    1  O1          0      65.252  11.905  37.305  1.00  0.00    -0.286 OA
HETATM    2  C2          0      64.397  12.610  36.702  1.00  0.00     0.201 C 
HETATM    3  C3          0      63.066  12.246  36.593  1.00  0.00     0.067 C 
HETATM    4  C4          0      62.167  12.989  35.836  1.00  0.00     0.103 C 
HETATM    5  O13         0      62.599  14.079  35.227  1.00  0.00    -0.307 OA
HETATM    6  C14         0      63.860  14.449  35.267  1.00  0.00     0.107 C 
HETATM    7  C15         0      64.394  15.328  34.336  1.00  0.00     0.049 C 
HETATM    8  C16         0      65.766  15.517  34.226  1.00  0.00     0.093 C 
HETATM    9  C18         0      66.492  15.230  35.376  1.00  0.00     0.048 C 
HETATM   10  C19         0      65.968  14.391  36.350  1.00  0.00     0.096 C 
HETATM   11  C21         0      64.720  13.856  36.185  1.00  0.00     0.084 C 
ENDROOT
BRANCH  10  12
HETATM   12  O20         0      66.830  13.771  37.249  1.00  0.00    -0.359 OA
HETATM   13  H20         0      66.689  13.920  38.176  1.00  0.00     0.218 HD
ENDBRANCH  10  12
BRANCH   4  14
HETATM   14  C5          0      61.014  12.279  35.278  1.00  0.00     0.025 C 
HETATM   15  C6          0      59.723  12.784  35.329  1.00  0.00     0.004 C 
HETATM   16  C7          0      58.907  12.580  34.221  1.00  0.00     0.026 C 
HETATM   17  C8          0      59.312  11.787  33.153  1.00  0.00     0.112 C 
HETATM   18  C10         0      60.291  10.852  33.463  1.00  0.00     0.112 C 
HETATM   19  C12         0      61.148  11.120  34.523  1.00  0.00     0.028 C 
BRANCH  17  20
HETATM   20  O9          0      58.909  12.077  31.861  1.00  0.00    -0.357 OA
HETATM   21  H9          0      58.793  12.960  31.531  1.00  0.00     0.218 HD
ENDBRANCH  17  20
BRANCH  18  22
HETATM   22  O11         0      60.594   9.913  32.488  1.00  0.00    -0.357 OA
HETATM   23  H11         0      59.932   9.749  31.827  1.00  0.00     0.218 HD
ENDBRANCH  18  22
ENDBRANCH   4  14
BRANCH   8  24
HETATM   24  O17         0      66.386  15.651  32.979  1.00  0.00    -0.359 OA
HETATM   25  H17         0      67.112  16.248  32.844  1.00  0.00     0.218 HD
ENDBRANCH   8  24
TORSDOF 5
ENDMDL
MODEL 6
REMARK VINA RESULT:      -6.7      1.710      6.604
REMARK  5 active torsions:
REMARK  status: ('A' for Active; 'I' for Inactive)
REMARK    1  A    between atoms: C4_4  and  C5_5 
REMARK    2  A    between atoms: C8_8  and  O9_9 
REMARK    3  A    between atoms: C10_11  and  O11_12 
REMARK    4  A    between atoms: C16_18  and  O17_19 
REMARK    5  A    between atoms: C19_22  and  O20_23 
ROOT
HETATM    1  O1          0      63.949  15.909  34.590  1.00  0.00    -0.286 OA
HETATM    2  C2          0      63.673  14.681  34.687  1.00  0.00     0.201 C 
HETATM    3  C3          0      62.888  14.013  33.763  1.00  0.00     0.067 C 
HETATM    4  C4          0      62.515  12.687  33.947  1.00  0.00     0.103 C 
HETATM    5  O13         0      62.942  12.051  35.024  1.00  0.00    -0.307 OA
HETATM    6  C14         0      63.658  12.649  35.951  1.00  0.00     0.107 C 
HETATM    7  C15         0      63.768  12.135  37.235  1.00  0.00     0.049 C 
HETATM    8  C16         0      64.306  12.890  38.270  1.00  0.00     0.093 C 
HETATM    9  C18         0      65.175  13.899  37.872  1.00  0.00     0.048 C 
HETATM   10  C19         0      65.124  14.404  36.580  1.00  0.00     0.096 C 
HETATM   11  C21         0      64.222  13.892  35.686  1.00  0.00     0.084 C 
ENDROOT
BRANCH  10  12
HETATM   12  O20         0      65.659  15.661  36.319  1.00  0.00    -0.359 OA
HETATM   13  H20         0      65.940  15.850  35.432  1.00  0.00     0.218 HD
ENDBRANCH  10  12
BRANCH   4  14
HETATM   14  C5          0      61.268  12.248  33.318  1.00  0.00     0.025 C 
HETATM   15  C6          0      60.573  11.120  33.731  1.00  0.00     0.004 C 
HETATM   16  C7          0      59.184  11.184  33.733  1.00  0.00     0.026 C 
HETATM   17  C8          0      58.503  12.281  33.217  1.00  0.00     0.112 C 
HETATM   18  C10         0      59.220  13.024  32.288  1.00  0.00     0.112 C 
HETATM   19  C12         0      60.608  13.010  32.362  1.00  0.00     0.028 C 
BRANCH  17  20
HETATM   20  O9          0      57.299  12.689  33.762  1.00  0.00    -0.357 OA
HETATM   21  H9          0      56.578  13.038  33.250  1.00  0.00     0.218 HD
ENDBRANCH  17  20
BRANCH  18  22
HETATM   22  O11         0      58.528  14.012  31.604  1.00  0.00    -0.357 OA
HETATM   23  H11         0      58.799  14.910  31.755  1.00  0.00     0.218 HD
ENDBRANCH  18  22
ENDBRANCH   4  14
BRANCH   8  24
HETATM   24  O17         0      63.759  12.856  39.558  1.00  0.00    -0.359 OA
HETATM   25  H17         0      63.166  13.531  39.866  1.00  0.00     0.218 HD
ENDBRANCH   8  24
TORSDOF 5
ENDMDL
MODEL 7
REMARK VINA RESULT:      -6.7      4.377      6.253
REMARK  5 active torsions:
REMARK  status: ('A' for Active; 'I' for Inactive)
REMARK    1  A    between atoms: C4_4  and  C5_5 
REMARK    2  A    between atoms: C8_8  and  O9_9 
REMARK    3  A    between atoms: C10_11  and  O11_12 
REMARK    4  A    between atoms: C16_18  and  O17_19 
REMARK    5  A    between atoms: C19_22  and  O20_23 
ROOT
HETATM    1  O1          0      60.356   7.930  35.857  1.00  0.00    -0.286 OA
HETATM    2  C2          0      60.737   8.445  34.770  1.00  0.00     0.201 C 
HETATM    3  C3          0      61.110   9.774  34.660  1.00  0.00     0.067 C 
HETATM    4  C4          0      61.427  10.342  33.432  1.00  0.00     0.103 C 
HETATM    5  O13         0      61.388   9.582  32.352  1.00  0.00    -0.307 OA
HETATM    6  C14         0      61.005   8.325  32.395  1.00  0.00     0.107 C 
HETATM    7  C15         0      60.581   7.650  31.259  1.00  0.00     0.049 C 
HETATM    8  C16         0      59.942   6.419  31.348  1.00  0.00     0.093 C 
HETATM    9  C18         0      60.226   5.691  32.497  1.00  0.00     0.048 C 
HETATM   10  C19         0      60.696   6.329  33.637  1.00  0.00     0.096 C 
HETATM   11  C21         0      60.898   7.682  33.624  1.00  0.00     0.084 C 
ENDROOT
BRANCH  10  12
HETATM   12  O20         0      60.562   5.702  34.872  1.00  0.00    -0.359 OA
HETATM   13  H20         0      59.687   5.606  35.230  1.00  0.00     0.218 HD
ENDBRANCH  10  12
BRANCH   4  14
HETATM   14  C5          0      61.217  11.784  33.286  1.00  0.00     0.025 C 
HETATM   15  C6          0      62.050  12.727  33.871  1.00  0.00     0.004 C 
HETATM   16  C7          0      62.334  13.877  33.141  1.00  0.00     0.026 C 
HETATM   17  C8          0      61.708  14.144  31.929  1.00  0.00     0.112 C 
HETATM   18  C10         0      60.486  13.508  31.754  1.00  0.00     0.112 C 
HETATM   19  C12         0      60.261  12.315  32.431  1.00  0.00     0.028 C 
BRANCH  17  20
HETATM   20  O9          0      62.374  14.819  30.921  1.00  0.00    -0.357 OA
HETATM   21  H9          0      62.685  14.404  30.124  1.00  0.00     0.218 HD
ENDBRANCH  17  20
BRANCH  18  22
HETATM   22  O11         0      59.733  13.884  30.651  1.00  0.00    -0.357 OA
HETATM   23  H11         0      58.789  13.819  30.733  1.00  0.00     0.218 HD
ENDBRANCH  18  22
ENDBRANCH   4  14
BRANCH   8  24
HETATM   24  O17         0      58.857   6.100  30.524  1.00  0.00    -0.359 OA
HETATM   25  H17         0      58.204   5.461  30.784  1.00  0.00     0.218 HD
ENDBRANCH   8  24
TORSDOF 5
ENDMDL
MODEL 8
REMARK VINA RESULT:      -6.5      2.137      6.974
REMARK  5 active torsions:
REMARK  status: ('A' for Active; 'I' for Inactive)
REMARK    1  A    between atoms: C4_4  and  C5_5 
REMARK    2  A    between atoms: C8_8  and  O9_9 
REMARK    3  A    between atoms: C10_11  and  O11_12 
REMARK    4  A    between atoms: C16_18  and  O17_19 
REMARK    5  A    between atoms: C19_22  and  O20_23 
ROOT
HETATM    1  O1          0      63.782  15.081  36.654  1.00  0.00    -0.286 OA
HETATM    2  C2          0      63.574  13.899  36.264  1.00  0.00     0.201 C 
HETATM    3  C3          0      62.494  13.550  35.471  1.00  0.00     0.067 C 
HETATM    4  C4          0      62.231  12.225  35.141  1.00  0.00     0.103 C 
HETATM    5  O13         0      63.050  11.287  35.582  1.00  0.00    -0.307 OA
HETATM    6  C14         0      64.068  11.560  36.368  1.00  0.00     0.107 C 
HETATM    7  C15         0      64.675  10.584  37.145  1.00  0.00     0.049 C 
HETATM    8  C16         0      65.571  10.917  38.153  1.00  0.00     0.093 C 
HETATM    9  C18         0      66.207  12.142  37.991  1.00  0.00     0.048 C 
HETATM   10  C19         0      65.651  13.125  37.184  1.00  0.00     0.096 C 
HETATM   11  C21         0      64.475  12.880  36.529  1.00  0.00     0.084 C 
ENDROOT
BRANCH  10  12
HETATM   12  O20         0      66.034  14.450  37.365  1.00  0.00    -0.359 OA
HETATM   13  H20         0      65.747  15.088  36.722  1.00  0.00     0.218 HD
ENDBRANCH  10  12
BRANCH   4  14
HETATM   14  C5          0      60.840  11.869  34.854  1.00  0.00     0.025 C 
HETATM   15  C6          0      59.769  12.676  35.210  1.00  0.00     0.004 C 
HETATM   16  C7          0      58.705  12.765  34.319  1.00  0.00     0.026 C 
HETATM   17  C8          0      58.644  11.977  33.175  1.00  0.00     0.112 C 
HETATM   18  C10         0      59.388  10.807  33.237  1.00  0.00     0.112 C 
HETATM   19  C12         0      60.498  10.773  34.073  1.00  0.00     0.028 C 
BRANCH  17  20
HETATM   20  O9          0      58.056  12.453  32.016  1.00  0.00    -0.357 OA
HETATM   21  H9          0      58.200  13.327  31.672  1.00  0.00     0.218 HD
ENDBRANCH  17  20
BRANCH  18  22
HETATM   22  O11         0      59.215   9.896  32.204  1.00  0.00    -0.357 OA
HETATM   23  H11         0      59.594  10.122  31.363  1.00  0.00     0.218 HD
ENDBRANCH  18  22
ENDBRANCH   4  14
BRANCH   8  24
HETATM   24  O17         0      65.571  10.244  39.380  1.00  0.00    -0.359 OA
HETATM   25  H17         0      65.952   9.379  39.474  1.00  0.00     0.218 HD
ENDBRANCH   8  24
TORSDOF 5
ENDMDL
MODEL 9
REMARK VINA RESULT:      -6.3      2.965      5.929
REMARK  5 active torsions:
REMARK  status: ('A' for Active; 'I' for Inactive)
REMARK    1  A    between atoms: C4_4  and  C5_5 
REMARK    2  A    between atoms: C8_8  and  O9_9 
REMARK    3  A    between atoms: C10_11  and  O11_12 
REMARK    4  A    between atoms: C16_18  and  O17_19 
REMARK    5  A    between atoms: C19_22  and  O20_23 
ROOT
HETATM    1  O1          0      64.434  11.930  36.741  1.00  0.00    -0.286 OA
HETATM    2  C2          0      63.460  12.210  35.989  1.00  0.00     0.201 C 
HETATM    3  C3          0      62.313  11.438  35.929  1.00  0.00     0.067 C 
HETATM    4  C4          0      61.298  11.710  35.018  1.00  0.00     0.103 C 
HETATM    5  O13         0      61.433  12.746  34.209  1.00  0.00    -0.307 OA
HETATM    6  C14         0      62.518  13.489  34.199  1.00  0.00     0.107 C 
HETATM    7  C15         0      62.839  14.299  33.120  1.00  0.00     0.049 C 
HETATM    8  C16         0      64.097  14.879  33.002  1.00  0.00     0.093 C 
HETATM    9  C18         0      64.778  15.052  34.201  1.00  0.00     0.048 C 
HETATM   10  C19         0      64.451  14.290  35.314  1.00  0.00     0.096 C 
HETATM   11  C21         0      63.437  13.374  35.236  1.00  0.00     0.084 C 
ENDROOT
BRANCH  10  12
HETATM   12  O20         0      65.381  14.148  36.339  1.00  0.00    -0.359 OA
HETATM   13  H20         0      66.209  13.731  36.133  1.00  0.00     0.218 HD
ENDBRANCH  10  12
BRANCH   4  14
HETATM   14  C5          0      60.461  10.587  34.592  1.00  0.00     0.025 C 
HETATM   15  C6          0      59.287  10.755  33.873  1.00  0.00     0.004 C 
HETATM   16  C7          0      59.004   9.827  32.876  1.00  0.00     0.026 C 
HETATM   17  C8          0      59.790   8.695  32.687  1.00  0.00     0.112 C 
HETATM   18  C10         0      60.514   8.300  33.805  1.00  0.00     0.112 C 
HETATM   19  C12         0      60.857   9.264  34.745  1.00  0.00     0.028 C 
BRANCH  17  20
HETATM   20  O9          0      59.977   8.164  31.424  1.00  0.00    -0.357 OA
HETATM   21  H9          0      60.827   7.933  31.068  1.00  0.00     0.218 HD
ENDBRANCH  17  20
BRANCH  18  22
HETATM   22  O11         0      61.164   7.076  33.731  1.00  0.00    -0.357 OA
HETATM   23  H11         0      62.065   7.086  33.429  1.00  0.00     0.218 HD
ENDBRANCH  18  22
ENDBRANCH   4  14
BRANCH   8  24
HETATM   24  O17         0      64.748  14.963  31.767  1.00  0.00    -0.359 OA
HETATM   25  H17         0      65.271  15.719  31.528  1.00  0.00     0.218 HD
ENDBRANCH   8  24
TORSDOF 5
ENDMDL
