MODEL 1
REMARK VINA RESULT:      -2.7      0.000      0.000
REMARK  5 active torsions:
REMARK  status: ('A' for Active; 'I' for Inactive)
REMARK    1  A    between atoms: C4_4  and  C5_5 
REMARK    2  A    between atoms: C8_8  and  O9_9 
REMARK    3  A    between atoms: C10_11  and  O11_12 
REMARK    4  A    between atoms: C16_18  and  O17_19 
REMARK    5  A    between atoms: C19_22  and  O20_23 
ROOT
HETATM    1  O1          0      18.304 107.848   1.819  1.00  0.00    -0.286 OA
HETATM    2  C2          0      18.879 108.659   2.595  1.00  0.00     0.201 C 
HETATM    3  C3          0      18.907 108.490   3.969  1.00  0.00     0.067 C 
HETATM    4  C4          0      19.458 109.451   4.810  1.00  0.00     0.103 C 
HETATM    5  O13         0      19.984 110.537   4.274  1.00  0.00    -0.307 OA
HETATM    6  C14         0      19.950 110.764   2.979  1.00  0.00     0.107 C 
HETATM    7  C15         0      20.124 112.037   2.455  1.00  0.00     0.049 C 
HETATM    8  C16         0      19.838 112.315   1.124  1.00  0.00     0.093 C 
HETATM    9  C18         0      19.898 111.221   0.270  1.00  0.00     0.048 C 
HETATM   10  C19         0      19.775 109.930   0.766  1.00  0.00     0.096 C 
HETATM   11  C21         0      19.609 109.733   2.110  1.00  0.00     0.084 C 
ENDROOT
BRANCH  10  12
HETATM   12  O20         0      19.402 108.902  -0.094  1.00  0.00    -0.359 OA
HETATM   13  H20         0      18.632 108.393   0.128  1.00  0.00     0.218 HD
ENDBRANCH  10  12
BRANCH   4  14
HETATM   14  C5          0      18.941 109.519   6.178  1.00  0.00     0.025 C 
HETATM   15  C6          0      18.176 108.510   6.744  1.00  0.00     0.004 C 
HETATM   16  C7          0      18.392 108.213   8.086  1.00  0.00     0.026 C 
HETATM   17  C8          0      19.241 108.981   8.876  1.00  0.00     0.112 C 
HETATM   18  C10         0      19.442 110.277   8.421  1.00  0.00     0.112 C 
HETATM   19  C12         0      19.302 110.529   7.061  1.00  0.00     0.028 C 
BRANCH  17  20
HETATM   20  O9          0      19.974 108.403   9.897  1.00  0.00    -0.357 OA
HETATM   21  H9          0      20.543 108.892  10.481  1.00  0.00     0.218 HD
ENDBRANCH  17  20
BRANCH  18  22
HETATM   22  O11         0      20.125 111.141   9.265  1.00  0.00    -0.357 OA
HETATM   23  H11         0      19.647 111.476  10.015  1.00  0.00     0.218 HD
ENDBRANCH  18  22
ENDBRANCH   4  14
BRANCH   8  24
HETATM   24  O17         0      19.215 113.510   0.746  1.00  0.00    -0.359 OA
HETATM   25  H17         0      19.717 114.276   0.493  1.00  0.00     0.218 HD
ENDBRANCH   8  24
TORSDOF 5
ENDMDL
MODEL 2
REMARK VINA RESULT:      -2.5      2.438      5.467
REMARK  5 active torsions:
REMARK  status: ('A' for Active; 'I' for Inactive)
REMARK    1  A    between atoms: C4_4  and  C5_5 
REMARK    2  A    between atoms: C8_8  and  O9_9 
REMARK    3  A    between atoms: C10_11  and  O11_12 
REMARK    4  A    between atoms: C16_18  and  O17_19 
REMARK    5  A    between atoms: C19_22  and  O20_23 
ROOT
HETATM    1  O1          0      19.498 113.430   2.629  1.00  0.00    -0.286 OA
HETATM    2  C2          0      19.730 112.653   3.595  1.00  0.00     0.201 C 
HETATM    3  C3          0      19.818 111.279   3.449  1.00  0.00     0.067 C 
HETATM    4  C4          0      19.971 110.438   4.546  1.00  0.00     0.103 C 
HETATM    5  O13         0      20.054 110.975   5.750  1.00  0.00    -0.307 OA
HETATM    6  C14         0      19.939 112.270   5.948  1.00  0.00     0.107 C 
HETATM    7  C15         0      19.626 112.794   7.194  1.00  0.00     0.049 C 
HETATM    8  C16         0      19.257 114.125   7.345  1.00  0.00     0.093 C 
HETATM    9  C18         0      19.721 114.979   6.352  1.00  0.00     0.048 C 
HETATM   10  C19         0      20.087 114.482   5.109  1.00  0.00     0.096 C 
HETATM   11  C21         0      20.007 113.138   4.864  1.00  0.00     0.084 C 
ENDROOT
BRANCH  10  12
HETATM   12  O20         0      20.125 115.343   4.016  1.00  0.00    -0.359 OA
HETATM   13  H20         0      20.265 114.965   3.157  1.00  0.00     0.218 HD
ENDBRANCH  10  12
BRANCH   4  14
HETATM   14  C5          0      19.465 109.070   4.417  1.00  0.00     0.025 C 
HETATM   15  C6          0      18.483 108.550   5.247  1.00  0.00     0.004 C 
HETATM   16  C7          0      17.534 107.710   4.675  1.00  0.00     0.026 C 
HETATM   17  C8          0      17.633 107.291   3.352  1.00  0.00     0.112 C 
HETATM   18  C10         0      18.917 107.332   2.826  1.00  0.00     0.112 C 
HETATM   19  C12         0      19.821 108.241   3.361  1.00  0.00     0.028 C 
BRANCH  17  20
HETATM   20  O9          0      16.498 107.066   2.593  1.00  0.00    -0.357 OA
HETATM   21  H9          0      16.245 106.212   2.263  1.00  0.00     0.218 HD
ENDBRANCH  17  20
BRANCH  18  22
HETATM   22  O11         0      19.104 106.751   1.580  1.00  0.00    -0.357 OA
HETATM   23  H11         0      18.333 106.648   1.033  1.00  0.00     0.218 HD
ENDBRANCH  18  22
ENDBRANCH   4  14
BRANCH   8  24
HETATM   24  O17         0      18.234 114.503   8.222  1.00  0.00    -0.359 OA
HETATM   25  H17         0      18.380 115.133   8.918  1.00  0.00     0.218 HD
ENDBRANCH   8  24
TORSDOF 5
ENDMDL
MODEL 3
REMARK VINA RESULT:      -2.4      2.570      6.497
REMARK  5 active torsions:
REMARK  status: ('A' for Active; 'I' for Inactive)
REMARK    1  A    between atoms: C4_4  and  C5_5 
REMARK    2  A    between atoms: C8_8  and  O9_9 
REMARK    3  A    between atoms: C10_11  and  O11_12 
REMARK    4  A    between atoms: C16_18  and  O17_19 
REMARK    5  A    between atoms: C19_22  and  O20_23 
ROOT
HETATM    1  O1          0      16.575 106.520   4.646  1.00  0.00    -0.286 OA
HETATM    2  C2          0      17.066 107.381   5.425  1.00  0.00     0.201 C 
HETATM    3  C3          0      17.617 108.570   4.978  1.00  0.00     0.067 C 
HETATM    4  C4          0      18.244 109.455   5.848  1.00  0.00     0.103 C 
HETATM    5  O13         0      18.293 109.154   7.134  1.00  0.00    -0.307 OA
HETATM    6  C14         0      17.819 108.022   7.605  1.00  0.00     0.107 C 
HETATM    7  C15         0      18.209 107.523   8.840  1.00  0.00     0.049 C 
HETATM    8  C16         0      17.910 106.220   9.219  1.00  0.00     0.093 C 
HETATM    9  C18         0      16.805 105.663   8.586  1.00  0.00     0.048 C 
HETATM   10  C19         0      16.359 106.168   7.372  1.00  0.00     0.096 C 
HETATM   11  C21         0      17.002 107.233   6.802  1.00  0.00     0.084 C 
ENDROOT
BRANCH  10  12
HETATM   12  O20         0      15.567 105.369   6.553  1.00  0.00    -0.359 OA
HETATM   13  H20         0      15.264 105.736   5.732  1.00  0.00     0.218 HD
ENDBRANCH  10  12
BRANCH   4  14
HETATM   14  C5          0      19.282 110.323   5.288  1.00  0.00     0.025 C 
HETATM   15  C6          0      19.838 110.117   4.034  1.00  0.00     0.004 C 
HETATM   16  C7          0      20.125 111.240   3.264  1.00  0.00     0.026 C 
HETATM   17  C8          0      19.991 112.527   3.774  1.00  0.00     0.112 C 
HETATM   18  C10         0      20.054 112.612   5.158  1.00  0.00     0.112 C 
HETATM   19  C12         0      19.679 111.502   5.905  1.00  0.00     0.028 C 
BRANCH  17  20
HETATM   20  O9          0      19.615 113.578   2.955  1.00  0.00    -0.357 OA
HETATM   21  H9          0      19.557 113.515   2.009  1.00  0.00     0.218 HD
ENDBRANCH  17  20
BRANCH  18  22
HETATM   22  O11         0      20.115 113.885   5.707  1.00  0.00    -0.357 OA
HETATM   23  H11         0      20.743 114.488   5.326  1.00  0.00     0.218 HD
ENDBRANCH  18  22
ENDBRANCH   4  14
BRANCH   8  24
HETATM   24  O17         0      18.835 105.432   9.913  1.00  0.00    -0.359 OA
HETATM   25  H17         0      18.565 104.677  10.422  1.00  0.00     0.218 HD
ENDBRANCH   8  24
TORSDOF 5
ENDMDL
MODEL 4
REMARK VINA RESULT:      -2.4      2.411      3.988
REMARK  5 active torsions:
REMARK  status: ('A' for Active; 'I' for Inactive)
REMARK    1  A    between atoms: C4_4  and  C5_5 
REMARK    2  A    between atoms: C8_8  and  O9_9 
REMARK    3  A    between atoms: C10_11  and  O11_12 
REMARK    4  A    between atoms: C16_18  and  O17_19 
REMARK    5  A    between atoms: C19_22  and  O20_23 
ROOT
HETATM    1  O1          0      20.104 109.301   3.679  1.00  0.00    -0.286 OA
HETATM    2  C2          0      19.067 108.773   4.166  1.00  0.00     0.201 C 
HETATM    3  C3          0      18.698 108.927   5.491  1.00  0.00     0.067 C 
HETATM    4  C4          0      17.607 108.252   6.027  1.00  0.00     0.103 C 
HETATM    5  O13         0      16.900 107.462   5.238  1.00  0.00    -0.307 OA
HETATM    6  C14         0      17.229 107.251   3.983  1.00  0.00     0.107 C 
HETATM    7  C15         0      16.759 106.153   3.278  1.00  0.00     0.049 C 
HETATM    8  C16         0      17.302 105.796   2.050  1.00  0.00     0.093 C 
HETATM    9  C18         0      17.909 106.835   1.353  1.00  0.00     0.048 C 
HETATM   10  C19         0      18.349 107.970   2.021  1.00  0.00     0.096 C 
HETATM   11  C21         0      18.169 108.074   3.373  1.00  0.00     0.084 C 
ENDROOT
BRANCH  10  12
HETATM   12  O20         0      19.313 108.777   1.426  1.00  0.00    -0.359 OA
HETATM   13  H20         0      20.132 108.374   1.165  1.00  0.00     0.218 HD
ENDBRANCH  10  12
BRANCH   4  14
HETATM   14  C5          0      17.631 107.974   7.464  1.00  0.00     0.025 C 
HETATM   15  C6          0      16.932 106.922   8.039  1.00  0.00     0.004 C 
HETATM   16  C7          0      17.545 106.235   9.081  1.00  0.00     0.026 C 
HETATM   17  C8          0      18.753 106.659   9.625  1.00  0.00     0.112 C 
HETATM   18  C10         0      19.031 108.007   9.438  1.00  0.00     0.112 C 
HETATM   19  C12         0      18.473 108.650   8.339  1.00  0.00     0.028 C 
BRANCH  17  20
HETATM   20  O9          0      19.670 105.747  10.115  1.00  0.00    -0.357 OA
HETATM   21  H9          0      20.496 105.991  10.515  1.00  0.00     0.218 HD
ENDBRANCH  17  20
BRANCH  18  22
HETATM   22  O11         0      20.124 108.523  10.118  1.00  0.00    -0.357 OA
HETATM   23  H11         0      20.701 109.099   9.630  1.00  0.00     0.218 HD
ENDBRANCH  18  22
ENDBRANCH   4  14
BRANCH   8  24
HETATM   24  O17         0      17.519 104.457   1.709  1.00  0.00    -0.359 OA
HETATM   25  H17         0      18.388 104.124   1.518  1.00  0.00     0.218 HD
ENDBRANCH   8  24
TORSDOF 5
ENDMDL
MODEL 5
REMARK VINA RESULT:      -2.4      2.844      4.686
REMARK  5 active torsions:
REMARK  status: ('A' for Active; 'I' for Inactive)
REMARK    1  A    between atoms: C4_4  and  C5_5 
REMARK    2  A    between atoms: C8_8  and  O9_9 
REMARK    3  A    between atoms: C10_11  and  O11_12 
REMARK    4  A    between atoms: C16_18  and  O17_19 
REMARK    5  A    between atoms: C19_22  and  O20_23 
ROOT
HETATM    1  O1          0      18.918 111.780   3.541  1.00  0.00    -0.286 OA
HETATM    2  C2          0      19.191 111.441   4.725  1.00  0.00     0.201 C 
HETATM    3  C3          0      19.019 110.150   5.194  1.00  0.00     0.067 C 
HETATM    4  C4          0      19.230 109.826   6.530  1.00  0.00     0.103 C 
HETATM    5  O13         0      19.623 110.777   7.359  1.00  0.00    -0.307 OA
HETATM    6  C14         0      19.765 112.026   6.973  1.00  0.00     0.107 C 
HETATM    7  C15         0      19.781 113.074   7.882  1.00  0.00     0.049 C 
HETATM    8  C16         0      19.675 114.395   7.462  1.00  0.00     0.093 C 
HETATM    9  C18         0      20.083 114.630   6.155  1.00  0.00     0.048 C 
HETATM   10  C19         0      20.124 113.594   5.231  1.00  0.00     0.096 C 
HETATM   11  C21         0      19.775 112.328   5.616  1.00  0.00     0.084 C 
ENDROOT
BRANCH  10  12
HETATM   12  O20         0      20.102 113.892   3.872  1.00  0.00    -0.359 OA
HETATM   13  H20         0      19.902 114.785   3.616  1.00  0.00     0.218 HD
ENDBRANCH  10  12
BRANCH   4  14
HETATM   14  C5          0      18.487 108.685   7.068  1.00  0.00     0.025 C 
HETATM   15  C6          0      18.589 108.277   8.390  1.00  0.00     0.004 C 
HETATM   16  C7          0      17.430 107.835   9.020  1.00  0.00     0.026 C 
HETATM   17  C8          0      16.236 107.677   8.323  1.00  0.00     0.112 C 
HETATM   18  C10         0      16.384 107.494   6.955  1.00  0.00     0.112 C 
HETATM   19  C12         0      17.512 108.019   6.336  1.00  0.00     0.028 C 
BRANCH  17  20
HETATM   20  O9          0      15.019 107.902   8.942  1.00  0.00    -0.357 OA
HETATM   21  H9          0      14.314 108.404   8.551  1.00  0.00     0.218 HD
ENDBRANCH  17  20
BRANCH  18  22
HETATM   22  O11         0      15.246 107.143   6.242  1.00  0.00    -0.357 OA
HETATM   23  H11         0      14.986 106.230   6.268  1.00  0.00     0.218 HD
ENDBRANCH  18  22
ENDBRANCH   4  14
BRANCH   8  24
HETATM   24  O17         0      18.910 115.326   8.173  1.00  0.00    -0.359 OA
HETATM   25  H17         0      18.424 116.013   7.732  1.00  0.00     0.218 HD
ENDBRANCH   8  24
TORSDOF 5
ENDMDL
MODEL 6
REMARK VINA RESULT:      -2.3      1.703      1.985
REMARK  5 active torsions:
REMARK  status: ('A' for Active; 'I' for Inactive)
REMARK    1  A    between atoms: C4_4  and  C5_5 
REMARK    2  A    between atoms: C8_8  and  O9_9 
REMARK    3  A    between atoms: C10_11  and  O11_12 
REMARK    4  A    between atoms: C16_18  and  O17_19 
REMARK    5  A    between atoms: C19_22  and  O20_23 
ROOT
HETATM    1  O1          0      16.034 109.622   2.761  1.00  0.00    -0.286 OA
HETATM    2  C2          0      17.064 109.590   3.489  1.00  0.00     0.201 C 
HETATM    3  C3          0      17.136 108.846   4.655  1.00  0.00     0.067 C 
HETATM    4  C4          0      18.244 108.909   5.492  1.00  0.00     0.103 C 
HETATM    5  O13         0      19.256 109.686   5.147  1.00  0.00    -0.307 OA
HETATM    6  C14         0      19.224 110.441   4.071  1.00  0.00     0.107 C 
HETATM    7  C15         0      20.072 111.528   3.915  1.00  0.00     0.049 C 
HETATM    8  C16         0      19.866 112.465   2.910  1.00  0.00     0.093 C 
HETATM    9  C18         0      19.158 111.999   1.809  1.00  0.00     0.048 C 
HETATM   10  C19         0      18.336 110.885   1.918  1.00  0.00     0.096 C 
HETATM   11  C21         0      18.235 110.231   3.116  1.00  0.00     0.084 C 
ENDROOT
BRANCH  10  12
HETATM   12  O20         0      17.326 110.690   0.981  1.00  0.00    -0.359 OA
HETATM   13  H20         0      17.331 111.232   0.201  1.00  0.00     0.218 HD
ENDBRANCH  10  12
BRANCH   4  14
HETATM   14  C5          0      18.029 108.620   6.911  1.00  0.00     0.025 C 
HETATM   15  C6          0      17.175 107.620   7.353  1.00  0.00     0.004 C 
HETATM   16  C7          0      17.569 106.879   8.462  1.00  0.00     0.026 C 
HETATM   17  C8          0      18.708 107.206   9.190  1.00  0.00     0.112 C 
HETATM   18  C10         0      19.112 108.529   9.072  1.00  0.00     0.112 C 
HETATM   19  C12         0      18.777 109.221   7.915  1.00  0.00     0.028 C 
BRANCH  17  20
HETATM   20  O9          0      19.470 106.221   9.795  1.00  0.00    -0.357 OA
HETATM   21  H9          0      20.120 105.701   9.337  1.00  0.00     0.218 HD
ENDBRANCH  17  20
BRANCH  18  22
HETATM   22  O11         0      20.125 108.955   9.920  1.00  0.00    -0.357 OA
HETATM   23  H11         0      19.885 109.571  10.602  1.00  0.00     0.218 HD
ENDBRANCH  18  22
ENDBRANCH   4  14
BRANCH   8  24
HETATM   24  O17         0      20.055 113.832   3.138  1.00  0.00    -0.359 OA
HETATM   25  H17         0      20.626 114.149   3.827  1.00  0.00     0.218 HD
ENDBRANCH   8  24
TORSDOF 5
ENDMDL
MODEL 7
REMARK VINA RESULT:      -2.3      2.925      5.906
REMARK  5 active torsions:
REMARK  status: ('A' for Active; 'I' for Inactive)
REMARK    1  A    between atoms: C4_4  and  C5_5 
REMARK    2  A    between atoms: C8_8  and  O9_9 
REMARK    3  A    between atoms: C10_11  and  O11_12 
REMARK    4  A    between atoms: C16_18  and  O17_19 
REMARK    5  A    between atoms: C19_22  and  O20_23 
ROOT
HETATM    1  O1          0      19.129 111.078   0.869  1.00  0.00    -0.286 OA
HETATM    2  C2          0      19.462 110.058   1.533  1.00  0.00     0.201 C 
HETATM    3  C3          0      19.461 108.781   0.999  1.00  0.00     0.067 C 
HETATM    4  C4          0      19.732 107.664   1.780  1.00  0.00     0.103 C 
HETATM    5  O13         0      20.016 107.838   3.059  1.00  0.00    -0.307 OA
HETATM    6  C14         0      19.994 109.025   3.625  1.00  0.00     0.107 C 
HETATM    7  C15         0      19.892 109.177   5.000  1.00  0.00     0.049 C 
HETATM    8  C16         0      19.614 110.413   5.571  1.00  0.00     0.093 C 
HETATM    9  C18         0      19.969 111.511   4.796  1.00  0.00     0.048 C 
HETATM   10  C19         0      20.125 111.383   3.422  1.00  0.00     0.096 C 
HETATM   11  C21         0      19.944 110.164   2.828  1.00  0.00     0.084 C 
ENDROOT
BRANCH  10  12
HETATM   12  O20         0      20.044 112.517   2.620  1.00  0.00    -0.359 OA
HETATM   13  H20         0      20.733 112.662   1.983  1.00  0.00     0.218 HD
ENDBRANCH  10  12
BRANCH   4  14
HETATM   14  C5          0      19.147 106.391   1.355  1.00  0.00     0.025 C 
HETATM   15  C6          0      19.844 105.457   0.604  1.00  0.00     0.004 C 
HETATM   16  C7          0      19.643 104.112   0.899  1.00  0.00     0.026 C 
HETATM   17  C8          0      18.682 103.703   1.817  1.00  0.00     0.112 C 
HETATM   18  C10         0      17.650 104.610   2.019  1.00  0.00     0.112 C 
HETATM   19  C12         0      17.904 105.958   1.798  1.00  0.00     0.028 C 
BRANCH  17  20
HETATM   20  O9          0      18.883 102.580   2.600  1.00  0.00    -0.357 OA
HETATM   21  H9          0      19.509 101.896   2.392  1.00  0.00     0.218 HD
ENDBRANCH  17  20
BRANCH  18  22
HETATM   22  O11         0      16.572 104.176   2.777  1.00  0.00    -0.357 OA
HETATM   23  H11         0      16.396 104.646   3.584  1.00  0.00     0.218 HD
ENDBRANCH  18  22
ENDBRANCH   4  14
BRANCH   8  24
HETATM   24  O17         0      18.750 110.534   6.665  1.00  0.00    -0.359 OA
HETATM   25  H17         0      18.536 111.379   7.041  1.00  0.00     0.218 HD
ENDBRANCH   8  24
TORSDOF 5
ENDMDL
MODEL 8
REMARK VINA RESULT:      -2.2      2.415      3.572
REMARK  5 active torsions:
REMARK  status: ('A' for Active; 'I' for Inactive)
REMARK    1  A    between atoms: C4_4  and  C5_5 
REMARK    2  A    between atoms: C8_8  and  O9_9 
REMARK    3  A    between atoms: C10_11  and  O11_12 
REMARK    4  A    between atoms: C16_18  and  O17_19 
REMARK    5  A    between atoms: C19_22  and  O20_23 
ROOT
HETATM    1  O1          0      16.461 107.252   4.232  1.00  0.00    -0.286 OA
HETATM    2  C2          0      17.633 107.711   4.151  1.00  0.00     0.201 C 
HETATM    3  C3          0      18.207 108.483   5.147  1.00  0.00     0.067 C 
HETATM    4  C4          0      19.461 109.061   4.988  1.00  0.00     0.103 C 
HETATM    5  O13         0      20.123 108.845   3.865  1.00  0.00    -0.307 OA
HETATM    6  C14         0      19.609 108.151   2.874  1.00  0.00     0.107 C 
HETATM    7  C15         0      20.099 108.251   1.580  1.00  0.00     0.049 C 
HETATM    8  C16         0      19.402 107.721   0.501  1.00  0.00     0.093 C 
HETATM    9  C18         0      18.538 106.679   0.815  1.00  0.00     0.048 C 
HETATM   10  C19         0      18.065 106.521   2.111  1.00  0.00     0.096 C 
HETATM   11  C21         0      18.466 107.388   3.090  1.00  0.00     0.084 C 
ENDROOT
BRANCH  10  12
HETATM   12  O20         0      16.903 105.785   2.327  1.00  0.00    -0.359 OA
HETATM   13  H20         0      16.766 105.414   3.189  1.00  0.00     0.218 HD
ENDBRANCH  10  12
BRANCH   4  14
HETATM   14  C5          0      19.734 110.286   5.743  1.00  0.00     0.025 C 
HETATM   15  C6          0      20.125 111.471   5.136  1.00  0.00     0.004 C 
HETATM   16  C7          0      19.614 112.658   5.653  1.00  0.00     0.026 C 
HETATM   17  C8          0      18.850 112.679   6.815  1.00  0.00     0.112 C 
HETATM   18  C10         0      19.049 111.594   7.659  1.00  0.00     0.112 C 
HETATM   19  C12         0      19.478 110.395   7.103  1.00  0.00     0.028 C 
BRANCH  17  20
HETATM   20  O9          0      17.834 113.604   6.979  1.00  0.00    -0.357 OA
HETATM   21  H9          0      17.088 113.677   6.395  1.00  0.00     0.218 HD
ENDBRANCH  17  20
BRANCH  18  22
HETATM   22  O11         0      18.457 111.657   8.913  1.00  0.00    -0.357 OA
HETATM   23  H11         0      17.529 111.462   8.960  1.00  0.00     0.218 HD
ENDBRANCH  18  22
ENDBRANCH   4  14
BRANCH   8  24
HETATM   24  O17         0      19.323 108.398  -0.721  1.00  0.00    -0.359 OA
HETATM   25  H17         0      20.031 108.950  -1.032  1.00  0.00     0.218 HD
ENDBRANCH   8  24
TORSDOF 5
ENDMDL
MODEL 9
REMARK VINA RESULT:      -2.2      1.944      6.681
REMARK  5 active torsions:
REMARK  status: ('A' for Active; 'I' for Inactive)
REMARK    1  A    between atoms: C4_4  and  C5_5 
REMARK    2  A    between atoms: C8_8  and  O9_9 
REMARK    3  A    between atoms: C10_11  and  O11_12 
REMARK    4  A    between atoms: C16_18  and  O17_19 
REMARK    5  A    between atoms: C19_22  and  O20_23 
ROOT
HETATM    1  O1          0      19.539 110.351   8.350  1.00  0.00    -0.286 OA
HETATM    2  C2          0      19.311 109.738   7.271  1.00  0.00     0.201 C 
HETATM    3  C3          0      20.002 109.999   6.100  1.00  0.00     0.067 C 
HETATM    4  C4          0      19.662 109.383   4.901  1.00  0.00     0.103 C 
HETATM    5  O13         0      18.667 108.513   4.894  1.00  0.00    -0.307 OA
HETATM    6  C14         0      17.955 108.257   5.970  1.00  0.00     0.107 C 
HETATM    7  C15         0      16.696 107.678   5.892  1.00  0.00     0.049 C 
HETATM    8  C16         0      15.849 107.644   6.993  1.00  0.00     0.093 C 
HETATM    9  C18         0      16.485 107.710   8.226  1.00  0.00     0.048 C 
HETATM   10  C19         0      17.764 108.241   8.333  1.00  0.00     0.096 C 
HETATM   11  C21         0      18.409 108.687   7.212  1.00  0.00     0.084 C 
ENDROOT
BRANCH  10  12
HETATM   12  O20         0      18.209 108.701   9.568  1.00  0.00    -0.359 OA
HETATM   13  H20         0      17.933 109.566   9.847  1.00  0.00     0.218 HD
ENDBRANCH  10  12
BRANCH   4  14
HETATM   14  C5          0      19.979 110.101   3.665  1.00  0.00     0.025 C 
HETATM   15  C6          0      20.034 109.478   2.427  1.00  0.00     0.004 C 
HETATM   16  C7          0      19.544 110.180   1.330  1.00  0.00     0.026 C 
HETATM   17  C8          0      19.137 111.506   1.435  1.00  0.00     0.112 C 
HETATM   18  C10         0      19.696 112.202   2.499  1.00  0.00     0.112 C 
HETATM   19  C12         0      20.100 111.484   3.618  1.00  0.00     0.028 C 
BRANCH  17  20
HETATM   20  O9          0      18.100 111.993   0.660  1.00  0.00    -0.357 OA
HETATM   21  H9          0      17.466 111.439   0.217  1.00  0.00     0.218 HD
ENDBRANCH  17  20
BRANCH  18  22
HETATM   22  O11         0      19.474 113.571   2.541  1.00  0.00    -0.357 OA
HETATM   23  H11         0      20.241 114.131   2.530  1.00  0.00     0.218 HD
ENDBRANCH  18  22
ENDBRANCH   4  14
BRANCH   8  24
HETATM   24  O17         0      14.474 107.868   6.861  1.00  0.00    -0.359 OA
HETATM   25  H17         0      13.958 107.431   6.194  1.00  0.00     0.218 HD
ENDBRANCH   8  24
TORSDOF 5
ENDMDL
