MODEL 1
REMARK VINA RESULT:      -3.8      0.000      0.000
REMARK  5 active torsions:
REMARK  status: ('A' for Active; 'I' for Inactive)
REMARK    1  A    between atoms: C4_4  and  C5_5 
REMARK    2  A    between atoms: C8_8  and  O9_9 
REMARK    3  A    between atoms: C10_11  and  O11_12 
REMARK    4  A    between atoms: C16_18  and  O17_19 
REMARK    5  A    between atoms: C19_22  and  O20_23 
ROOT
HETATM    1  O1          0      32.471  44.367 -27.039  1.00  0.00    -0.286 OA
HETATM    2  C2          0      31.226  44.355 -27.241  1.00  0.00     0.201 C 
HETATM    3  C3          0      30.601  45.219 -28.124  1.00  0.00     0.067 C 
HETATM    4  C4          0      29.217  45.254 -28.251  1.00  0.00     0.103 C 
HETATM    5  O13         0      28.491  44.425 -27.522  1.00  0.00    -0.307 OA
HETATM    6  C14         0      29.032  43.611 -26.642  1.00  0.00     0.107 C 
HETATM    7  C15         0      28.289  43.046 -25.616  1.00  0.00     0.049 C 
HETATM    8  C16         0      28.904  42.400 -24.550  1.00  0.00     0.093 C 
HETATM    9  C18         0      30.171  41.897 -24.821  1.00  0.00     0.048 C 
HETATM   10  C19         0      30.923  42.407 -25.871  1.00  0.00     0.096 C 
HETATM   11  C21         0      30.407  43.403 -26.655  1.00  0.00     0.084 C 
ENDROOT
BRANCH  10  12
HETATM   12  O20         0      32.303  42.227 -25.869  1.00  0.00    -0.359 OA
HETATM   13  H20         0      32.636  41.339 -25.912  1.00  0.00     0.218 HD
ENDBRANCH  10  12
BRANCH   4  14
HETATM   14  C5          0      28.616  46.514 -28.693  1.00  0.00     0.025 C 
HETATM   15  C6          0      27.245  46.706 -28.775  1.00  0.00     0.004 C 
HETATM   16  C7          0      26.744  47.949 -28.403  1.00  0.00     0.026 C 
HETATM   17  C8          0      27.586  49.010 -28.088  1.00  0.00     0.112 C 
HETATM   18  C10         0      28.860  48.921 -28.633  1.00  0.00     0.112 C 
HETATM   19  C12         0      29.370  47.659 -28.917  1.00  0.00     0.028 C 
BRANCH  17  20
HETATM   20  O9          0      27.221  49.947 -27.137  1.00  0.00    -0.357 OA
HETATM   21  H9          0      26.866  49.722 -26.285  1.00  0.00     0.218 HD
ENDBRANCH  17  20
BRANCH  18  22
HETATM   22  O11         0      29.676  50.036 -28.509  1.00  0.00    -0.357 OA
HETATM   23  H11         0      30.516  50.006 -28.952  1.00  0.00     0.218 HD
ENDBRANCH  18  22
ENDBRANCH   4  14
BRANCH   8  24
HETATM   24  O17         0      28.436  42.547 -23.240  1.00  0.00    -0.359 OA
HETATM   25  H17         0      28.985  42.355 -22.489  1.00  0.00     0.218 HD
ENDBRANCH   8  24
TORSDOF 5
ENDMDL
MODEL 2
REMARK VINA RESULT:      -3.8      3.772      5.542
REMARK  5 active torsions:
REMARK  status: ('A' for Active; 'I' for Inactive)
REMARK    1  A    between atoms: C4_4  and  C5_5 
REMARK    2  A    between atoms: C8_8  and  O9_9 
REMARK    3  A    between atoms: C10_11  and  O11_12 
REMARK    4  A    between atoms: C16_18  and  O17_19 
REMARK    5  A    between atoms: C19_22  and  O20_23 
ROOT
HETATM    1  O1          0      32.263  40.221 -25.088  1.00  0.00    -0.286 OA
HETATM    2  C2          0      31.822  41.073 -25.907  1.00  0.00     0.201 C 
HETATM    3  C3          0      32.487  41.403 -27.076  1.00  0.00     0.067 C 
HETATM    4  C4          0      32.032  42.419 -27.910  1.00  0.00     0.103 C 
HETATM    5  O13         0      30.928  43.065 -27.580  1.00  0.00    -0.307 OA
HETATM    6  C14         0      30.280  42.816 -26.463  1.00  0.00     0.107 C 
HETATM    7  C15         0      29.384  43.726 -25.920  1.00  0.00     0.049 C 
HETATM    8  C16         0      28.900  43.577 -24.626  1.00  0.00     0.093 C 
HETATM    9  C18         0      28.918  42.275 -24.139  1.00  0.00     0.048 C 
HETATM   10  C19         0      29.769  41.327 -24.691  1.00  0.00     0.096 C 
HETATM   11  C21         0      30.584  41.672 -25.734  1.00  0.00     0.084 C 
ENDROOT
BRANCH  10  12
HETATM   12  O20         0      30.100  40.197 -23.949  1.00  0.00    -0.359 OA
HETATM   13  H20         0      30.957  39.812 -24.084  1.00  0.00     0.218 HD
ENDBRANCH  10  12
BRANCH   4  14
HETATM   14  C5          0      33.029  43.103 -28.736  1.00  0.00     0.025 C 
HETATM   15  C6          0      32.871  44.409 -29.178  1.00  0.00     0.004 C 
HETATM   16  C7          0      34.001  45.220 -29.205  1.00  0.00     0.026 C 
HETATM   17  C8          0      35.268  44.717 -28.933  1.00  0.00     0.112 C 
HETATM   18  C10         0      35.403  43.349 -29.132  1.00  0.00     0.112 C 
HETATM   19  C12         0      34.272  42.550 -29.014  1.00  0.00     0.028 C 
BRANCH  17  20
HETATM   20  O9          0      36.225  45.501 -28.314  1.00  0.00    -0.357 OA
HETATM   21  H9          0      37.155  45.305 -28.323  1.00  0.00     0.218 HD
ENDBRANCH  17  20
BRANCH  18  22
HETATM   22  O11         0      36.687  42.827 -29.058  1.00  0.00    -0.357 OA
HETATM   23  H11         0      37.383  43.340 -29.452  1.00  0.00     0.218 HD
ENDBRANCH  18  22
ENDBRANCH   4  14
BRANCH   8  24
HETATM   24  O17         0      28.733  44.678 -23.778  1.00  0.00    -0.359 OA
HETATM   25  H17         0      28.386  45.503 -24.095  1.00  0.00     0.218 HD
ENDBRANCH   8  24
TORSDOF 5
ENDMDL
MODEL 3
REMARK VINA RESULT:      -3.6      3.413      5.770
REMARK  5 active torsions:
REMARK  status: ('A' for Active; 'I' for Inactive)
REMARK    1  A    between atoms: C4_4  and  C5_5 
REMARK    2  A    between atoms: C8_8  and  O9_9 
REMARK    3  A    between atoms: C10_11  and  O11_12 
REMARK    4  A    between atoms: C16_18  and  O17_19 
REMARK    5  A    between atoms: C19_22  and  O20_23 
ROOT
HETATM    1  O1          0      30.251  40.148 -24.379  1.00  0.00    -0.286 OA
HETATM    2  C2          0      29.863  41.347 -24.320  1.00  0.00     0.201 C 
HETATM    3  C3          0      28.891  41.779 -23.433  1.00  0.00     0.067 C 
HETATM    4  C4          0      28.409  43.082 -23.460  1.00  0.00     0.103 C 
HETATM    5  O13         0      28.910  43.927 -24.343  1.00  0.00    -0.307 OA
HETATM    6  C14         0      29.806  43.559 -25.232  1.00  0.00     0.107 C 
HETATM    7  C15         0      30.036  44.294 -26.386  1.00  0.00     0.049 C 
HETATM    8  C16         0      30.789  43.777 -27.434  1.00  0.00     0.093 C 
HETATM    9  C18         0      31.696  42.789 -27.072  1.00  0.00     0.048 C 
HETATM   10  C19         0      31.522  42.065 -25.900  1.00  0.00     0.096 C 
HETATM   11  C21         0      30.457  42.339 -25.085  1.00  0.00     0.084 C 
ENDROOT
BRANCH  10  12
HETATM   12  O20         0      32.147  40.830 -25.764  1.00  0.00    -0.359 OA
HETATM   13  H20         0      32.032  40.360 -24.946  1.00  0.00     0.218 HD
ENDBRANCH  10  12
BRANCH   4  14
HETATM   14  C5          0      27.047  43.302 -22.967  1.00  0.00     0.025 C 
HETATM   15  C6          0      26.572  42.737 -21.793  1.00  0.00     0.004 C 
HETATM   16  C7          0      25.733  43.512 -20.999  1.00  0.00     0.026 C 
HETATM   17  C8          0      25.272  44.755 -21.419  1.00  0.00     0.112 C 
HETATM   18  C10         0      25.272  44.937 -22.796  1.00  0.00     0.112 C 
HETATM   19  C12         0      26.180  44.212 -23.558  1.00  0.00     0.028 C 
BRANCH  17  20
HETATM   20  O9          0      25.046  45.772 -20.509  1.00  0.00    -0.357 OA
HETATM   21  H9          0      25.333  46.669 -20.638  1.00  0.00     0.218 HD
ENDBRANCH  17  20
BRANCH  18  22
HETATM   22  O11         0      24.650  46.080 -23.278  1.00  0.00    -0.357 OA
HETATM   23  H11         0      24.824  46.316 -24.182  1.00  0.00     0.218 HD
ENDBRANCH  18  22
ENDBRANCH   4  14
BRANCH   8  24
HETATM   24  O17         0      30.423  43.988 -28.768  1.00  0.00    -0.359 OA
HETATM   25  H17         0      29.690  43.532 -29.162  1.00  0.00     0.218 HD
ENDBRANCH   8  24
TORSDOF 5
ENDMDL
MODEL 4
REMARK VINA RESULT:      -3.5      3.138      5.792
REMARK  5 active torsions:
REMARK  status: ('A' for Active; 'I' for Inactive)
REMARK    1  A    between atoms: C4_4  and  C5_5 
REMARK    2  A    between atoms: C8_8  and  O9_9 
REMARK    3  A    between atoms: C10_11  and  O11_12 
REMARK    4  A    between atoms: C16_18  and  O17_19 
REMARK    5  A    between atoms: C19_22  and  O20_23 
ROOT
HETATM    1  O1          0      29.143  45.520 -28.269  1.00  0.00    -0.286 OA
HETATM    2  C2          0      30.240  45.084 -27.826  1.00  0.00     0.201 C 
HETATM    3  C3          0      31.467  45.515 -28.302  1.00  0.00     0.067 C 
HETATM    4  C4          0      32.658  44.944 -27.869  1.00  0.00     0.103 C 
HETATM    5  O13         0      32.609  43.981 -26.966  1.00  0.00    -0.307 OA
HETATM    6  C14         0      31.470  43.509 -26.509  1.00  0.00     0.107 C 
HETATM    7  C15         0      31.388  42.269 -25.890  1.00  0.00     0.049 C 
HETATM    8  C16         0      30.160  41.667 -25.641  1.00  0.00     0.093 C 
HETATM    9  C18         0      29.086  42.544 -25.540  1.00  0.00     0.048 C 
HETATM   10  C19         0      29.153  43.809 -26.107  1.00  0.00     0.096 C 
HETATM   11  C21         0      30.291  44.203 -26.756  1.00  0.00     0.084 C 
ENDROOT
BRANCH  10  12
HETATM   12  O20         0      27.973  44.493 -26.385  1.00  0.00    -0.359 OA
HETATM   13  H20         0      27.684  44.533 -27.289  1.00  0.00     0.218 HD
ENDBRANCH  10  12
BRANCH   4  14
HETATM   14  C5          0      33.796  44.989 -28.789  1.00  0.00     0.025 C 
HETATM   15  C6          0      34.108  46.111 -29.544  1.00  0.00     0.004 C 
HETATM   16  C7          0      35.454  46.418 -29.716  1.00  0.00     0.026 C 
HETATM   17  C8          0      36.460  45.568 -29.268  1.00  0.00     0.112 C 
HETATM   18  C10         0      36.074  44.242 -29.119  1.00  0.00     0.112 C 
HETATM   19  C12         0      34.735  43.969 -28.863  1.00  0.00     0.028 C 
BRANCH  17  20
HETATM   20  O9          0      37.666  46.072 -28.815  1.00  0.00    -0.357 OA
HETATM   21  H9          0      38.159  45.696 -28.095  1.00  0.00     0.218 HD
ENDBRANCH  17  20
BRANCH  18  22
HETATM   22  O11         0      37.078  43.321 -28.858  1.00  0.00    -0.357 OA
HETATM   23  H11         0      37.712  43.168 -29.550  1.00  0.00     0.218 HD
ENDBRANCH  18  22
ENDBRANCH   4  14
BRANCH   8  24
HETATM   24  O17         0      29.973  40.292 -25.818  1.00  0.00    -0.359 OA
HETATM   25  H17         0      30.437  39.653 -25.289  1.00  0.00     0.218 HD
ENDBRANCH   8  24
TORSDOF 5
ENDMDL
MODEL 5
REMARK VINA RESULT:      -3.5      3.329      8.586
REMARK  5 active torsions:
REMARK  status: ('A' for Active; 'I' for Inactive)
REMARK    1  A    between atoms: C4_4  and  C5_5 
REMARK    2  A    between atoms: C8_8  and  O9_9 
REMARK    3  A    between atoms: C10_11  and  O11_12 
REMARK    4  A    between atoms: C16_18  and  O17_19 
REMARK    5  A    between atoms: C19_22  and  O20_23 
ROOT
HETATM    1  O1          0      28.342  42.851 -23.380  1.00  0.00    -0.286 OA
HETATM    2  C2          0      29.159  42.123 -24.008  1.00  0.00     0.201 C 
HETATM    3  C3          0      29.489  40.842 -23.599  1.00  0.00     0.067 C 
HETATM    4  C4          0      30.468  40.099 -24.249  1.00  0.00     0.103 C 
HETATM    5  O13         0      31.078  40.630 -25.294  1.00  0.00    -0.307 OA
HETATM    6  C14         0      30.828  41.855 -25.701  1.00  0.00     0.107 C 
HETATM    7  C15         0      31.714  42.551 -26.512  1.00  0.00     0.049 C 
HETATM    8  C16         0      31.574  43.917 -26.728  1.00  0.00     0.093 C 
HETATM    9  C18         0      30.286  44.409 -26.560  1.00  0.00     0.048 C 
HETATM   10  C19         0      29.359  43.714 -25.794  1.00  0.00     0.096 C 
HETATM   11  C21         0      29.713  42.527 -25.212  1.00  0.00     0.084 C 
ENDROOT
BRANCH  10  12
HETATM   12  O20         0      28.259  44.391 -25.277  1.00  0.00    -0.359 OA
HETATM   13  H20         0      27.536  43.875 -24.943  1.00  0.00     0.218 HD
ENDBRANCH  10  12
BRANCH   4  14
HETATM   14  C5          0      31.173  39.085 -23.462  1.00  0.00     0.025 C 
HETATM   15  C6          0      32.110  38.224 -24.013  1.00  0.00     0.004 C 
HETATM   16  C7          0      33.230  37.915 -23.248  1.00  0.00     0.026 C 
HETATM   17  C8          0      33.351  38.339 -21.929  1.00  0.00     0.112 C 
HETATM   18  C10         0      32.147  38.620 -21.297  1.00  0.00     0.112 C 
HETATM   19  C12         0      31.066  39.009 -22.080  1.00  0.00     0.028 C 
BRANCH  17  20
HETATM   20  O9          0      34.590  38.647 -21.394  1.00  0.00    -0.357 OA
HETATM   21  H9          0      35.396  38.652 -21.898  1.00  0.00     0.218 HD
ENDBRANCH  17  20
BRANCH  18  22
HETATM   22  O11         0      32.195  38.863 -19.932  1.00  0.00    -0.357 OA
HETATM   23  H11         0      32.227  39.773 -19.658  1.00  0.00     0.218 HD
ENDBRANCH  18  22
ENDBRANCH   4  14
BRANCH   8  24
HETATM   24  O17         0      32.686  44.766 -26.771  1.00  0.00    -0.359 OA
HETATM   25  H17         0      32.942  45.291 -26.023  1.00  0.00     0.218 HD
ENDBRANCH   8  24
TORSDOF 5
ENDMDL
MODEL 6
REMARK VINA RESULT:      -3.5      3.638      8.890
REMARK  5 active torsions:
REMARK  status: ('A' for Active; 'I' for Inactive)
REMARK    1  A    between atoms: C4_4  and  C5_5 
REMARK    2  A    between atoms: C8_8  and  O9_9 
REMARK    3  A    between atoms: C10_11  and  O11_12 
REMARK    4  A    between atoms: C16_18  and  O17_19 
REMARK    5  A    between atoms: C19_22  and  O20_23 
ROOT
HETATM    1  O1          0      27.720  43.236 -23.246  1.00  0.00    -0.286 OA
HETATM    2  C2          0      28.603  42.416 -23.620  1.00  0.00     0.201 C 
HETATM    3  C3          0      28.898  41.259 -22.919  1.00  0.00     0.067 C 
HETATM    4  C4          0      29.944  40.425 -23.296  1.00  0.00     0.103 C 
HETATM    5  O13         0      30.655  40.742 -24.364  1.00  0.00    -0.307 OA
HETATM    6  C14         0      30.441  41.847 -25.043  1.00  0.00     0.107 C 
HETATM    7  C15         0      31.402  42.383 -25.889  1.00  0.00     0.049 C 
HETATM    8  C16         0      31.276  43.668 -26.402  1.00  0.00     0.093 C 
HETATM    9  C18         0      29.973  44.147 -26.472  1.00  0.00     0.048 C 
HETATM   10  C19         0      28.977  43.602 -25.673  1.00  0.00     0.096 C 
HETATM   11  C21         0      29.276  42.574 -24.822  1.00  0.00     0.084 C 
ENDROOT
BRANCH  10  12
HETATM   12  O20         0      27.824  44.341 -25.425  1.00  0.00    -0.359 OA
HETATM   13  H20         0      27.896  45.288 -25.416  1.00  0.00     0.218 HD
ENDBRANCH  10  12
BRANCH   4  14
HETATM   14  C5          0      30.570  39.619 -22.246  1.00  0.00     0.025 C 
HETATM   15  C6          0      30.146  39.644 -20.926  1.00  0.00     0.004 C 
HETATM   16  C7          0      30.145  38.441 -20.226  1.00  0.00     0.026 C 
HETATM   17  C8          0      30.673  37.278 -20.775  1.00  0.00     0.112 C 
HETATM   18  C10         0      31.608  37.484 -21.780  1.00  0.00     0.112 C 
HETATM   19  C12         0      31.533  38.657 -22.521  1.00  0.00     0.028 C 
BRANCH  17  20
HETATM   20  O9          0      30.133  36.041 -20.469  1.00  0.00    -0.357 OA
HETATM   21  H9          0      29.238  35.792 -20.670  1.00  0.00     0.218 HD
ENDBRANCH  17  20
BRANCH  18  22
HETATM   22  O11         0      32.303  36.370 -22.230  1.00  0.00    -0.357 OA
HETATM   23  H11         0      32.963  36.515 -22.898  1.00  0.00     0.218 HD
ENDBRANCH  18  22
ENDBRANCH   4  14
BRANCH   8  24
HETATM   24  O17         0      32.380  44.521 -26.513  1.00  0.00    -0.359 OA
HETATM   25  H17         0      32.466  45.299 -25.975  1.00  0.00     0.218 HD
ENDBRANCH   8  24
TORSDOF 5
ENDMDL
MODEL 7
REMARK VINA RESULT:      -3.3      3.976      6.673
REMARK  5 active torsions:
REMARK  status: ('A' for Active; 'I' for Inactive)
REMARK    1  A    between atoms: C4_4  and  C5_5 
REMARK    2  A    between atoms: C8_8  and  O9_9 
REMARK    3  A    between atoms: C10_11  and  O11_12 
REMARK    4  A    between atoms: C16_18  and  O17_19 
REMARK    5  A    between atoms: C19_22  and  O20_23 
ROOT
HETATM    1  O1          0      24.694  42.946 -25.696  1.00  0.00    -0.286 OA
HETATM    2  C2          0      25.575  43.390 -24.910  1.00  0.00     0.201 C 
HETATM    3  C3          0      26.921  43.427 -25.235  1.00  0.00     0.067 C 
HETATM    4  C4          0      27.882  43.824 -24.313  1.00  0.00     0.103 C 
HETATM    5  O13         0      27.490  44.192 -23.106  1.00  0.00    -0.307 OA
HETATM    6  C14         0      26.230  44.139 -22.733  1.00  0.00     0.107 C 
HETATM    7  C15         0      25.863  44.132 -21.396  1.00  0.00     0.049 C 
HETATM    8  C16         0      24.565  43.822 -21.005  1.00  0.00     0.093 C 
HETATM    9  C18         0      23.592  44.050 -21.970  1.00  0.00     0.048 C 
HETATM   10  C19         0      23.932  44.110 -23.315  1.00  0.00     0.096 C 
HETATM   11  C21         0      25.239  43.961 -23.692  1.00  0.00     0.084 C 
ENDROOT
BRANCH  10  12
HETATM   12  O20         0      22.947  43.900 -24.276  1.00  0.00    -0.359 OA
HETATM   13  H20         0      22.142  43.477 -24.003  1.00  0.00     0.218 HD
ENDBRANCH  10  12
BRANCH   4  14
HETATM   14  C5          0      29.234  43.288 -24.482  1.00  0.00     0.025 C 
HETATM   15  C6          0      29.545  41.952 -24.270  1.00  0.00     0.004 C 
HETATM   16  C7          0      30.463  41.360 -25.132  1.00  0.00     0.026 C 
HETATM   17  C8          0      31.150  42.101 -26.088  1.00  0.00     0.112 C 
HETATM   18  C10         0      31.252  43.457 -25.807  1.00  0.00     0.112 C 
HETATM   19  C12         0      30.273  44.042 -25.012  1.00  0.00     0.028 C 
BRANCH  17  20
HETATM   20  O9          0      31.500  41.540 -27.303  1.00  0.00    -0.357 OA
HETATM   21  H9          0      31.430  41.996 -28.134  1.00  0.00     0.218 HD
ENDBRANCH  17  20
BRANCH  18  22
HETATM   22  O11         0      32.084  44.208 -26.625  1.00  0.00    -0.357 OA
HETATM   23  H11         0      33.012  44.198 -26.419  1.00  0.00     0.218 HD
ENDBRANCH  18  22
ENDBRANCH   4  14
BRANCH   8  24
HETATM   24  O17         0      24.312  43.037 -19.875  1.00  0.00    -0.359 OA
HETATM   25  H17         0      24.967  42.908 -19.200  1.00  0.00     0.218 HD
ENDBRANCH   8  24
TORSDOF 5
ENDMDL
MODEL 8
REMARK VINA RESULT:      -3.3      3.216      5.893
REMARK  5 active torsions:
REMARK  status: ('A' for Active; 'I' for Inactive)
REMARK    1  A    between atoms: C4_4  and  C5_5 
REMARK    2  A    between atoms: C8_8  and  O9_9 
REMARK    3  A    between atoms: C10_11  and  O11_12 
REMARK    4  A    between atoms: C16_18  and  O17_19 
REMARK    5  A    between atoms: C19_22  and  O20_23 
ROOT
HETATM    1  O1          0      33.408  41.678 -29.936  1.00  0.00    -0.286 OA
HETATM    2  C2          0      33.095  42.457 -28.995  1.00  0.00     0.201 C 
HETATM    3  C3          0      32.218  42.099 -27.985  1.00  0.00     0.067 C 
HETATM    4  C4          0      31.810  43.010 -27.017  1.00  0.00     0.103 C 
HETATM    5  O13         0      32.292  44.240 -27.060  1.00  0.00    -0.307 OA
HETATM    6  C14         0      33.098  44.642 -28.018  1.00  0.00     0.107 C 
HETATM    7  C15         0      33.283  45.988 -28.300  1.00  0.00     0.049 C 
HETATM    8  C16         0      33.925  46.400 -29.462  1.00  0.00     0.093 C 
HETATM    9  C18         0      34.799  45.469 -30.011  1.00  0.00     0.048 C 
HETATM   10  C19         0      34.671  44.119 -29.713  1.00  0.00     0.096 C 
HETATM   11  C21         0      33.687  43.703 -28.858  1.00  0.00     0.084 C 
ENDROOT
BRANCH  10  12
HETATM   12  O20         0      35.232  43.177 -30.570  1.00  0.00    -0.359 OA
HETATM   13  H20         0      35.106  43.294 -31.504  1.00  0.00     0.218 HD
ENDBRANCH  10  12
BRANCH   4  14
HETATM   14  C5          0      30.504  42.786 -26.395  1.00  0.00     0.025 C 
HETATM   15  C6          0      30.349  42.107 -25.195  1.00  0.00     0.004 C 
HETATM   16  C7          0      29.387  42.578 -24.307  1.00  0.00     0.026 C 
HETATM   17  C8          0      28.516  43.605 -24.653  1.00  0.00     0.112 C 
HETATM   18  C10         0      28.325  43.768 -26.018  1.00  0.00     0.112 C 
HETATM   19  C12         0      29.339  43.367 -26.880  1.00  0.00     0.028 C 
BRANCH  17  20
HETATM   20  O9          0      28.066  44.503 -23.702  1.00  0.00    -0.357 OA
HETATM   21  H9          0      27.629  45.321 -23.912  1.00  0.00     0.218 HD
ENDBRANCH  17  20
BRANCH  18  22
HETATM   22  O11         0      27.327  44.648 -26.413  1.00  0.00    -0.357 OA
HETATM   23  H11         0      27.068  44.623 -27.327  1.00  0.00     0.218 HD
ENDBRANCH  18  22
ENDBRANCH   4  14
BRANCH   8  24
HETATM   24  O17         0      33.475  47.506 -30.191  1.00  0.00    -0.359 OA
HETATM   25  H17         0      33.837  48.374 -30.056  1.00  0.00     0.218 HD
ENDBRANCH   8  24
TORSDOF 5
ENDMDL
MODEL 9
REMARK VINA RESULT:      -3.2      3.296      6.881
REMARK  5 active torsions:
REMARK  status: ('A' for Active; 'I' for Inactive)
REMARK    1  A    between atoms: C4_4  and  C5_5 
REMARK    2  A    between atoms: C8_8  and  O9_9 
REMARK    3  A    between atoms: C10_11  and  O11_12 
REMARK    4  A    between atoms: C16_18  and  O17_19 
REMARK    5  A    between atoms: C19_22  and  O20_23 
ROOT
HETATM    1  O1          0      31.524  46.542 -29.650  1.00  0.00    -0.286 OA
HETATM    2  C2          0      32.036  45.504 -29.146  1.00  0.00     0.201 C 
HETATM    3  C3          0      31.359  44.692 -28.252  1.00  0.00     0.067 C 
HETATM    4  C4          0      31.981  43.614 -27.633  1.00  0.00     0.103 C 
HETATM    5  O13         0      33.243  43.354 -27.927  1.00  0.00    -0.307 OA
HETATM    6  C14         0      33.942  44.115 -28.740  1.00  0.00     0.107 C 
HETATM    7  C15         0      35.329  44.099 -28.745  1.00  0.00     0.049 C 
HETATM    8  C16         0      36.061  45.074 -29.413  1.00  0.00     0.093 C 
HETATM    9  C18         0      35.390  45.697 -30.459  1.00  0.00     0.048 C 
HETATM   10  C19         0      34.003  45.692 -30.510  1.00  0.00     0.096 C 
HETATM   11  C21         0      33.290  45.055 -29.531  1.00  0.00     0.084 C 
ENDROOT
BRANCH  10  12
HETATM   12  O20         0      33.347  46.651 -31.275  1.00  0.00    -0.359 OA
HETATM   13  H20         0      33.739  46.906 -32.102  1.00  0.00     0.218 HD
ENDBRANCH  10  12
BRANCH   4  14
HETATM   14  C5          0      31.462  43.200 -26.328  1.00  0.00     0.025 C 
HETATM   15  C6          0      30.742  44.051 -25.501  1.00  0.00     0.004 C 
HETATM   16  C7          0      29.676  43.509 -24.792  1.00  0.00     0.026 C 
HETATM   17  C8          0      29.414  42.143 -24.797  1.00  0.00     0.112 C 
HETATM   18  C10         0      30.509  41.345 -25.103  1.00  0.00     0.112 C 
HETATM   19  C12         0      31.522  41.885 -25.886  1.00  0.00     0.028 C 
BRANCH  17  20
HETATM   20  O9          0      28.117  41.669 -24.712  1.00  0.00    -0.357 OA
HETATM   21  H9          0      27.859  40.932 -24.171  1.00  0.00     0.218 HD
ENDBRANCH  17  20
BRANCH  18  22
HETATM   22  O11         0      30.353  39.975 -24.939  1.00  0.00    -0.357 OA
HETATM   23  H11         0      30.011  39.489 -25.680  1.00  0.00     0.218 HD
ENDBRANCH  18  22
ENDBRANCH   4  14
BRANCH   8  24
HETATM   24  O17         0      37.230  45.612 -28.864  1.00  0.00    -0.359 OA
HETATM   25  H17         0      37.319  45.765 -27.931  1.00  0.00     0.218 HD
ENDBRANCH   8  24
TORSDOF 5
ENDMDL
