MODEL 1
REMARK VINA RESULT:      -6.6      0.000      0.000
REMARK  5 active torsions:
REMARK  status: ('A' for Active; 'I' for Inactive)
REMARK    1  A    between atoms: C4_4  and  C5_5 
REMARK    2  A    between atoms: C8_8  and  O9_9 
REMARK    3  A    between atoms: C10_11  and  O11_12 
REMARK    4  A    between atoms: C16_18  and  O17_19 
REMARK    5  A    between atoms: C19_22  and  O20_23 
ROOT
HETATM    1  O1          0      26.070  21.595  25.496  1.00  0.00    -0.286 OA
HETATM    2  C2          0      26.734  22.354  24.739  1.00  0.00     0.201 C 
HETATM    3  C3          0      26.745  23.732  24.879  1.00  0.00     0.067 C 
HETATM    4  C4          0      27.404  24.551  23.969  1.00  0.00     0.103 C 
HETATM    5  O13         0      28.048  23.991  22.961  1.00  0.00    -0.307 OA
HETATM    6  C14         0      28.038  22.691  22.761  1.00  0.00     0.107 C 
HETATM    7  C15         0      28.354  22.139  21.528  1.00  0.00     0.049 C 
HETATM    8  C16         0      28.099  20.802  21.249  1.00  0.00     0.093 C 
HETATM    9  C18         0      28.033  19.972  22.362  1.00  0.00     0.048 C 
HETATM   10  C19         0      27.765  20.498  23.618  1.00  0.00     0.096 C 
HETATM   11  C21         0      27.581  21.846  23.766  1.00  0.00     0.084 C 
ENDROOT
BRANCH  10  12
HETATM   12  O20         0      27.276  19.660  24.616  1.00  0.00    -0.359 OA
HETATM   13  H20         0      27.899  19.285  25.227  1.00  0.00     0.218 HD
ENDBRANCH  10  12
BRANCH   4  14
HETATM   14  C5          0      26.900  25.917  23.812  1.00  0.00     0.025 C 
HETATM   15  C6          0      25.765  26.379  24.461  1.00  0.00     0.004 C 
HETATM   16  C7          0      25.781  27.687  24.935  1.00  0.00     0.026 C 
HETATM   17  C8          0      26.835  28.551  24.658  1.00  0.00     0.112 C 
HETATM   18  C10         0      27.569  28.225  23.525  1.00  0.00     0.112 C 
HETATM   19  C12         0      27.605  26.895  23.122  1.00  0.00     0.028 C 
BRANCH  17  20
HETATM   20  O9          0      27.220  29.515  25.572  1.00  0.00    -0.357 OA
HETATM   21  H9          0      26.874  30.400  25.584  1.00  0.00     0.218 HD
ENDBRANCH  17  20
BRANCH  18  22
HETATM   22  O11         0      28.508  29.152  23.097  1.00  0.00    -0.357 OA
HETATM   23  H11         0      28.374  29.533  22.236  1.00  0.00     0.218 HD
ENDBRANCH  18  22
ENDBRANCH   4  14
BRANCH   8  24
HETATM   24  O17         0      27.615  20.397  20.000  1.00  0.00    -0.359 OA
HETATM   25  H17         0      26.684  20.328  19.824  1.00  0.00     0.218 HD
ENDBRANCH   8  24
TORSDOF 5
ENDMDL
MODEL 2
REMARK VINA RESULT:      -6.5      7.597      9.755
REMARK  5 active torsions:
REMARK  status: ('A' for Active; 'I' for Inactive)
REMARK    1  A    between atoms: C4_4  and  C5_5 
REMARK    2  A    between atoms: C8_8  and  O9_9 
REMARK    3  A    between atoms: C10_11  and  O11_12 
REMARK    4  A    between atoms: C16_18  and  O17_19 
REMARK    5  A    between atoms: C19_22  and  O20_23 
ROOT
HETATM    1  O1          0      24.751  17.458  14.501  1.00  0.00    -0.286 OA
HETATM    2  C2          0      24.230  18.267  15.317  1.00  0.00     0.201 C 
HETATM    3  C3          0      23.160  19.082  14.986  1.00  0.00     0.067 C 
HETATM    4  C4          0      22.672  20.037  15.870  1.00  0.00     0.103 C 
HETATM    5  O13         0      23.236  20.149  17.060  1.00  0.00    -0.307 OA
HETATM    6  C14         0      24.278  19.426  17.410  1.00  0.00     0.107 C 
HETATM    7  C15         0      25.107  19.800  18.457  1.00  0.00     0.049 C 
HETATM    8  C16         0      26.336  19.183  18.660  1.00  0.00     0.093 C 
HETATM    9  C18         0      26.440  17.897  18.143  1.00  0.00     0.048 C 
HETATM   10  C19         0      25.595  17.475  17.126  1.00  0.00     0.096 C 
HETATM   11  C21         0      24.640  18.327  16.640  1.00  0.00     0.084 C 
ENDROOT
BRANCH  10  12
HETATM   12  O20         0      25.970  16.395  16.334  1.00  0.00    -0.359 OA
HETATM   13  H20         0      25.282  15.871  15.941  1.00  0.00     0.218 HD
ENDBRANCH  10  12
BRANCH   4  14
HETATM   14  C5          0      22.008  21.207  15.292  1.00  0.00     0.025 C 
HETATM   15  C6          0      21.123  22.000  16.008  1.00  0.00     0.004 C 
HETATM   16  C7          0      21.167  23.373  15.791  1.00  0.00     0.026 C 
HETATM   17  C8          0      21.968  23.929  14.799  1.00  0.00     0.112 C 
HETATM   18  C10         0      22.297  23.062  13.766  1.00  0.00     0.112 C 
HETATM   19  C12         0      22.329  21.699  14.033  1.00  0.00     0.028 C 
BRANCH  17  20
HETATM   20  O9          0      22.543  25.176  14.968  1.00  0.00    -0.357 OA
HETATM   21  H9          0      22.879  25.704  14.253  1.00  0.00     0.218 HD
ENDBRANCH  17  20
BRANCH  18  22
HETATM   22  O11         0      22.932  23.612  12.662  1.00  0.00    -0.357 OA
HETATM   23  H11         0      23.875  23.716  12.715  1.00  0.00     0.218 HD
ENDBRANCH  18  22
ENDBRANCH   4  14
BRANCH   8  24
HETATM   24  O17         0      27.465  19.916  19.042  1.00  0.00    -0.359 OA
HETATM   25  H17         0      28.318  19.507  19.134  1.00  0.00     0.218 HD
ENDBRANCH   8  24
TORSDOF 5
ENDMDL
MODEL 3
REMARK VINA RESULT:      -6.0      1.727      3.013
REMARK  5 active torsions:
REMARK  status: ('A' for Active; 'I' for Inactive)
REMARK    1  A    between atoms: C4_4  and  C5_5 
REMARK    2  A    between atoms: C8_8  and  O9_9 
REMARK    3  A    between atoms: C10_11  and  O11_12 
REMARK    4  A    between atoms: C16_18  and  O17_19 
REMARK    5  A    between atoms: C19_22  and  O20_23 
ROOT
HETATM    1  O1          0      29.472  23.295  22.975  1.00  0.00    -0.286 OA
HETATM    2  C2          0      28.351  23.652  23.430  1.00  0.00     0.201 C 
HETATM    3  C3          0      27.803  24.899  23.181  1.00  0.00     0.067 C 
HETATM    4  C4          0      26.615  25.305  23.778  1.00  0.00     0.103 C 
HETATM    5  O13         0      25.992  24.466  24.586  1.00  0.00    -0.307 OA
HETATM    6  C14         0      26.488  23.285  24.886  1.00  0.00     0.107 C 
HETATM    7  C15         0      26.071  22.580  26.006  1.00  0.00     0.049 C 
HETATM    8  C16         0      26.768  21.466  26.458  1.00  0.00     0.093 C 
HETATM    9  C18         0      27.518  20.810  25.489  1.00  0.00     0.048 C 
HETATM   10  C19         0      27.912  21.472  24.334  1.00  0.00     0.096 C 
HETATM   11  C21         0      27.545  22.776  24.140  1.00  0.00     0.084 C 
ENDROOT
BRANCH  10  12
HETATM   12  O20         0      28.990  20.982  23.603  1.00  0.00    -0.359 OA
HETATM   13  H20         0      29.289  20.100  23.789  1.00  0.00     0.218 HD
ENDBRANCH  10  12
BRANCH   4  14
HETATM   14  C5          0      26.419  26.743  23.968  1.00  0.00     0.025 C 
HETATM   15  C6          0      25.462  27.265  24.828  1.00  0.00     0.004 C 
HETATM   16  C7          0      25.802  28.399  25.558  1.00  0.00     0.026 C 
HETATM   17  C8          0      27.000  29.073  25.344  1.00  0.00     0.112 C 
HETATM   18  C10         0      27.562  28.872  24.091  1.00  0.00     0.112 C 
HETATM   19  C12         0      27.273  27.690  23.419  1.00  0.00     0.028 C 
BRANCH  17  20
HETATM   20  O9          0      27.653  29.705  26.387  1.00  0.00    -0.357 OA
HETATM   21  H9          0      28.363  29.312  26.881  1.00  0.00     0.218 HD
ENDBRANCH  17  20
BRANCH  18  22
HETATM   22  O11         0      28.652  29.664  23.757  1.00  0.00    -0.357 OA
HETATM   23  H11         0      29.133  30.058  24.475  1.00  0.00     0.218 HD
ENDBRANCH  18  22
ENDBRANCH   4  14
BRANCH   8  24
HETATM   24  O17         0      26.966  21.234  27.823  1.00  0.00    -0.359 OA
HETATM   25  H17         0      26.238  21.085  28.415  1.00  0.00     0.218 HD
ENDBRANCH   8  24
TORSDOF 5
ENDMDL
MODEL 4
REMARK VINA RESULT:      -5.9      1.587      1.715
REMARK  5 active torsions:
REMARK  status: ('A' for Active; 'I' for Inactive)
REMARK    1  A    between atoms: C4_4  and  C5_5 
REMARK    2  A    between atoms: C8_8  and  O9_9 
REMARK    3  A    between atoms: C10_11  and  O11_12 
REMARK    4  A    between atoms: C16_18  and  O17_19 
REMARK    5  A    between atoms: C19_22  and  O20_23 
ROOT
HETATM    1  O1          0      29.026  22.071  24.629  1.00  0.00    -0.286 OA
HETATM    2  C2          0      28.361  22.718  23.775  1.00  0.00     0.201 C 
HETATM    3  C3          0      28.306  24.101  23.758  1.00  0.00     0.067 C 
HETATM    4  C4          0      27.485  24.787  22.869  1.00  0.00     0.103 C 
HETATM    5  O13         0      26.759  24.092  22.011  1.00  0.00    -0.307 OA
HETATM    6  C14         0      26.746  22.777  22.010  1.00  0.00     0.107 C 
HETATM    7  C15         0      25.721  22.057  21.413  1.00  0.00     0.049 C 
HETATM    8  C16         0      25.576  20.692  21.632  1.00  0.00     0.093 C 
HETATM    9  C18         0      26.742  20.029  21.997  1.00  0.00     0.048 C 
HETATM   10  C19         0      27.805  20.727  22.554  1.00  0.00     0.096 C 
HETATM   11  C21         0      27.712  22.081  22.728  1.00  0.00     0.084 C 
ENDROOT
BRANCH  10  12
HETATM   12  O20         0      28.756  20.037  23.300  1.00  0.00    -0.359 OA
HETATM   13  H20         0      28.874  19.112  23.123  1.00  0.00     0.218 HD
ENDBRANCH  10  12
BRANCH   4  14
HETATM   14  C5          0      27.017  26.113  23.277  1.00  0.00     0.025 C 
HETATM   15  C6          0      26.032  26.301  24.235  1.00  0.00     0.004 C 
HETATM   16  C7          0      26.183  27.370  25.114  1.00  0.00     0.026 C 
HETATM   17  C8          0      27.207  28.299  24.962  1.00  0.00     0.112 C 
HETATM   18  C10         0      27.717  28.395  23.675  1.00  0.00     0.112 C 
HETATM   19  C12         0      27.629  27.283  22.845  1.00  0.00     0.028 C 
BRANCH  17  20
HETATM   20  O9          0      27.785  28.903  26.065  1.00  0.00    -0.357 OA
HETATM   21  H9          0      27.352  28.990  26.906  1.00  0.00     0.218 HD
ENDBRANCH  17  20
BRANCH  18  22
HETATM   22  O11         0      28.604  29.433  23.425  1.00  0.00    -0.357 OA
HETATM   23  H11         0      28.778  29.640  22.515  1.00  0.00     0.218 HD
ENDBRANCH  18  22
ENDBRANCH   4  14
BRANCH   8  24
HETATM   24  O17         0      24.315  20.110  21.801  1.00  0.00    -0.359 OA
HETATM   25  H17         0      23.815  20.227  22.601  1.00  0.00     0.218 HD
ENDBRANCH   8  24
TORSDOF 5
ENDMDL
MODEL 5
REMARK VINA RESULT:      -5.9      1.868      7.033
REMARK  5 active torsions:
REMARK  status: ('A' for Active; 'I' for Inactive)
REMARK    1  A    between atoms: C4_4  and  C5_5 
REMARK    2  A    between atoms: C8_8  and  O9_9 
REMARK    3  A    between atoms: C10_11  and  O11_12 
REMARK    4  A    between atoms: C16_18  and  O17_19 
REMARK    5  A    between atoms: C19_22  and  O20_23 
ROOT
HETATM    1  O1          0      28.007  28.889  23.296  1.00  0.00    -0.286 OA
HETATM    2  C2          0      27.484  27.806  23.676  1.00  0.00     0.201 C 
HETATM    3  C3          0      28.017  26.566  23.366  1.00  0.00     0.067 C 
HETATM    4  C4          0      27.366  25.387  23.709  1.00  0.00     0.103 C 
HETATM    5  O13         0      26.221  25.462  24.364  1.00  0.00    -0.307 OA
HETATM    6  C14         0      25.653  26.613  24.650  1.00  0.00     0.107 C 
HETATM    7  C15         0      24.304  26.704  24.964  1.00  0.00     0.049 C 
HETATM    8  C16         0      23.657  27.933  25.013  1.00  0.00     0.093 C 
HETATM    9  C18         0      24.483  29.022  25.265  1.00  0.00     0.048 C 
HETATM   10  C19         0      25.845  28.949  25.006  1.00  0.00     0.096 C 
HETATM   11  C21         0      26.382  27.789  24.516  1.00  0.00     0.084 C 
ENDROOT
BRANCH  10  12
HETATM   12  O20         0      26.570  30.124  24.841  1.00  0.00    -0.359 OA
HETATM   13  H20         0      26.532  30.772  25.534  1.00  0.00     0.218 HD
ENDBRANCH  10  12
BRANCH   4  14
HETATM   14  C5          0      27.625  24.211  22.875  1.00  0.00     0.025 C 
HETATM   15  C6          0      28.706  23.366  23.083  1.00  0.00     0.004 C 
HETATM   16  C7          0      28.502  22.003  22.899  1.00  0.00     0.026 C 
HETATM   17  C8          0      27.305  21.505  22.395  1.00  0.00     0.112 C 
HETATM   18  C10         0      26.568  22.414  21.648  1.00  0.00     0.112 C 
HETATM   19  C12         0      26.728  23.770  21.911  1.00  0.00     0.028 C 
BRANCH  17  20
HETATM   20  O9          0      26.820  20.275  22.804  1.00  0.00    -0.357 OA
HETATM   21  H9          0      26.876  19.485  22.279  1.00  0.00     0.218 HD
ENDBRANCH  17  20
BRANCH  18  22
HETATM   22  O11         0      25.464  21.920  20.968  1.00  0.00    -0.357 OA
HETATM   23  H11         0      25.105  22.465  20.277  1.00  0.00     0.218 HD
ENDBRANCH  18  22
ENDBRANCH   4  14
BRANCH   8  24
HETATM   24  O17         0      22.358  28.094  24.518  1.00  0.00    -0.359 OA
HETATM   25  H17         0      21.595  27.848  25.027  1.00  0.00     0.218 HD
ENDBRANCH   8  24
TORSDOF 5
ENDMDL
MODEL 6
REMARK VINA RESULT:      -5.9      7.306     10.373
REMARK  5 active torsions:
REMARK  status: ('A' for Active; 'I' for Inactive)
REMARK    1  A    between atoms: C4_4  and  C5_5 
REMARK    2  A    between atoms: C8_8  and  O9_9 
REMARK    3  A    between atoms: C10_11  and  O11_12 
REMARK    4  A    between atoms: C16_18  and  O17_19 
REMARK    5  A    between atoms: C19_22  and  O20_23 
ROOT
HETATM    1  O1          0      24.061  23.686  18.286  1.00  0.00    -0.286 OA
HETATM    2  C2          0      23.535  22.726  17.659  1.00  0.00     0.201 C 
HETATM    3  C3          0      23.635  21.411  18.078  1.00  0.00     0.067 C 
HETATM    4  C4          0      23.134  20.363  17.314  1.00  0.00     0.103 C 
HETATM    5  O13         0      22.532  20.641  16.172  1.00  0.00    -0.307 OA
HETATM    6  C14         0      22.443  21.869  15.710  1.00  0.00     0.107 C 
HETATM    7  C15         0      22.187  22.129  14.371  1.00  0.00     0.049 C 
HETATM    8  C16         0      22.346  23.404  13.841  1.00  0.00     0.093 C 
HETATM    9  C18         0      22.240  24.440  14.761  1.00  0.00     0.048 C 
HETATM   10  C19         0      22.444  24.205  16.114  1.00  0.00     0.096 C 
HETATM   11  C21         0      22.734  22.940  16.547  1.00  0.00     0.084 C 
ENDROOT
BRANCH  10  12
HETATM   12  O20         0      22.767  25.271  16.948  1.00  0.00    -0.359 OA
HETATM   13  H20         0      22.846  26.133  16.559  1.00  0.00     0.218 HD
ENDBRANCH  10  12
BRANCH   4  14
HETATM   14  C5          0      23.769  19.053  17.476  1.00  0.00     0.025 C 
HETATM   15  C6          0      24.353  18.366  16.422  1.00  0.00     0.004 C 
HETATM   16  C7          0      25.527  17.666  16.680  1.00  0.00     0.026 C 
HETATM   17  C8          0      26.032  17.541  17.970  1.00  0.00     0.112 C 
HETATM   18  C10         0      25.091  17.695  18.979  1.00  0.00     0.112 C 
HETATM   19  C12         0      23.967  18.470  18.721  1.00  0.00     0.028 C 
BRANCH  17  20
HETATM   20  O9          0      27.396  17.482  18.195  1.00  0.00    -0.357 OA
HETATM   21  H9          0      27.795  17.575  19.052  1.00  0.00     0.218 HD
ENDBRANCH  17  20
BRANCH  18  22
HETATM   22  O11         0      25.499  17.394  20.271  1.00  0.00    -0.357 OA
HETATM   23  H11         0      26.435  17.341  20.424  1.00  0.00     0.218 HD
ENDBRANCH  18  22
ENDBRANCH   4  14
BRANCH   8  24
HETATM   24  O17         0      22.898  23.602  12.570  1.00  0.00    -0.359 OA
HETATM   25  H17         0      23.198  24.456  12.284  1.00  0.00     0.218 HD
ENDBRANCH   8  24
TORSDOF 5
ENDMDL
MODEL 7
REMARK VINA RESULT:      -5.8      2.263      2.918
REMARK  5 active torsions:
REMARK  status: ('A' for Active; 'I' for Inactive)
REMARK    1  A    between atoms: C4_4  and  C5_5 
REMARK    2  A    between atoms: C8_8  and  O9_9 
REMARK    3  A    between atoms: C10_11  and  O11_12 
REMARK    4  A    between atoms: C16_18  and  O17_19 
REMARK    5  A    between atoms: C19_22  and  O20_23 
ROOT
HETATM    1  O1          0      29.668  22.678  23.284  1.00  0.00    -0.286 OA
HETATM    2  C2          0      28.562  23.206  22.985  1.00  0.00     0.201 C 
HETATM    3  C3          0      28.162  24.439  23.472  1.00  0.00     0.067 C 
HETATM    4  C4          0      26.897  24.950  23.210  1.00  0.00     0.103 C 
HETATM    5  O13         0      26.069  24.244  22.460  1.00  0.00    -0.307 OA
HETATM    6  C14         0      26.385  23.052  22.003  1.00  0.00     0.107 C 
HETATM    7  C15         0      25.417  22.155  21.573  1.00  0.00     0.049 C 
HETATM    8  C16         0      25.725  20.821  21.336  1.00  0.00     0.093 C 
HETATM    9  C18         0      27.058  20.571  21.033  1.00  0.00     0.048 C 
HETATM   10  C19         0      28.047  21.471  21.407  1.00  0.00     0.096 C 
HETATM   11  C21         0      27.705  22.621  22.065  1.00  0.00     0.084 C 
ENDROOT
BRANCH  10  12
HETATM   12  O20         0      29.365  21.033  21.501  1.00  0.00    -0.359 OA
HETATM   13  H20         0      30.020  21.478  20.975  1.00  0.00     0.218 HD
ENDBRANCH  10  12
BRANCH   4  14
HETATM   14  C5          0      26.337  25.887  24.186  1.00  0.00     0.025 C 
HETATM   15  C6          0      26.975  27.064  24.550  1.00  0.00     0.004 C 
HETATM   16  C7          0      26.183  28.187  24.764  1.00  0.00     0.026 C 
HETATM   17  C8          0      24.794  28.114  24.749  1.00  0.00     0.112 C 
HETATM   18  C10         0      24.277  26.852  25.011  1.00  0.00     0.112 C 
HETATM   19  C12         0      25.058  25.743  24.708  1.00  0.00     0.028 C 
BRANCH  17  20
HETATM   20  O9          0      24.033  29.177  24.296  1.00  0.00    -0.357 OA
HETATM   21  H9          0      24.391  30.032  24.088  1.00  0.00     0.218 HD
ENDBRANCH  17  20
BRANCH  18  22
HETATM   22  O11         0      22.905  26.760  25.194  1.00  0.00    -0.357 OA
HETATM   23  H11         0      22.355  27.162  24.531  1.00  0.00     0.218 HD
ENDBRANCH  18  22
ENDBRANCH   4  14
BRANCH   8  24
HETATM   24  O17         0      24.849  19.793  21.704  1.00  0.00    -0.359 OA
HETATM   25  H17         0      25.161  18.993  22.108  1.00  0.00     0.218 HD
ENDBRANCH   8  24
TORSDOF 5
ENDMDL
MODEL 8
REMARK VINA RESULT:      -5.7      3.044      6.086
REMARK  5 active torsions:
REMARK  status: ('A' for Active; 'I' for Inactive)
REMARK    1  A    between atoms: C4_4  and  C5_5 
REMARK    2  A    between atoms: C8_8  and  O9_9 
REMARK    3  A    between atoms: C10_11  and  O11_12 
REMARK    4  A    between atoms: C16_18  and  O17_19 
REMARK    5  A    between atoms: C19_22  and  O20_23 
ROOT
HETATM    1  O1          0      25.190  21.103  22.999  1.00  0.00    -0.286 OA
HETATM    2  C2          0      26.365  21.365  23.376  1.00  0.00     0.201 C 
HETATM    3  C3          0      27.052  20.584  24.290  1.00  0.00     0.067 C 
HETATM    4  C4          0      28.306  20.952  24.765  1.00  0.00     0.103 C 
HETATM    5  O13         0      28.855  22.065  24.313  1.00  0.00    -0.307 OA
HETATM    6  C14         0      28.230  22.862  23.473  1.00  0.00     0.107 C 
HETATM    7  C15         0      28.604  24.188  23.308  1.00  0.00     0.049 C 
HETATM    8  C16         0      27.795  25.086  22.623  1.00  0.00     0.093 C 
HETATM    9  C18         0      26.929  24.510  21.702  1.00  0.00     0.048 C 
HETATM   10  C19         0      26.570  23.173  21.810  1.00  0.00     0.096 C 
HETATM   11  C21         0      27.087  22.412  22.822  1.00  0.00     0.084 C 
ENDROOT
BRANCH  10  12
HETATM   12  O20         0      25.409  22.727  21.185  1.00  0.00    -0.359 OA
HETATM   13  H20         0      24.609  23.216  21.333  1.00  0.00     0.218 HD
ENDBRANCH  10  12
BRANCH   4  14
HETATM   14  C5          0      28.687  20.467  26.093  1.00  0.00     0.025 C 
HETATM   15  C6          0      29.977  20.574  26.591  1.00  0.00     0.004 C 
HETATM   16  C7          0      30.125  20.875  27.941  1.00  0.00     0.026 C 
HETATM   17  C8          0      29.031  20.935  28.799  1.00  0.00     0.112 C 
HETATM   18  C10         0      27.922  20.215  28.375  1.00  0.00     0.112 C 
HETATM   19  C12         0      27.755  20.002  27.012  1.00  0.00     0.028 C 
BRANCH  17  20
HETATM   20  O9          0      29.013  21.818  29.864  1.00  0.00    -0.357 OA
HETATM   21  H9          0      29.238  21.575  30.755  1.00  0.00     0.218 HD
ENDBRANCH  17  20
BRANCH  18  22
HETATM   22  O11         0      26.875  20.085  29.276  1.00  0.00    -0.357 OA
HETATM   23  H11         0      27.070  19.661  30.104  1.00  0.00     0.218 HD
ENDBRANCH  18  22
ENDBRANCH   4  14
BRANCH   8  24
HETATM   24  O17         0      27.628  26.403  23.066  1.00  0.00    -0.359 OA
HETATM   25  H17         0      28.357  26.913  23.399  1.00  0.00     0.218 HD
ENDBRANCH   8  24
TORSDOF 5
ENDMDL
MODEL 9
REMARK VINA RESULT:      -5.7      4.228      5.739
REMARK  5 active torsions:
REMARK  status: ('A' for Active; 'I' for Inactive)
REMARK    1  A    between atoms: C4_4  and  C5_5 
REMARK    2  A    between atoms: C8_8  and  O9_9 
REMARK    3  A    between atoms: C10_11  and  O11_12 
REMARK    4  A    between atoms: C16_18  and  O17_19 
REMARK    5  A    between atoms: C19_22  and  O20_23 
ROOT
HETATM    1  O1          0      25.943  22.905  21.105  1.00  0.00    -0.286 OA
HETATM    2  C2          0      26.320  21.853  21.690  1.00  0.00     0.201 C 
HETATM    3  C3          0      26.907  21.860  22.944  1.00  0.00     0.067 C 
HETATM    4  C4          0      27.406  20.698  23.521  1.00  0.00     0.103 C 
HETATM    5  O13         0      27.294  19.561  22.858  1.00  0.00    -0.307 OA
HETATM    6  C14         0      26.778  19.504  21.650  1.00  0.00     0.107 C 
HETATM    7  C15         0      27.014  18.430  20.804  1.00  0.00     0.049 C 
HETATM    8  C16         0      26.686  18.488  19.455  1.00  0.00     0.093 C 
HETATM    9  C18         0      25.679  19.390  19.134  1.00  0.00     0.048 C 
HETATM   10  C19         0      25.385  20.450  19.981  1.00  0.00     0.096 C 
HETATM   11  C21         0      26.081  20.599  21.149  1.00  0.00     0.084 C 
ENDROOT
BRANCH  10  12
HETATM   12  O20         0      24.716  21.560  19.475  1.00  0.00    -0.359 OA
HETATM   13  H20         0      24.836  21.772  18.557  1.00  0.00     0.218 HD
ENDBRANCH  10  12
BRANCH   4  14
HETATM   14  C5          0      28.495  20.845  24.489  1.00  0.00     0.025 C 
HETATM   15  C6          0      29.170  22.041  24.685  1.00  0.00     0.004 C 
HETATM   16  C7          0      29.534  22.370  25.987  1.00  0.00     0.026 C 
HETATM   17  C8          0      29.354  21.481  27.041  1.00  0.00     0.112 C 
HETATM   18  C10         0      29.281  20.146  26.667  1.00  0.00     0.112 C 
HETATM   19  C12         0      28.833  19.842  25.387  1.00  0.00     0.028 C 
BRANCH  17  20
HETATM   20  O9          0      29.061  21.939  28.313  1.00  0.00    -0.357 OA
HETATM   21  H9          0      28.713  21.389  29.006  1.00  0.00     0.218 HD
ENDBRANCH  17  20
BRANCH  18  22
HETATM   22  O11         0      29.292  19.206  27.688  1.00  0.00    -0.357 OA
HETATM   23  H11         0      28.693  19.350  28.412  1.00  0.00     0.218 HD
ENDBRANCH  18  22
ENDBRANCH   4  14
BRANCH   8  24
HETATM   24  O17         0      27.525  17.944  18.476  1.00  0.00    -0.359 OA
HETATM   25  H17         0      27.400  18.128  17.553  1.00  0.00     0.218 HD
ENDBRANCH   8  24
TORSDOF 5
ENDMDL
