MODEL 1
REMARK VINA RESULT:      -7.7      0.000      0.000
REMARK  5 active torsions:
REMARK  status: ('A' for Active; 'I' for Inactive)
REMARK    1  A    between atoms: C4_4  and  C5_5 
REMARK    2  A    between atoms: C8_8  and  O9_9 
REMARK    3  A    between atoms: C10_11  and  O11_12 
REMARK    4  A    between atoms: C16_18  and  O17_19 
REMARK    5  A    between atoms: C19_22  and  O20_23 
ROOT
HETATM    1  O1          0      33.550  88.082  -9.788  1.00  0.00    -0.286 OA
HETATM    2  C2          0      33.885  87.008  -9.217  1.00  0.00     0.201 C 
HETATM    3  C3          0      35.088  86.369  -9.467  1.00  0.00     0.067 C 
HETATM    4  C4          0      35.388  85.135  -8.902  1.00  0.00     0.103 C 
HETATM    5  O13         0      34.506  84.576  -8.092  1.00  0.00    -0.307 OA
HETATM    6  C14         0      33.334  85.122  -7.851  1.00  0.00     0.107 C 
HETATM    7  C15         0      32.273  84.383  -7.348  1.00  0.00     0.049 C 
HETATM    8  C16         0      30.981  84.893  -7.335  1.00  0.00     0.093 C 
HETATM    9  C18         0      30.897  86.280  -7.332  1.00  0.00     0.048 C 
HETATM   10  C19         0      31.959  87.051  -7.785  1.00  0.00     0.096 C 
HETATM   11  C21         0      33.103  86.442  -8.222  1.00  0.00     0.084 C 
ENDROOT
BRANCH  10  12
HETATM   12  O20         0      31.724  88.363  -8.186  1.00  0.00    -0.359 OA
HETATM   13  H20         0      30.829  88.680  -8.170  1.00  0.00     0.218 HD
ENDBRANCH  10  12
BRANCH   4  14
HETATM   14  C5          0      36.320  84.273  -9.632  1.00  0.00     0.025 C 
HETATM   15  C6          0      37.651  84.608  -9.837  1.00  0.00     0.004 C 
HETATM   16  C7          0      38.591  83.586  -9.763  1.00  0.00     0.026 C 
HETATM   17  C8          0      38.213  82.255  -9.625  1.00  0.00     0.112 C 
HETATM   18  C10         0      36.925  81.970 -10.060  1.00  0.00     0.112 C 
HETATM   19  C12         0      35.982  82.990 -10.043  1.00  0.00     0.028 C 
BRANCH  17  20
HETATM   20  O9          0      38.998  81.365  -8.914  1.00  0.00    -0.357 OA
HETATM   21  H9          0      39.686  80.838  -9.305  1.00  0.00     0.218 HD
ENDBRANCH  17  20
BRANCH  18  22
HETATM   22  O11         0      36.564  80.632 -10.121  1.00  0.00    -0.357 OA
HETATM   23  H11         0      35.698  80.405  -9.804  1.00  0.00     0.218 HD
ENDBRANCH  18  22
ENDBRANCH   4  14
BRANCH   8  24
HETATM   24  O17         0      29.877  84.089  -7.642  1.00  0.00    -0.359 OA
HETATM   25  H17         0      29.368  83.660  -6.965  1.00  0.00     0.218 HD
ENDBRANCH   8  24
TORSDOF 5
ENDMDL
MODEL 2
REMARK VINA RESULT:      -7.2      1.748      2.106
REMARK  5 active torsions:
REMARK  status: ('A' for Active; 'I' for Inactive)
REMARK    1  A    between atoms: C4_4  and  C5_5 
REMARK    2  A    between atoms: C8_8  and  O9_9 
REMARK    3  A    between atoms: C10_11  and  O11_12 
REMARK    4  A    between atoms: C16_18  and  O17_19 
REMARK    5  A    between atoms: C19_22  and  O20_23 
ROOT
HETATM    1  O1          0      33.880  86.942  -5.946  1.00  0.00    -0.286 OA
HETATM    2  C2          0      33.688  86.214  -6.958  1.00  0.00     0.201 C 
HETATM    3  C3          0      34.681  85.426  -7.515  1.00  0.00     0.067 C 
HETATM    4  C4          0      34.471  84.713  -8.690  1.00  0.00     0.103 C 
HETATM    5  O13         0      33.286  84.779  -9.270  1.00  0.00    -0.307 OA
HETATM    6  C14         0      32.321  85.540  -8.803  1.00  0.00     0.107 C 
HETATM    7  C15         0      31.247  85.925  -9.593  1.00  0.00     0.049 C 
HETATM    8  C16         0      30.372  86.924  -9.184  1.00  0.00     0.093 C 
HETATM    9  C18         0      30.300  87.115  -7.809  1.00  0.00     0.048 C 
HETATM   10  C19         0      31.337  86.699  -6.984  1.00  0.00     0.096 C 
HETATM   11  C21         0      32.430  86.081  -7.527  1.00  0.00     0.084 C 
ENDROOT
BRANCH  10  12
HETATM   12  O20         0      31.467  87.263  -5.719  1.00  0.00    -0.359 OA
HETATM   13  H20         0      30.945  86.899  -5.013  1.00  0.00     0.218 HD
ENDBRANCH  10  12
BRANCH   4  14
HETATM   14  C5          0      35.645  84.424  -9.516  1.00  0.00     0.025 C 
HETATM   15  C6          0      36.606  85.378  -9.817  1.00  0.00     0.004 C 
HETATM   16  C7          0      37.935  84.967  -9.848  1.00  0.00     0.026 C 
HETATM   17  C8          0      38.288  83.628  -9.717  1.00  0.00     0.112 C 
HETATM   18  C10         0      37.285  82.729 -10.056  1.00  0.00     0.112 C 
HETATM   19  C12         0      35.962  83.138  -9.934  1.00  0.00     0.028 C 
BRANCH  17  20
HETATM   20  O9          0      39.469  83.264  -9.097  1.00  0.00    -0.357 OA
HETATM   21  H9          0      39.534  83.040  -8.176  1.00  0.00     0.218 HD
ENDBRANCH  17  20
BRANCH  18  22
HETATM   22  O11         0      37.640  81.389 -10.125  1.00  0.00    -0.357 OA
HETATM   23  H11         0      37.611  80.980 -10.982  1.00  0.00     0.218 HD
ENDBRANCH  18  22
ENDBRANCH   4  14
BRANCH   8  24
HETATM   24  O17         0      29.875  87.872 -10.085  1.00  0.00    -0.359 OA
HETATM   25  H17         0      29.197  87.656 -10.714  1.00  0.00     0.218 HD
ENDBRANCH   8  24
TORSDOF 5
ENDMDL
MODEL 3
REMARK VINA RESULT:      -7.2     18.372     20.193
REMARK  5 active torsions:
REMARK  status: ('A' for Active; 'I' for Inactive)
REMARK    1  A    between atoms: C4_4  and  C5_5 
REMARK    2  A    between atoms: C8_8  and  O9_9 
REMARK    3  A    between atoms: C10_11  and  O11_12 
REMARK    4  A    between atoms: C16_18  and  O17_19 
REMARK    5  A    between atoms: C19_22  and  O20_23 
ROOT
HETATM    1  O1          0      41.049  90.734   9.008  1.00  0.00    -0.286 OA
HETATM    2  C2          0      40.466  91.696   8.437  1.00  0.00     0.201 C 
HETATM    3  C3          0      39.983  92.796   9.126  1.00  0.00     0.067 C 
HETATM    4  C4          0      39.255  93.793   8.487  1.00  0.00     0.103 C 
HETATM    5  O13         0      39.041  93.689   7.187  1.00  0.00    -0.307 OA
HETATM    6  C14         0      39.445  92.648   6.493  1.00  0.00     0.107 C 
HETATM    7  C15         0      38.898  92.337   5.257  1.00  0.00     0.049 C 
HETATM    8  C16         0      39.140  91.110   4.649  1.00  0.00     0.093 C 
HETATM    9  C18         0      40.313  90.480   5.045  1.00  0.00     0.048 C 
HETATM   10  C19         0      40.913  90.802   6.255  1.00  0.00     0.096 C 
HETATM   11  C21         0      40.354  91.759   7.057  1.00  0.00     0.084 C 
ENDROOT
BRANCH  10  12
HETATM   12  O20         0      41.799  89.899   6.836  1.00  0.00    -0.359 OA
HETATM   13  H20         0      42.329  90.202   7.563  1.00  0.00     0.218 HD
ENDBRANCH  10  12
BRANCH   4  14
HETATM   14  C5          0      38.301  94.551   9.300  1.00  0.00     0.025 C 
HETATM   15  C6          0      38.671  95.647  10.066  1.00  0.00     0.004 C 
HETATM   16  C7          0      37.787  96.720  10.125  1.00  0.00     0.026 C 
HETATM   17  C8          0      36.521  96.654   9.554  1.00  0.00     0.112 C 
HETATM   18  C10         0      36.026  95.367   9.389  1.00  0.00     0.112 C 
HETATM   19  C12         0      36.932  94.324   9.247  1.00  0.00     0.028 C 
BRANCH  17  20
HETATM   20  O9          0      35.928  97.781   9.013  1.00  0.00    -0.357 OA
HETATM   21  H9          0      35.356  98.362   9.500  1.00  0.00     0.218 HD
ENDBRANCH  17  20
BRANCH  18  22
HETATM   22  O11         0      34.698  95.250   9.002  1.00  0.00    -0.357 OA
HETATM   23  H11         0      34.309  96.000   8.567  1.00  0.00     0.218 HD
ENDBRANCH  18  22
ENDBRANCH   4  14
BRANCH   8  24
HETATM   24  O17         0      38.130  90.423   3.967  1.00  0.00    -0.359 OA
HETATM   25  H17         0      37.251  90.348   4.319  1.00  0.00     0.218 HD
ENDBRANCH   8  24
TORSDOF 5
ENDMDL
MODEL 4
REMARK VINA RESULT:      -7.1     18.964     19.602
REMARK  5 active torsions:
REMARK  status: ('A' for Active; 'I' for Inactive)
REMARK    1  A    between atoms: C4_4  and  C5_5 
REMARK    2  A    between atoms: C8_8  and  O9_9 
REMARK    3  A    between atoms: C10_11  and  O11_12 
REMARK    4  A    between atoms: C16_18  and  O17_19 
REMARK    5  A    between atoms: C19_22  and  O20_23 
ROOT
HETATM    1  O1          0      44.709  92.758   5.962  1.00  0.00    -0.286 OA
HETATM    2  C2          0      44.636  91.711   6.662  1.00  0.00     0.201 C 
HETATM    3  C3          0      45.751  91.087   7.197  1.00  0.00     0.067 C 
HETATM    4  C4          0      45.653  89.878   7.877  1.00  0.00     0.103 C 
HETATM    5  O13         0      44.460  89.331   8.030  1.00  0.00    -0.307 OA
HETATM    6  C14         0      43.375  89.862   7.511  1.00  0.00     0.107 C 
HETATM    7  C15         0      42.218  89.121   7.317  1.00  0.00     0.049 C 
HETATM    8  C16         0      41.171  89.607   6.544  1.00  0.00     0.093 C 
HETATM    9  C18         0      41.109  90.991   6.442  1.00  0.00     0.048 C 
HETATM   10  C19         0      42.236  91.767   6.675  1.00  0.00     0.096 C 
HETATM   11  C21         0      43.414  91.164   7.024  1.00  0.00     0.084 C 
ENDROOT
BRANCH  10  12
HETATM   12  O20         0      42.291  93.059   6.162  1.00  0.00    -0.359 OA
HETATM   13  H20         0      43.099  93.546   6.268  1.00  0.00     0.218 HD
ENDBRANCH  10  12
BRANCH   4  14
HETATM   14  C5          0      46.831  89.010   7.874  1.00  0.00     0.025 C 
HETATM   15  C6          0      46.836  87.746   8.447  1.00  0.00     0.004 C 
HETATM   16  C7          0      47.541  86.743   7.789  1.00  0.00     0.026 C 
HETATM   17  C8          0      48.325  87.014   6.673  1.00  0.00     0.112 C 
HETATM   18  C10         0      48.754  88.331   6.572  1.00  0.00     0.112 C 
HETATM   19  C12         0      47.985  89.324   7.167  1.00  0.00     0.028 C 
BRANCH  17  20
HETATM   20  O9          0      48.465  86.081   5.661  1.00  0.00    -0.357 OA
HETATM   21  H9          0      49.241  86.003   5.119  1.00  0.00     0.218 HD
ENDBRANCH  17  20
BRANCH  18  22
HETATM   22  O11         0      49.689  88.613   5.586  1.00  0.00    -0.357 OA
HETATM   23  H11         0      50.544  88.207   5.675  1.00  0.00     0.218 HD
ENDBRANCH  18  22
ENDBRANCH   4  14
BRANCH   8  24
HETATM   24  O17         0      40.458  88.772   5.675  1.00  0.00    -0.359 OA
HETATM   25  H17         0      39.832  89.120   5.051  1.00  0.00     0.218 HD
ENDBRANCH   8  24
TORSDOF 5
ENDMDL
MODEL 5
REMARK VINA RESULT:      -6.3     19.257     21.148
REMARK  5 active torsions:
REMARK  status: ('A' for Active; 'I' for Inactive)
REMARK    1  A    between atoms: C4_4  and  C5_5 
REMARK    2  A    between atoms: C8_8  and  O9_9 
REMARK    3  A    between atoms: C10_11  and  O11_12 
REMARK    4  A    between atoms: C16_18  and  O17_19 
REMARK    5  A    between atoms: C19_22  and  O20_23 
ROOT
HETATM    1  O1          0      37.365  93.164   5.942  1.00  0.00    -0.286 OA
HETATM    2  C2          0      38.129  93.476   6.896  1.00  0.00     0.201 C 
HETATM    3  C3          0      37.735  94.307   7.931  1.00  0.00     0.067 C 
HETATM    4  C4          0      38.628  94.718   8.915  1.00  0.00     0.103 C 
HETATM    5  O13         0      39.874  94.283   8.863  1.00  0.00    -0.307 OA
HETATM    6  C14         0      40.309  93.523   7.881  1.00  0.00     0.107 C 
HETATM    7  C15         0      41.662  93.396   7.600  1.00  0.00     0.049 C 
HETATM    8  C16         0      42.101  92.806   6.420  1.00  0.00     0.093 C 
HETATM    9  C18         0      41.205  91.917   5.840  1.00  0.00     0.048 C 
HETATM   10  C19         0      39.850  91.986   6.136  1.00  0.00     0.096 C 
HETATM   11  C21         0      39.396  92.926   7.019  1.00  0.00     0.084 C 
ENDROOT
BRANCH  10  12
HETATM   12  O20         0      38.933  91.417   5.258  1.00  0.00    -0.359 OA
HETATM   13  H20         0      39.265  90.852   4.571  1.00  0.00     0.218 HD
ENDBRANCH  10  12
BRANCH   4  14
HETATM   14  C5          0      38.354  95.995   9.577  1.00  0.00     0.025 C 
HETATM   15  C6          0      39.352  96.788  10.123  1.00  0.00     0.004 C 
HETATM   16  C7          0      39.227  98.167   9.985  1.00  0.00     0.026 C 
HETATM   17  C8          0      38.085  98.745   9.443  1.00  0.00     0.112 C 
HETATM   18  C10         0      36.943  97.960   9.524  1.00  0.00     0.112 C 
HETATM   19  C12         0      37.094  96.579   9.575  1.00  0.00     0.028 C 
BRANCH  17  20
HETATM   20  O9          0      38.164  99.912   8.704  1.00  0.00    -0.357 OA
HETATM   21  H9          0      38.953 100.206   8.264  1.00  0.00     0.218 HD
ENDBRANCH  17  20
BRANCH  18  22
HETATM   22  O11         0      35.742  98.559   9.172  1.00  0.00    -0.357 OA
HETATM   23  H11         0      35.685  98.929   8.299  1.00  0.00     0.218 HD
ENDBRANCH  18  22
ENDBRANCH   4  14
BRANCH   8  24
HETATM   24  O17         0      43.192  93.320   5.711  1.00  0.00    -0.359 OA
HETATM   25  H17         0      43.291  93.178   4.777  1.00  0.00     0.218 HD
ENDBRANCH   8  24
TORSDOF 5
ENDMDL
MODEL 6
REMARK VINA RESULT:      -6.1     18.097     19.855
REMARK  5 active torsions:
REMARK  status: ('A' for Active; 'I' for Inactive)
REMARK    1  A    between atoms: C4_4  and  C5_5 
REMARK    2  A    between atoms: C8_8  and  O9_9 
REMARK    3  A    between atoms: C10_11  and  O11_12 
REMARK    4  A    between atoms: C16_18  and  O17_19 
REMARK    5  A    between atoms: C19_22  and  O20_23 
ROOT
HETATM    1  O1          0      40.047  90.982   4.155  1.00  0.00    -0.286 OA
HETATM    2  C2          0      39.896  91.292   5.369  1.00  0.00     0.201 C 
HETATM    3  C3          0      38.875  92.116   5.811  1.00  0.00     0.067 C 
HETATM    4  C4          0      38.792  92.525   7.137  1.00  0.00     0.103 C 
HETATM    5  O13         0      39.703  92.096   7.992  1.00  0.00    -0.307 OA
HETATM    6  C14         0      40.714  91.343   7.617  1.00  0.00     0.107 C 
HETATM    7  C15         0      41.861  91.223   8.388  1.00  0.00     0.049 C 
HETATM    8  C16         0      43.016  90.641   7.878  1.00  0.00     0.093 C 
HETATM    9  C18         0      42.811  89.751   6.831  1.00  0.00     0.048 C 
HETATM   10  C19         0      41.652  89.813   6.068  1.00  0.00     0.096 C 
HETATM   11  C21         0      40.696  90.747   6.361  1.00  0.00     0.084 C 
ENDROOT
BRANCH  10  12
HETATM   12  O20         0      41.642  89.245   4.798  1.00  0.00    -0.359 OA
HETATM   13  H20         0      41.195  88.415   4.685  1.00  0.00     0.218 HD
ENDBRANCH  10  12
BRANCH   4  14
HETATM   14  C5          0      38.119  93.798   7.404  1.00  0.00     0.025 C 
HETATM   15  C6          0      36.829  94.072   6.972  1.00  0.00     0.004 C 
HETATM   16  C7          0      36.003  94.794   7.827  1.00  0.00     0.026 C 
HETATM   17  C8          0      36.480  95.342   9.013  1.00  0.00     0.112 C 
HETATM   18  C10         0      37.851  95.561   9.040  1.00  0.00     0.112 C 
HETATM   19  C12         0      38.662  94.767   8.238  1.00  0.00     0.028 C 
BRANCH  17  20
HETATM   20  O9          0      35.664  95.446  10.125  1.00  0.00    -0.357 OA
HETATM   21  H9          0      35.391  96.273  10.504  1.00  0.00     0.218 HD
ENDBRANCH  17  20
BRANCH  18  22
HETATM   22  O11         0      38.352  96.276  10.118  1.00  0.00    -0.357 OA
HETATM   23  H11         0      38.001  96.064  10.975  1.00  0.00     0.218 HD
ENDBRANCH  18  22
ENDBRANCH   4  14
BRANCH   8  24
HETATM   24  O17         0      44.283  91.162   8.163  1.00  0.00    -0.359 OA
HETATM   25  H17         0      44.412  92.085   8.347  1.00  0.00     0.218 HD
ENDBRANCH   8  24
TORSDOF 5
ENDMDL
MODEL 7
REMARK VINA RESULT:      -6.0     19.241     19.995
REMARK  5 active torsions:
REMARK  status: ('A' for Active; 'I' for Inactive)
REMARK    1  A    between atoms: C4_4  and  C5_5 
REMARK    2  A    between atoms: C8_8  and  O9_9 
REMARK    3  A    between atoms: C10_11  and  O11_12 
REMARK    4  A    between atoms: C16_18  and  O17_19 
REMARK    5  A    between atoms: C19_22  and  O20_23 
ROOT
HETATM    1  O1          0      42.200  88.768   7.189  1.00  0.00    -0.286 OA
HETATM    2  C2          0      42.460  89.963   6.882  1.00  0.00     0.201 C 
HETATM    3  C3          0      43.615  90.609   7.291  1.00  0.00     0.067 C 
HETATM    4  C4          0      43.829  91.956   7.026  1.00  0.00     0.103 C 
HETATM    5  O13         0      42.912  92.624   6.349  1.00  0.00    -0.307 OA
HETATM    6  C14         0      41.782  92.069   5.969  1.00  0.00     0.107 C 
HETATM    7  C15         0      40.672  92.830   5.629  1.00  0.00     0.049 C 
HETATM    8  C16         0      39.418  92.250   5.478  1.00  0.00     0.093 C 
HETATM    9  C18         0      39.432  90.897   5.160  1.00  0.00     0.048 C 
HETATM   10  C19         0      40.544  90.117   5.444  1.00  0.00     0.096 C 
HETATM   11  C21         0      41.642  90.687   6.027  1.00  0.00     0.084 C 
ENDROOT
BRANCH  10  12
HETATM   12  O20         0      40.400  88.736   5.534  1.00  0.00    -0.359 OA
HETATM   13  H20         0      40.980  88.265   6.121  1.00  0.00     0.218 HD
ENDBRANCH  10  12
BRANCH   4  14
HETATM   14  C5          0      44.698  92.690   7.948  1.00  0.00     0.025 C 
HETATM   15  C6          0      45.956  92.238   8.317  1.00  0.00     0.004 C 
HETATM   16  C7          0      46.965  93.185   8.461  1.00  0.00     0.026 C 
HETATM   17  C8          0      46.704  94.548   8.373  1.00  0.00     0.112 C 
HETATM   18  C10         0      45.389  94.905   8.637  1.00  0.00     0.112 C 
HETATM   19  C12         0      44.390  93.966   8.404  1.00  0.00     0.028 C 
BRANCH  17  20
HETATM   20  O9          0      47.647  95.418   7.855  1.00  0.00    -0.357 OA
HETATM   21  H9          0      47.429  96.186   7.339  1.00  0.00     0.218 HD
ENDBRANCH  17  20
BRANCH  18  22
HETATM   22  O11         0      45.115  96.260   8.749  1.00  0.00    -0.357 OA
HETATM   23  H11         0      45.791  96.805   9.136  1.00  0.00     0.218 HD
ENDBRANCH  18  22
ENDBRANCH   4  14
BRANCH   8  24
HETATM   24  O17         0      38.261  92.886   5.940  1.00  0.00    -0.359 OA
HETATM   25  H17         0      37.483  92.395   6.179  1.00  0.00     0.218 HD
ENDBRANCH   8  24
TORSDOF 5
ENDMDL
MODEL 8
REMARK VINA RESULT:      -6.0     19.297     21.132
REMARK  5 active torsions:
REMARK  status: ('A' for Active; 'I' for Inactive)
REMARK    1  A    between atoms: C4_4  and  C5_5 
REMARK    2  A    between atoms: C8_8  and  O9_9 
REMARK    3  A    between atoms: C10_11  and  O11_12 
REMARK    4  A    between atoms: C16_18  and  O17_19 
REMARK    5  A    between atoms: C19_22  and  O20_23 
ROOT
HETATM    1  O1          0      39.033  92.465   5.636  1.00  0.00    -0.286 OA
HETATM    2  C2          0      39.344  92.700   6.836  1.00  0.00     0.201 C 
HETATM    3  C3          0      38.438  93.185   7.764  1.00  0.00     0.067 C 
HETATM    4  C4          0      38.831  93.533   9.052  1.00  0.00     0.103 C 
HETATM    5  O13         0      40.097  93.374   9.394  1.00  0.00    -0.307 OA
HETATM    6  C14         0      41.005  92.954   8.541  1.00  0.00     0.107 C 
HETATM    7  C15         0      42.360  93.161   8.753  1.00  0.00     0.049 C 
HETATM    8  C16         0      43.290  92.948   7.743  1.00  0.00     0.093 C 
HETATM    9  C18         0      42.892  92.052   6.758  1.00  0.00     0.048 C 
HETATM   10  C19         0      41.545  91.786   6.550  1.00  0.00     0.096 C 
HETATM   11  C21         0      40.603  92.397   7.331  1.00  0.00     0.084 C 
ENDROOT
BRANCH  10  12
HETATM   12  O20         0      41.137  91.258   5.328  1.00  0.00    -0.359 OA
HETATM   13  H20         0      40.205  91.213   5.152  1.00  0.00     0.218 HD
ENDBRANCH  10  12
BRANCH   4  14
HETATM   14  C5          0      38.036  94.550   9.742  1.00  0.00     0.025 C 
HETATM   15  C6          0      38.482  95.850   9.935  1.00  0.00     0.004 C 
HETATM   16  C7          0      37.549  96.875   9.818  1.00  0.00     0.026 C 
HETATM   17  C8          0      36.194  96.613   9.648  1.00  0.00     0.112 C 
HETATM   18  C10         0      35.785  95.364  10.096  1.00  0.00     0.112 C 
HETATM   19  C12         0      36.718  94.334  10.122  1.00  0.00     0.028 C 
BRANCH  17  20
HETATM   20  O9          0      35.396  97.460   8.900  1.00  0.00    -0.357 OA
HETATM   21  H9          0      34.535  97.754   9.175  1.00  0.00     0.218 HD
ENDBRANCH  17  20
BRANCH  18  22
HETATM   22  O11         0      34.419  95.123  10.125  1.00  0.00    -0.357 OA
HETATM   23  H11         0      33.852  95.877  10.242  1.00  0.00     0.218 HD
ENDBRANCH  18  22
ENDBRANCH   4  14
BRANCH   8  24
HETATM   24  O17         0      44.375  93.812   7.557  1.00  0.00    -0.359 OA
HETATM   25  H17         0      44.279  94.645   7.112  1.00  0.00     0.218 HD
ENDBRANCH   8  24
TORSDOF 5
ENDMDL
MODEL 9
REMARK VINA RESULT:      -5.8     16.223     18.337
REMARK  5 active torsions:
REMARK  status: ('A' for Active; 'I' for Inactive)
REMARK    1  A    between atoms: C4_4  and  C5_5 
REMARK    2  A    between atoms: C8_8  and  O9_9 
REMARK    3  A    between atoms: C10_11  and  O11_12 
REMARK    4  A    between atoms: C16_18  and  O17_19 
REMARK    5  A    between atoms: C19_22  and  O20_23 
ROOT
HETATM    1  O1          0      48.249  89.764   1.393  1.00  0.00    -0.286 OA
HETATM    2  C2          0      48.620  90.507   0.444  1.00  0.00     0.201 C 
HETATM    3  C3          0      48.405  91.875   0.434  1.00  0.00     0.067 C 
HETATM    4  C4          0      48.731  92.656  -0.669  1.00  0.00     0.103 C 
HETATM    5  O13         0      49.278  92.072  -1.721  1.00  0.00    -0.307 OA
HETATM    6  C14         0      49.469  90.772  -1.778  1.00  0.00     0.107 C 
HETATM    7  C15         0      49.657  90.113  -2.984  1.00  0.00     0.049 C 
HETATM    8  C16         0      49.603  88.726  -3.066  1.00  0.00     0.093 C 
HETATM    9  C18         0      49.888  88.058  -1.881  1.00  0.00     0.048 C 
HETATM   10  C19         0      49.756  88.702  -0.658  1.00  0.00     0.096 C 
HETATM   11  C21         0      49.358  90.010  -0.619  1.00  0.00     0.084 C 
ENDROOT
BRANCH  10  12
HETATM   12  O20         0      49.613  87.942   0.499  1.00  0.00    -0.359 OA
HETATM   13  H20         0      49.183  88.343   1.245  1.00  0.00     0.218 HD
ENDBRANCH  10  12
BRANCH   4  14
HETATM   14  C5          0      47.968  93.889  -0.866  1.00  0.00     0.025 C 
HETATM   15  C6          0      48.525  95.151  -0.712  1.00  0.00     0.004 C 
HETATM   16  C7          0      48.128  96.144  -1.601  1.00  0.00     0.026 C 
HETATM   17  C8          0      47.112  95.930  -2.527  1.00  0.00     0.112 C 
HETATM   18  C10         0      46.224  94.918  -2.190  1.00  0.00     0.112 C 
HETATM   19  C12         0      46.673  93.892  -1.367  1.00  0.00     0.028 C 
BRANCH  17  20
HETATM   20  O9          0      47.142  96.545  -3.766  1.00  0.00    -0.357 OA
HETATM   21  H9          0      47.015  96.084  -4.587  1.00  0.00     0.218 HD
ENDBRANCH  17  20
BRANCH  18  22
HETATM   22  O11         0      45.089  94.789  -2.979  1.00  0.00    -0.357 OA
HETATM   23  H11         0      45.037  94.019  -3.533  1.00  0.00     0.218 HD
ENDBRANCH  18  22
ENDBRANCH   4  14
BRANCH   8  24
HETATM   24  O17         0      48.987  88.082  -4.144  1.00  0.00    -0.359 OA
HETATM   25  H17         0      49.094  88.390  -5.037  1.00  0.00     0.218 HD
ENDBRANCH   8  24
TORSDOF 5
ENDMDL
