MODEL 1
REMARK VINA RESULT:      -0.0      0.000      0.000
REMARK  5 active torsions:
REMARK  status: ('A' for Active; 'I' for Inactive)
REMARK    1  A    between atoms: C4_4  and  C5_5 
REMARK    2  A    between atoms: C8_8  and  O9_9 
REMARK    3  A    between atoms: C10_11  and  O11_12 
REMARK    4  A    between atoms: C16_18  and  O17_19 
REMARK    5  A    between atoms: C19_22  and  O20_23 
ROOT
HETATM    1  O1          0      46.353 117.122  37.666  1.00  0.00    -0.286 OA
HETATM    2  C2          0      46.385 118.381  37.579  1.00  0.00     0.201 C 
HETATM    3  C3          0      47.566 119.095  37.472  1.00  0.00     0.067 C 
HETATM    4  C4          0      47.580 120.485  37.481  1.00  0.00     0.103 C 
HETATM    5  O13         0      46.431 121.131  37.574  1.00  0.00    -0.307 OA
HETATM    6  C14         0      45.285 120.501  37.716  1.00  0.00     0.107 C 
HETATM    7  C15         0      44.155 121.140  38.206  1.00  0.00     0.049 C 
HETATM    8  C16         0      43.030 120.422  38.592  1.00  0.00     0.093 C 
HETATM    9  C18         0      42.891 119.179  37.987  1.00  0.00     0.048 C 
HETATM   10  C19         0      43.993 118.532  37.444  1.00  0.00     0.096 C 
HETATM   11  C21         0      45.223 119.131  37.489  1.00  0.00     0.084 C 
ENDROOT
BRANCH  10  12
HETATM   12  O20         0      43.945 117.156  37.246  1.00  0.00    -0.359 OA
HETATM   13  H20         0      44.767 116.692  37.141  1.00  0.00     0.218 HD
ENDBRANCH  10  12
BRANCH   4  14
HETATM   14  C5          0      48.797 121.140  37.965  1.00  0.00     0.025 C 
HETATM   15  C6          0      48.795 122.406  38.533  1.00  0.00     0.004 C 
HETATM   16  C7          0      49.647 122.630  39.610  1.00  0.00     0.026 C 
HETATM   17  C8          0      50.567 121.673  40.024  1.00  0.00     0.112 C 
HETATM   18  C10         0      50.926 120.753  39.048  1.00  0.00     0.112 C 
HETATM   19  C12         0      50.020 120.484  38.028  1.00  0.00     0.028 C 
BRANCH  17  20
HETATM   20  O9          0      50.908 121.549  41.359  1.00  0.00    -0.357 OA
HETATM   21  H9          0      51.337 122.233  41.860  1.00  0.00     0.218 HD
ENDBRANCH  17  20
BRANCH  18  22
HETATM   22  O11         0      51.975 119.896  39.347  1.00  0.00    -0.357 OA
HETATM   23  H11         0      52.854 120.244  39.253  1.00  0.00     0.218 HD
ENDBRANCH  18  22
ENDBRANCH   4  14
BRANCH   8  24
HETATM   24  O17         0      42.297 120.772  39.732  1.00  0.00    -0.359 OA
HETATM   25  H17         0      41.392 121.055  39.676  1.00  0.00     0.218 HD
ENDBRANCH   8  24
TORSDOF 5
ENDMDL
MODEL 2
REMARK VINA RESULT:      -0.0      6.811      9.094
REMARK  5 active torsions:
REMARK  status: ('A' for Active; 'I' for Inactive)
REMARK    1  A    between atoms: C4_4  and  C5_5 
REMARK    2  A    between atoms: C8_8  and  O9_9 
REMARK    3  A    between atoms: C10_11  and  O11_12 
REMARK    4  A    between atoms: C16_18  and  O17_19 
REMARK    5  A    between atoms: C19_22  and  O20_23 
ROOT
HETATM    1  O1          0      51.330 125.450  34.727  1.00  0.00    -0.286 OA
HETATM    2  C2          0      52.137 124.530  35.032  1.00  0.00     0.201 C 
HETATM    3  C3          0      53.502 124.736  35.140  1.00  0.00     0.067 C 
HETATM    4  C4          0      54.381 123.685  35.377  1.00  0.00     0.103 C 
HETATM    5  O13         0      53.889 122.467  35.521  1.00  0.00    -0.307 OA
HETATM    6  C14         0      52.606 122.211  35.391  1.00  0.00     0.107 C 
HETATM    7  C15         0      52.138 120.929  35.142  1.00  0.00     0.049 C 
HETATM    8  C16         0      50.822 120.703  34.755  1.00  0.00     0.093 C 
HETATM    9  C18         0      49.920 121.687  35.140  1.00  0.00     0.048 C 
HETATM   10  C19         0      50.360 122.969  35.441  1.00  0.00     0.096 C 
HETATM   11  C21         0      51.695 123.262  35.375  1.00  0.00     0.084 C 
ENDROOT
BRANCH  10  12
HETATM   12  O20         0      49.457 124.027  35.395  1.00  0.00    -0.359 OA
HETATM   13  H20         0      48.534 123.829  35.496  1.00  0.00     0.218 HD
ENDBRANCH  10  12
BRANCH   4  14
HETATM   14  C5          0      55.754 123.838  34.894  1.00  0.00     0.025 C 
HETATM   15  C6          0      56.560 122.758  34.563  1.00  0.00     0.004 C 
HETATM   16  C7          0      57.397 122.892  33.460  1.00  0.00     0.026 C 
HETATM   17  C8          0      57.530 124.102  32.788  1.00  0.00     0.112 C 
HETATM   18  C10         0      57.207 125.222  33.542  1.00  0.00     0.112 C 
HETATM   19  C12         0      56.302 125.077  34.586  1.00  0.00     0.028 C 
BRANCH  17  20
HETATM   20  O9          0      57.759 124.134  31.424  1.00  0.00    -0.357 OA
HETATM   21  H9          0      58.300 124.787  30.995  1.00  0.00     0.218 HD
ENDBRANCH  17  20
BRANCH  18  22
HETATM   22  O11         0      57.500 126.460  32.987  1.00  0.00    -0.357 OA
HETATM   23  H11         0      57.150 127.224  33.430  1.00  0.00     0.218 HD
ENDBRANCH  18  22
ENDBRANCH   4  14
BRANCH   8  24
HETATM   24  O17         0      50.502 119.753  33.778  1.00  0.00    -0.359 OA
HETATM   25  H17         0      49.997 118.976  33.985  1.00  0.00     0.218 HD
ENDBRANCH   8  24
TORSDOF 5
ENDMDL
MODEL 3
REMARK VINA RESULT:      -0.0      2.745      6.867
REMARK  5 active torsions:
REMARK  status: ('A' for Active; 'I' for Inactive)
REMARK    1  A    between atoms: C4_4  and  C5_5 
REMARK    2  A    between atoms: C8_8  and  O9_9 
REMARK    3  A    between atoms: C10_11  and  O11_12 
REMARK    4  A    between atoms: C16_18  and  O17_19 
REMARK    5  A    between atoms: C19_22  and  O20_23 
ROOT
HETATM    1  O1          0      48.533 124.695  38.797  1.00  0.00    -0.286 OA
HETATM    2  C2          0      47.772 123.768  38.406  1.00  0.00     0.201 C 
HETATM    3  C3          0      46.489 123.997  37.938  1.00  0.00     0.067 C 
HETATM    4  C4          0      45.635 122.950  37.610  1.00  0.00     0.103 C 
HETATM    5  O13         0      46.074 121.710  37.734  1.00  0.00    -0.307 OA
HETATM    6  C14         0      47.270 121.436  38.209  1.00  0.00     0.107 C 
HETATM    7  C15         0      47.586 120.182  38.711  1.00  0.00     0.049 C 
HETATM    8  C16         0      48.751 119.969  39.438  1.00  0.00     0.093 C 
HETATM    9  C18         0      49.777 120.871  39.181  1.00  0.00     0.048 C 
HETATM   10  C19         0      49.500 122.117  38.635  1.00  0.00     0.096 C 
HETATM   11  C21         0      48.209 122.454  38.332  1.00  0.00     0.084 C 
ENDROOT
BRANCH  10  12
HETATM   12  O20         0      50.425 123.146  38.785  1.00  0.00    -0.359 OA
HETATM   13  H20         0      50.750 123.570  38.000  1.00  0.00     0.218 HD
ENDBRANCH  10  12
BRANCH   4  14
HETATM   14  C5          0      44.197 123.202  37.715  1.00  0.00     0.025 C 
HETATM   15  C6          0      43.272 122.195  37.954  1.00  0.00     0.004 C 
HETATM   16  C7          0      42.200 122.490  38.790  1.00  0.00     0.026 C 
HETATM   17  C8          0      41.979 123.778  39.265  1.00  0.00     0.112 C 
HETATM   18  C10         0      42.542 124.786  38.493  1.00  0.00     0.112 C 
HETATM   19  C12         0      43.665 124.485  37.732  1.00  0.00     0.028 C 
BRANCH  17  20
HETATM   20  O9          0      41.425 123.987  40.516  1.00  0.00    -0.357 OA
HETATM   21  H9          0      40.791 123.404  40.917  1.00  0.00     0.218 HD
ENDBRANCH  17  20
BRANCH  18  22
HETATM   22  O11         0      42.195 126.091  38.813  1.00  0.00    -0.357 OA
HETATM   23  H11         0      42.138 126.709  38.093  1.00  0.00     0.218 HD
ENDBRANCH  18  22
ENDBRANCH   4  14
BRANCH   8  24
HETATM   24  O17         0      48.766 119.140  40.565  1.00  0.00    -0.359 OA
HETATM   25  H17         0      49.266 118.333  40.584  1.00  0.00     0.218 HD
ENDBRANCH   8  24
TORSDOF 5
ENDMDL
MODEL 4
REMARK VINA RESULT:       0.0      5.528      7.344
REMARK  5 active torsions:
REMARK  status: ('A' for Active; 'I' for Inactive)
REMARK    1  A    between atoms: C4_4  and  C5_5 
REMARK    2  A    between atoms: C8_8  and  O9_9 
REMARK    3  A    between atoms: C10_11  and  O11_12 
REMARK    4  A    between atoms: C16_18  and  O17_19 
REMARK    5  A    between atoms: C19_22  and  O20_23 
ROOT
HETATM    1  O1          0      45.729 115.838  39.794  1.00  0.00    -0.286 OA
HETATM    2  C2          0      46.635 115.293  39.106  1.00  0.00     0.201 C 
HETATM    3  C3          0      47.172 114.056  39.417  1.00  0.00     0.067 C 
HETATM    4  C4          0      48.240 113.525  38.703  1.00  0.00     0.103 C 
HETATM    5  O13         0      48.734 114.216  37.692  1.00  0.00    -0.307 OA
HETATM    6  C14         0      48.286 115.412  37.377  1.00  0.00     0.107 C 
HETATM    7  C15         0      49.032 116.294  36.609  1.00  0.00     0.049 C 
HETATM    8  C16         0      48.675 117.632  36.494  1.00  0.00     0.093 C 
HETATM    9  C18         0      47.329 117.900  36.712  1.00  0.00     0.048 C 
HETATM   10  C19         0      46.541 117.016  37.437  1.00  0.00     0.096 C 
HETATM   11  C21         0      47.091 115.863  37.927  1.00  0.00     0.084 C 
ENDROOT
BRANCH  10  12
HETATM   12  O20         0      45.361 117.473  38.014  1.00  0.00    -0.359 OA
HETATM   13  H20         0      44.638 117.689  37.438  1.00  0.00     0.218 HD
ENDBRANCH  10  12
BRANCH   4  14
HETATM   14  C5          0      49.113 112.583  39.406  1.00  0.00     0.025 C 
HETATM   15  C6          0      50.445 112.395  39.067  1.00  0.00     0.004 C 
HETATM   16  C7          0      51.353 112.201  40.103  1.00  0.00     0.026 C 
HETATM   17  C8          0      50.936 112.063  41.422  1.00  0.00     0.112 C 
HETATM   18  C10         0      49.623 111.635  41.573  1.00  0.00     0.112 C 
HETATM   19  C12         0      48.716 111.918  40.559  1.00  0.00     0.028 C 
BRANCH  17  20
HETATM   20  O9          0      51.718 112.526  42.465  1.00  0.00    -0.357 OA
HETATM   21  H9          0      51.813 112.073  43.295  1.00  0.00     0.218 HD
ENDBRANCH  17  20
BRANCH  18  22
HETATM   22  O11         0      49.216 111.300  42.856  1.00  0.00    -0.357 OA
HETATM   23  H11         0      48.396 111.675  43.159  1.00  0.00     0.218 HD
ENDBRANCH  18  22
ENDBRANCH   4  14
BRANCH   8  24
HETATM   24  O17         0      49.638 118.647  36.498  1.00  0.00    -0.359 OA
HETATM   25  H17         0      49.582 119.390  35.908  1.00  0.00     0.218 HD
ENDBRANCH   8  24
TORSDOF 5
ENDMDL
MODEL 5
REMARK VINA RESULT:       0.0      8.408     10.123
REMARK  5 active torsions:
REMARK  status: ('A' for Active; 'I' for Inactive)
REMARK    1  A    between atoms: C4_4  and  C5_5 
REMARK    2  A    between atoms: C8_8  and  O9_9 
REMARK    3  A    between atoms: C10_11  and  O11_12 
REMARK    4  A    between atoms: C16_18  and  O17_19 
REMARK    5  A    between atoms: C19_22  and  O20_23 
ROOT
HETATM    1  O1          0      53.740 122.058  39.230  1.00  0.00    -0.286 OA
HETATM    2  C2          0      54.318 123.180  39.214  1.00  0.00     0.201 C 
HETATM    3  C3          0      54.204 124.098  40.244  1.00  0.00     0.067 C 
HETATM    4  C4          0      54.766 125.366  40.155  1.00  0.00     0.103 C 
HETATM    5  O13         0      55.442 125.686  39.065  1.00  0.00    -0.307 OA
HETATM    6  C14         0      55.549 124.865  38.043  1.00  0.00     0.107 C 
HETATM    7  C15         0      55.893 125.316  36.777  1.00  0.00     0.049 C 
HETATM    8  C16         0      55.758 124.501  35.659  1.00  0.00     0.093 C 
HETATM    9  C18         0      55.789 123.137  35.921  1.00  0.00     0.048 C 
HETATM   10  C19         0      55.496 122.654  37.189  1.00  0.00     0.096 C 
HETATM   11  C21         0      55.190 123.530  38.195  1.00  0.00     0.084 C 
ENDROOT
BRANCH  10  12
HETATM   12  O20         0      55.106 121.327  37.339  1.00  0.00    -0.359 OA
HETATM   13  H20         0      54.211 121.099  37.118  1.00  0.00     0.218 HD
ENDBRANCH  10  12
BRANCH   4  14
HETATM   14  C5          0      54.136 126.435  40.932  1.00  0.00     0.025 C 
HETATM   15  C6          0      54.202 127.771  40.565  1.00  0.00     0.004 C 
HETATM   16  C7          0      53.068 128.551  40.764  1.00  0.00     0.026 C 
HETATM   17  C8          0      51.950 128.057  41.428  1.00  0.00     0.112 C 
HETATM   18  C10         0      52.206 126.992  42.281  1.00  0.00     0.112 C 
HETATM   19  C12         0      53.298 126.177  42.010  1.00  0.00     0.028 C 
BRANCH  17  20
HETATM   20  O9          0      50.677 128.475  41.081  1.00  0.00    -0.357 OA
HETATM   21  H9          0      49.965 128.569  41.702  1.00  0.00     0.218 HD
ENDBRANCH  17  20
BRANCH  18  22
HETATM   22  O11         0      51.168 126.585  43.106  1.00  0.00    -0.357 OA
HETATM   23  H11         0      51.408 126.212  43.947  1.00  0.00     0.218 HD
ENDBRANCH  18  22
ENDBRANCH   4  14
BRANCH   8  24
HETATM   24  O17         0      55.291 125.006  34.441  1.00  0.00    -0.359 OA
HETATM   25  H17         0      54.513 125.550  34.391  1.00  0.00     0.218 HD
ENDBRANCH   8  24
TORSDOF 5
ENDMDL
MODEL 6
REMARK VINA RESULT:       0.0      7.412      8.725
REMARK  5 active torsions:
REMARK  status: ('A' for Active; 'I' for Inactive)
REMARK    1  A    between atoms: C4_4  and  C5_5 
REMARK    2  A    between atoms: C8_8  and  O9_9 
REMARK    3  A    between atoms: C10_11  and  O11_12 
REMARK    4  A    between atoms: C16_18  and  O17_19 
REMARK    5  A    between atoms: C19_22  and  O20_23 
ROOT
HETATM    1  O1          0      52.557 122.016  37.284  1.00  0.00    -0.286 OA
HETATM    2  C2          0      53.005 123.194  37.233  1.00  0.00     0.201 C 
HETATM    3  C3          0      53.344 123.918  38.363  1.00  0.00     0.067 C 
HETATM    4  C4          0      53.739 125.249  38.285  1.00  0.00     0.103 C 
HETATM    5  O13         0      53.808 125.822  37.097  1.00  0.00    -0.307 OA
HETATM    6  C14         0      53.461 125.192  35.996  1.00  0.00     0.107 C 
HETATM    7  C15         0      53.148 125.876  34.830  1.00  0.00     0.049 C 
HETATM    8  C16         0      52.543 125.233  33.757  1.00  0.00     0.093 C 
HETATM    9  C18         0      52.758 123.862  33.696  1.00  0.00     0.048 C 
HETATM   10  C19         0      53.118 123.154  34.835  1.00  0.00     0.096 C 
HETATM   11  C21         0      53.279 123.814  36.022  1.00  0.00     0.084 C 
ENDROOT
BRANCH  10  12
HETATM   12  O20         0      52.907 121.779  34.876  1.00  0.00    -0.359 OA
HETATM   13  H20         0      52.025 121.469  35.043  1.00  0.00     0.218 HD
ENDBRANCH  10  12
BRANCH   4  14
HETATM   14  C5          0      53.497 126.089  39.460  1.00  0.00     0.025 C 
HETATM   15  C6          0      53.320 127.462  39.379  1.00  0.00     0.004 C 
HETATM   16  C7          0      52.376 128.042  40.220  1.00  0.00     0.026 C 
HETATM   17  C8          0      51.725 127.304  41.204  1.00  0.00     0.112 C 
HETATM   18  C10         0      52.402 126.164  41.616  1.00  0.00     0.112 C 
HETATM   19  C12         0      53.277 125.556  40.724  1.00  0.00     0.028 C 
BRANCH  17  20
HETATM   20  O9          0      50.421 127.595  41.561  1.00  0.00    -0.357 OA
HETATM   21  H9          0      50.186 128.164  42.285  1.00  0.00     0.218 HD
ENDBRANCH  17  20
BRANCH  18  22
HETATM   22  O11         0      51.894 125.497  42.722  1.00  0.00    -0.357 OA
HETATM   23  H11         0      52.304 125.678  43.560  1.00  0.00     0.218 HD
ENDBRANCH  18  22
ENDBRANCH   4  14
BRANCH   8  24
HETATM   24  O17         0      51.535 125.854  33.010  1.00  0.00    -0.359 OA
HETATM   25  H17         0      50.800 126.288  33.426  1.00  0.00     0.218 HD
ENDBRANCH   8  24
TORSDOF 5
ENDMDL
MODEL 7
REMARK VINA RESULT:       0.0      6.724      8.784
REMARK  5 active torsions:
REMARK  status: ('A' for Active; 'I' for Inactive)
REMARK    1  A    between atoms: C4_4  and  C5_5 
REMARK    2  A    between atoms: C8_8  and  O9_9 
REMARK    3  A    between atoms: C10_11  and  O11_12 
REMARK    4  A    between atoms: C16_18  and  O17_19 
REMARK    5  A    between atoms: C19_22  and  O20_23 
ROOT
HETATM    1  O1          0      56.340 119.127  42.431  1.00  0.00    -0.286 OA
HETATM    2  C2          0      55.451 119.067  41.539  1.00  0.00     0.201 C 
HETATM    3  C3          0      55.743 118.871  40.200  1.00  0.00     0.067 C 
HETATM    4  C4          0      54.753 118.911  39.224  1.00  0.00     0.103 C 
HETATM    5  O13         0      53.503 119.122  39.597  1.00  0.00    -0.307 OA
HETATM    6  C14         0      53.176 119.351  40.850  1.00  0.00     0.107 C 
HETATM    7  C15         0      51.976 119.955  41.194  1.00  0.00     0.049 C 
HETATM    8  C16         0      51.746 120.423  42.482  1.00  0.00     0.093 C 
HETATM    9  C18         0      52.497 119.805  43.474  1.00  0.00     0.048 C 
HETATM   10  C19         0      53.680 119.150  43.158  1.00  0.00     0.096 C 
HETATM   11  C21         0      54.102 119.099  41.857  1.00  0.00     0.084 C 
ENDROOT
BRANCH  10  12
HETATM   12  O20         0      54.621 118.926  44.158  1.00  0.00    -0.359 OA
HETATM   13  H20         0      55.230 118.206  44.043  1.00  0.00     0.218 HD
ENDBRANCH  10  12
BRANCH   4  14
HETATM   14  C5          0      55.161 119.298  37.872  1.00  0.00     0.025 C 
HETATM   15  C6          0      54.294 119.894  36.967  1.00  0.00     0.004 C 
HETATM   16  C7          0      54.805 120.895  36.148  1.00  0.00     0.026 C 
HETATM   17  C8          0      56.161 121.203  36.132  1.00  0.00     0.112 C 
HETATM   18  C10         0      56.993 120.177  36.560  1.00  0.00     0.112 C 
HETATM   19  C12         0      56.481 119.237  37.446  1.00  0.00     0.028 C 
BRANCH  17  20
HETATM   20  O9          0      56.591 122.499  35.908  1.00  0.00    -0.357 OA
HETATM   21  H9          0      56.878 123.086  36.598  1.00  0.00     0.218 HD
ENDBRANCH  17  20
BRANCH  18  22
HETATM   22  O11         0      58.358 120.362  36.387  1.00  0.00    -0.357 OA
HETATM   23  H11         0      58.878 120.488  37.172  1.00  0.00     0.218 HD
ENDBRANCH  18  22
ENDBRANCH   4  14
BRANCH   8  24
HETATM   24  O17         0      51.079 121.632  42.710  1.00  0.00    -0.359 OA
HETATM   25  H17         0      51.155 122.096  43.535  1.00  0.00     0.218 HD
ENDBRANCH   8  24
TORSDOF 5
ENDMDL
MODEL 8
REMARK VINA RESULT:       0.0      2.103      2.687
REMARK  5 active torsions:
REMARK  status: ('A' for Active; 'I' for Inactive)
REMARK    1  A    between atoms: C4_4  and  C5_5 
REMARK    2  A    between atoms: C8_8  and  O9_9 
REMARK    3  A    between atoms: C10_11  and  O11_12 
REMARK    4  A    between atoms: C16_18  and  O17_19 
REMARK    5  A    between atoms: C19_22  and  O20_23 
ROOT
HETATM    1  O1          0      44.125 118.720  35.840  1.00  0.00    -0.286 OA
HETATM    2  C2          0      44.882 119.716  36.004  1.00  0.00     0.201 C 
HETATM    3  C3          0      46.246 119.669  35.769  1.00  0.00     0.067 C 
HETATM    4  C4          0      47.072 120.750  36.055  1.00  0.00     0.103 C 
HETATM    5  O13         0      46.530 121.851  36.545  1.00  0.00    -0.307 OA
HETATM    6  C14         0      45.247 121.935  36.822  1.00  0.00     0.107 C 
HETATM    7  C15         0      44.748 122.901  37.684  1.00  0.00     0.049 C 
HETATM    8  C16         0      43.448 122.830  38.171  1.00  0.00     0.093 C 
HETATM    9  C18         0      42.562 122.112  37.378  1.00  0.00     0.048 C 
HETATM   10  C19         0      43.031 121.171  36.471  1.00  0.00     0.096 C 
HETATM   11  C21         0      44.377 120.961  36.345  1.00  0.00     0.084 C 
ENDROOT
BRANCH  10  12
HETATM   12  O20         0      42.170 120.177  36.016  1.00  0.00    -0.359 OA
HETATM   13  H20         0      41.655 119.706  36.660  1.00  0.00     0.218 HD
ENDBRANCH  10  12
BRANCH   4  14
HETATM   14  C5          0      48.474 120.459  36.360  1.00  0.00     0.025 C 
HETATM   15  C6          0      49.257 121.282  37.156  1.00  0.00     0.004 C 
HETATM   16  C7          0      50.157 120.672  38.024  1.00  0.00     0.026 C 
HETATM   17  C8          0      50.369 119.297  38.008  1.00  0.00     0.112 C 
HETATM   18  C10         0      50.046 118.675  36.809  1.00  0.00     0.112 C 
HETATM   19  C12         0      49.081 119.262  36.000  1.00  0.00     0.028 C 
BRANCH  17  20
HETATM   20  O9          0      50.673 118.613  39.171  1.00  0.00    -0.357 OA
HETATM   21  H9          0      51.426 118.041  39.266  1.00  0.00     0.218 HD
ENDBRANCH  17  20
BRANCH  18  22
HETATM   22  O11         0      50.414 117.344  36.673  1.00  0.00    -0.357 OA
HETATM   23  H11         0      51.111 117.030  37.237  1.00  0.00     0.218 HD
ENDBRANCH  18  22
ENDBRANCH   4  14
BRANCH   8  24
HETATM   24  O17         0      43.148 123.159  39.498  1.00  0.00    -0.359 OA
HETATM   25  H17         0      43.713 123.722  40.013  1.00  0.00     0.218 HD
ENDBRANCH   8  24
TORSDOF 5
ENDMDL
MODEL 9
REMARK VINA RESULT:       0.0      4.116      5.952
REMARK  5 active torsions:
REMARK  status: ('A' for Active; 'I' for Inactive)
REMARK    1  A    between atoms: C4_4  and  C5_5 
REMARK    2  A    between atoms: C8_8  and  O9_9 
REMARK    3  A    between atoms: C10_11  and  O11_12 
REMARK    4  A    between atoms: C16_18  and  O17_19 
REMARK    5  A    between atoms: C19_22  and  O20_23 
ROOT
HETATM    1  O1          0      44.684 120.541  39.815  1.00  0.00    -0.286 OA
HETATM    2  C2          0      45.126 121.551  39.201  1.00  0.00     0.201 C 
HETATM    3  C3          0      45.351 122.768  39.821  1.00  0.00     0.067 C 
HETATM    4  C4          0      45.740 123.891  39.101  1.00  0.00     0.103 C 
HETATM    5  O13         0      45.916 123.780  37.796  1.00  0.00    -0.307 OA
HETATM    6  C14         0      45.681 122.657  37.153  1.00  0.00     0.107 C 
HETATM    7  C15         0      45.474 122.631  35.781  1.00  0.00     0.049 C 
HETATM    8  C16         0      44.977 121.498  35.148  1.00  0.00     0.093 C 
HETATM    9  C18         0      45.208 120.303  35.817  1.00  0.00     0.048 C 
HETATM   10  C19         0      45.465 120.297  37.182  1.00  0.00     0.096 C 
HETATM   11  C21         0      45.507 121.478  37.870  1.00  0.00     0.084 C 
ENDROOT
BRANCH  10  12
HETATM   12  O20         0      45.262 119.127  37.907  1.00  0.00    -0.359 OA
HETATM   13  H20         0      46.003 118.756  38.371  1.00  0.00     0.218 HD
ENDBRANCH  10  12
BRANCH   4  14
HETATM   14  C5          0      45.382 125.199  39.654  1.00  0.00     0.025 C 
HETATM   15  C6          0      45.202 126.326  38.865  1.00  0.00     0.004 C 
HETATM   16  C7          0      44.178 127.200  39.214  1.00  0.00     0.026 C 
HETATM   17  C8          0      43.444 127.034  40.383  1.00  0.00     0.112 C 
HETATM   18  C10         0      44.087 126.304  41.374  1.00  0.00     0.112 C 
HETATM   19  C12         0      45.047 125.375  40.991  1.00  0.00     0.028 C 
BRANCH  17  20
HETATM   20  O9          0      42.109 127.394  40.439  1.00  0.00    -0.357 OA
HETATM   21  H9          0      41.394 126.768  40.468  1.00  0.00     0.218 HD
ENDBRANCH  17  20
BRANCH  18  22
HETATM   22  O11         0      43.482 126.269  42.622  1.00  0.00    -0.357 OA
HETATM   23  H11         0      42.768 125.653  42.736  1.00  0.00     0.218 HD
ENDBRANCH  18  22
ENDBRANCH   4  14
BRANCH   8  24
HETATM   24  O17         0      44.040 121.593  34.113  1.00  0.00    -0.359 OA
HETATM   25  H17         0      44.143 122.214  33.402  1.00  0.00     0.218 HD
ENDBRANCH   8  24
TORSDOF 5
ENDMDL
