MODEL 1
REMARK VINA RESULT:      -5.1      0.000      0.000
REMARK  5 active torsions:
REMARK  status: ('A' for Active; 'I' for Inactive)
REMARK    1  A    between atoms: C4_4  and  C5_5 
REMARK    2  A    between atoms: C8_8  and  O9_9 
REMARK    3  A    between atoms: C10_11  and  O11_12 
REMARK    4  A    between atoms: C16_18  and  O17_19 
REMARK    5  A    between atoms: C19_22  and  O20_23 
ROOT
HETATM    1  O1          0      20.684  32.036  38.122  1.00  0.00    -0.286 OA
HETATM    2  C2          0      21.188  31.022  37.567  1.00  0.00     0.201 C 
HETATM    3  C3          0      21.240  29.780  38.178  1.00  0.00     0.067 C 
HETATM    4  C4          0      21.892  28.704  37.587  1.00  0.00     0.103 C 
HETATM    5  O13         0      22.456  28.875  36.404  1.00  0.00    -0.307 OA
HETATM    6  C14         0      22.468  30.042  35.798  1.00  0.00     0.107 C 
HETATM    7  C15         0      23.371  30.331  34.785  1.00  0.00     0.049 C 
HETATM    8  C16         0      23.552  31.630  34.327  1.00  0.00     0.093 C 
HETATM    9  C18         0      22.469  32.478  34.526  1.00  0.00     0.048 C 
HETATM   10  C19         0      21.520  32.195  35.499  1.00  0.00     0.096 C 
HETATM   11  C21         0      21.643  31.063  36.258  1.00  0.00     0.084 C 
ENDROOT
BRANCH  10  12
HETATM   12  O20         0      20.716  33.221  35.984  1.00  0.00    -0.359 OA
HETATM   13  H20         0      20.376  33.853  35.361  1.00  0.00     0.218 HD
ENDBRANCH  10  12
BRANCH   4  14
HETATM   14  C5          0      22.425  27.672  38.478  1.00  0.00     0.025 C 
HETATM   15  C6          0      23.651  27.058  38.270  1.00  0.00     0.004 C 
HETATM   16  C7          0      24.428  26.774  39.389  1.00  0.00     0.026 C 
HETATM   17  C8          0      23.948  26.969  40.679  1.00  0.00     0.112 C 
HETATM   18  C10         0      22.564  26.968  40.789  1.00  0.00     0.112 C 
HETATM   19  C12         0      21.813  27.338  39.679  1.00  0.00     0.028 C 
BRANCH  17  20
HETATM   20  O9          0      24.799  27.344  41.703  1.00  0.00    -0.357 OA
HETATM   21  H9          0      25.524  26.811  42.009  1.00  0.00     0.218 HD
ENDBRANCH  17  20
BRANCH  18  22
HETATM   22  O11         0      22.035  26.969  42.072  1.00  0.00    -0.357 OA
HETATM   23  H11         0      21.697  26.143  42.399  1.00  0.00     0.218 HD
ENDBRANCH  18  22
ENDBRANCH   4  14
BRANCH   8  24
HETATM   24  O17         0      24.823  32.122  34.011  1.00  0.00    -0.359 OA
HETATM   25  H17         0      24.949  32.792  33.349  1.00  0.00     0.218 HD
ENDBRANCH   8  24
TORSDOF 5
ENDMDL
MODEL 2
REMARK VINA RESULT:      -5.1      2.500      7.525
REMARK  5 active torsions:
REMARK  status: ('A' for Active; 'I' for Inactive)
REMARK    1  A    between atoms: C4_4  and  C5_5 
REMARK    2  A    between atoms: C8_8  and  O9_9 
REMARK    3  A    between atoms: C10_11  and  O11_12 
REMARK    4  A    between atoms: C16_18  and  O17_19 
REMARK    5  A    between atoms: C19_22  and  O20_23 
ROOT
HETATM    1  O1          0      24.449  27.348  41.480  1.00  0.00    -0.286 OA
HETATM    2  C2          0      24.066  26.728  40.450  1.00  0.00     0.201 C 
HETATM    3  C3          0      23.895  27.347  39.223  1.00  0.00     0.067 C 
HETATM    4  C4          0      23.374  26.664  38.129  1.00  0.00     0.103 C 
HETATM    5  O13         0      23.057  25.389  38.269  1.00  0.00    -0.307 OA
HETATM    6  C14         0      23.164  24.764  39.422  1.00  0.00     0.107 C 
HETATM    7  C15         0      22.479  23.586  39.681  1.00  0.00     0.049 C 
HETATM    8  C16         0      22.392  23.070  40.968  1.00  0.00     0.093 C 
HETATM    9  C18         0      23.413  23.459  41.827  1.00  0.00     0.048 C 
HETATM   10  C19         0      24.150  24.608  41.572  1.00  0.00     0.096 C 
HETATM   11  C21         0      23.880  25.354  40.458  1.00  0.00     0.084 C 
ENDROOT
BRANCH  10  12
HETATM   12  O20         0      24.841  25.218  42.614  1.00  0.00    -0.359 OA
HETATM   13  H20         0      24.637  26.123  42.815  1.00  0.00     0.218 HD
ENDBRANCH  10  12
BRANCH   4  14
HETATM   14  C5          0      22.677  27.457  37.115  1.00  0.00     0.025 C 
HETATM   15  C6          0      22.160  28.719  37.372  1.00  0.00     0.004 C 
HETATM   16  C7          0      22.265  29.675  36.366  1.00  0.00     0.026 C 
HETATM   17  C8          0      22.746  29.353  35.102  1.00  0.00     0.112 C 
HETATM   18  C10         0      22.630  28.012  34.761  1.00  0.00     0.112 C 
HETATM   19  C12         0      22.613  27.071  35.783  1.00  0.00     0.028 C 
BRANCH  17  20
HETATM   20  O9          0      23.465  30.275  34.361  1.00  0.00    -0.357 OA
HETATM   21  H9          0      24.140  30.038  33.736  1.00  0.00     0.218 HD
ENDBRANCH  17  20
BRANCH  18  22
HETATM   22  O11         0      22.917  27.671  33.447  1.00  0.00    -0.357 OA
HETATM   23  H11         0      22.596  26.830  33.141  1.00  0.00     0.218 HD
ENDBRANCH  18  22
ENDBRANCH   4  14
BRANCH   8  24
HETATM   24  O17         0      21.208  22.497  41.445  1.00  0.00    -0.359 OA
HETATM   25  H17         0      20.388  22.582  40.975  1.00  0.00     0.218 HD
ENDBRANCH   8  24
TORSDOF 5
ENDMDL
MODEL 3
REMARK VINA RESULT:      -5.1      1.908      6.782
REMARK  5 active torsions:
REMARK  status: ('A' for Active; 'I' for Inactive)
REMARK    1  A    between atoms: C4_4  and  C5_5 
REMARK    2  A    between atoms: C8_8  and  O9_9 
REMARK    3  A    between atoms: C10_11  and  O11_12 
REMARK    4  A    between atoms: C16_18  and  O17_19 
REMARK    5  A    between atoms: C19_22  and  O20_23 
ROOT
HETATM    1  O1          0      22.506  25.793  35.174  1.00  0.00    -0.286 OA
HETATM    2  C2          0      22.351  26.733  36.001  1.00  0.00     0.201 C 
HETATM    3  C3          0      22.108  28.040  35.615  1.00  0.00     0.067 C 
HETATM    4  C4          0      22.043  29.074  36.543  1.00  0.00     0.103 C 
HETATM    5  O13         0      22.200  28.788  37.823  1.00  0.00    -0.307 OA
HETATM    6  C14         0      22.471  27.570  38.240  1.00  0.00     0.107 C 
HETATM    7  C15         0      23.022  27.332  39.491  1.00  0.00     0.049 C 
HETATM    8  C16         0      23.538  26.086  39.825  1.00  0.00     0.093 C 
HETATM    9  C18         0      23.013  25.020  39.106  1.00  0.00     0.048 C 
HETATM   10  C19         0      22.412  25.229  37.872  1.00  0.00     0.096 C 
HETATM   11  C21         0      22.322  26.498  37.367  1.00  0.00     0.084 C 
ENDROOT
BRANCH  10  12
HETATM   12  O20         0      22.291  24.164  36.984  1.00  0.00    -0.359 OA
HETATM   13  H20         0      22.708  24.243  36.135  1.00  0.00     0.218 HD
ENDBRANCH  10  12
BRANCH   4  14
HETATM   14  C5          0      22.387  30.417  36.073  1.00  0.00     0.025 C 
HETATM   15  C6          0      23.322  30.649  35.075  1.00  0.00     0.004 C 
HETATM   16  C7          0      23.055  31.667  34.165  1.00  0.00     0.026 C 
HETATM   17  C8          0      21.964  32.515  34.319  1.00  0.00     0.112 C 
HETATM   18  C10         0      21.488  32.617  35.620  1.00  0.00     0.112 C 
HETATM   19  C12         0      21.695  31.549  36.484  1.00  0.00     0.028 C 
BRANCH  17  20
HETATM   20  O9          0      21.304  33.028  33.217  1.00  0.00    -0.357 OA
HETATM   21  H9          0      21.524  32.807  32.319  1.00  0.00     0.218 HD
ENDBRANCH  17  20
BRANCH  18  22
HETATM   22  O11         0      20.528  33.589  35.863  1.00  0.00    -0.357 OA
HETATM   23  H11         0      20.606  34.402  35.377  1.00  0.00     0.218 HD
ENDBRANCH  18  22
ENDBRANCH   4  14
BRANCH   8  24
HETATM   24  O17         0      24.716  25.961  40.570  1.00  0.00    -0.359 OA
HETATM   25  H17         0      24.715  26.015  41.519  1.00  0.00     0.218 HD
ENDBRANCH   8  24
TORSDOF 5
ENDMDL
MODEL 4
REMARK VINA RESULT:      -4.8      1.931      7.050
REMARK  5 active torsions:
REMARK  status: ('A' for Active; 'I' for Inactive)
REMARK    1  A    between atoms: C4_4  and  C5_5 
REMARK    2  A    between atoms: C8_8  and  O9_9 
REMARK    3  A    between atoms: C10_11  and  O11_12 
REMARK    4  A    between atoms: C16_18  and  O17_19 
REMARK    5  A    between atoms: C19_22  and  O20_23 
ROOT
HETATM    1  O1          0      25.315  25.974  39.256  1.00  0.00    -0.286 OA
HETATM    2  C2          0      24.140  26.431  39.224  1.00  0.00     0.201 C 
HETATM    3  C3          0      23.568  26.950  38.075  1.00  0.00     0.067 C 
HETATM    4  C4          0      22.310  27.541  38.091  1.00  0.00     0.103 C 
HETATM    5  O13         0      21.644  27.586  39.232  1.00  0.00    -0.307 OA
HETATM    6  C14         0      22.156  27.142  40.358  1.00  0.00     0.107 C 
HETATM    7  C15         0      21.659  27.535  41.593  1.00  0.00     0.049 C 
HETATM    8  C16         0      22.354  27.272  42.767  1.00  0.00     0.093 C 
HETATM    9  C18         0      23.224  26.191  42.705  1.00  0.00     0.048 C 
HETATM   10  C19         0      23.704  25.742  41.482  1.00  0.00     0.096 C 
HETATM   11  C21         0      23.304  26.357  40.328  1.00  0.00     0.084 C 
ENDROOT
BRANCH  10  12
HETATM   12  O20         0      24.870  24.983  41.446  1.00  0.00    -0.359 OA
HETATM   13  H20         0      25.016  24.358  42.146  1.00  0.00     0.218 HD
ENDBRANCH  10  12
BRANCH   4  14
HETATM   14  C5          0      22.034  28.558  37.074  1.00  0.00     0.025 C 
HETATM   15  C6          0      21.877  29.902  37.378  1.00  0.00     0.004 C 
HETATM   16  C7          0      22.406  30.830  36.487  1.00  0.00     0.026 C 
HETATM   17  C8          0      22.955  30.442  35.269  1.00  0.00     0.112 C 
HETATM   18  C10         0      22.504  29.218  34.794  1.00  0.00     0.112 C 
HETATM   19  C12         0      22.060  28.276  35.714  1.00  0.00     0.028 C 
BRANCH  17  20
HETATM   20  O9          0      24.014  31.139  34.715  1.00  0.00    -0.357 OA
HETATM   21  H9          0      24.926  30.965  34.922  1.00  0.00     0.218 HD
ENDBRANCH  17  20
BRANCH  18  22
HETATM   22  O11         0      22.872  28.871  33.502  1.00  0.00    -0.357 OA
HETATM   23  H11         0      23.684  29.240  33.173  1.00  0.00     0.218 HD
ENDBRANCH  18  22
ENDBRANCH   4  14
BRANCH   8  24
HETATM   24  O17         0      22.423  28.214  43.800  1.00  0.00    -0.359 OA
HETATM   25  H17         0      21.652  28.679  44.104  1.00  0.00     0.218 HD
ENDBRANCH   8  24
TORSDOF 5
ENDMDL
MODEL 5
REMARK VINA RESULT:      -4.7      1.988      6.684
REMARK  5 active torsions:
REMARK  status: ('A' for Active; 'I' for Inactive)
REMARK    1  A    between atoms: C4_4  and  C5_5 
REMARK    2  A    between atoms: C8_8  and  O9_9 
REMARK    3  A    between atoms: C10_11  and  O11_12 
REMARK    4  A    between atoms: C16_18  and  O17_19 
REMARK    5  A    between atoms: C19_22  and  O20_23 
ROOT
HETATM    1  O1          0      19.830  25.788  37.105  1.00  0.00    -0.286 OA
HETATM    2  C2          0      20.707  26.687  37.226  1.00  0.00     0.201 C 
HETATM    3  C3          0      20.726  27.827  36.442  1.00  0.00     0.067 C 
HETATM    4  C4          0      21.760  28.752  36.525  1.00  0.00     0.103 C 
HETATM    5  O13         0      22.735  28.538  37.391  1.00  0.00    -0.307 OA
HETATM    6  C14         0      22.785  27.453  38.133  1.00  0.00     0.107 C 
HETATM    7  C15         0      23.963  27.029  38.730  1.00  0.00     0.049 C 
HETATM    8  C16         0      24.073  25.763  39.293  1.00  0.00     0.093 C 
HETATM    9  C18         0      22.870  25.195  39.697  1.00  0.00     0.048 C 
HETATM   10  C19         0      21.668  25.628  39.155  1.00  0.00     0.096 C 
HETATM   11  C21         0      21.665  26.634  38.227  1.00  0.00     0.084 C 
ENDROOT
BRANCH  10  12
HETATM   12  O20         0      20.554  24.797  39.219  1.00  0.00    -0.359 OA
HETATM   13  H20         0      20.558  24.095  39.860  1.00  0.00     0.218 HD
ENDBRANCH  10  12
BRANCH   4  14
HETATM   14  C5          0      22.042  29.551  35.331  1.00  0.00     0.025 C 
HETATM   15  C6          0      21.043  30.105  34.544  1.00  0.00     0.004 C 
HETATM   16  C7          0      21.265  31.374  34.019  1.00  0.00     0.026 C 
HETATM   17  C8          0      22.490  32.017  34.158  1.00  0.00     0.112 C 
HETATM   18  C10         0      23.568  31.170  34.378  1.00  0.00     0.112 C 
HETATM   19  C12         0      23.329  29.941  34.983  1.00  0.00     0.028 C 
BRANCH  17  20
HETATM   20  O9          0      22.559  33.394  34.276  1.00  0.00    -0.357 OA
HETATM   21  H9          0      23.305  33.856  34.640  1.00  0.00     0.218 HD
ENDBRANCH  17  20
BRANCH  18  22
HETATM   22  O11         0      24.833  31.738  34.336  1.00  0.00    -0.357 OA
HETATM   23  H11         0      25.237  31.824  33.480  1.00  0.00     0.218 HD
ENDBRANCH  18  22
ENDBRANCH   4  14
BRANCH   8  24
HETATM   24  O17         0      25.236  24.999  39.150  1.00  0.00    -0.359 OA
HETATM   25  H17         0      25.358  24.183  39.620  1.00  0.00     0.218 HD
ENDBRANCH   8  24
TORSDOF 5
ENDMDL
MODEL 6
REMARK VINA RESULT:      -4.6      2.922      6.853
REMARK  5 active torsions:
REMARK  status: ('A' for Active; 'I' for Inactive)
REMARK    1  A    between atoms: C4_4  and  C5_5 
REMARK    2  A    between atoms: C8_8  and  O9_9 
REMARK    3  A    between atoms: C10_11  and  O11_12 
REMARK    4  A    between atoms: C16_18  and  O17_19 
REMARK    5  A    between atoms: C19_22  and  O20_23 
ROOT
HETATM    1  O1          0      21.498  28.408  41.034  1.00  0.00    -0.286 OA
HETATM    2  C2          0      22.161  27.896  40.090  1.00  0.00     0.201 C 
HETATM    3  C3          0      21.960  28.234  38.762  1.00  0.00     0.067 C 
HETATM    4  C4          0      22.631  27.581  37.735  1.00  0.00     0.103 C 
HETATM    5  O13         0      23.495  26.630  38.045  1.00  0.00    -0.307 OA
HETATM    6  C14         0      23.695  26.245  39.286  1.00  0.00     0.107 C 
HETATM    7  C15         0      24.271  25.019  39.587  1.00  0.00     0.049 C 
HETATM    8  C16         0      24.248  24.509  40.880  1.00  0.00     0.093 C 
HETATM    9  C18         0      24.126  25.461  41.884  1.00  0.00     0.048 C 
HETATM   10  C19         0      23.598  26.715  41.608  1.00  0.00     0.096 C 
HETATM   11  C21         0      23.209  27.021  40.332  1.00  0.00     0.084 C 
ENDROOT
BRANCH  10  12
HETATM   12  O20         0      23.082  27.480  42.649  1.00  0.00    -0.359 OA
HETATM   13  H20         0      22.313  27.155  43.102  1.00  0.00     0.218 HD
ENDBRANCH  10  12
BRANCH   4  14
HETATM   14  C5          0      21.974  27.538  36.427  1.00  0.00     0.025 C 
HETATM   15  C6          0      21.527  28.676  35.772  1.00  0.00     0.004 C 
HETATM   16  C7          0      21.681  28.727  34.391  1.00  0.00     0.026 C 
HETATM   17  C8          0      22.140  27.632  33.667  1.00  0.00     0.112 C 
HETATM   18  C10         0      21.951  26.405  34.289  1.00  0.00     0.112 C 
HETATM   19  C12         0      21.885  26.372  35.677  1.00  0.00     0.028 C 
BRANCH  17  20
HETATM   20  O9          0      22.906  27.806  32.528  1.00  0.00    -0.357 OA
HETATM   21  H9          0      23.043  27.128  31.875  1.00  0.00     0.218 HD
ENDBRANCH  17  20
BRANCH  18  22
HETATM   22  O11         0      22.215  25.271  33.535  1.00  0.00    -0.357 OA
HETATM   23  H11         0      22.866  25.354  32.847  1.00  0.00     0.218 HD
ENDBRANCH  18  22
ENDBRANCH   4  14
BRANCH   8  24
HETATM   24  O17         0      24.024  23.149  41.123  1.00  0.00    -0.359 OA
HETATM   25  H17         0      24.710  22.581  41.451  1.00  0.00     0.218 HD
ENDBRANCH   8  24
TORSDOF 5
ENDMDL
MODEL 7
REMARK VINA RESULT:      -4.6      2.538      3.417
REMARK  5 active torsions:
REMARK  status: ('A' for Active; 'I' for Inactive)
REMARK    1  A    between atoms: C4_4  and  C5_5 
REMARK    2  A    between atoms: C8_8  and  O9_9 
REMARK    3  A    between atoms: C10_11  and  O11_12 
REMARK    4  A    between atoms: C16_18  and  O17_19 
REMARK    5  A    between atoms: C19_22  and  O20_23 
ROOT
HETATM    1  O1          0      20.634  27.255  33.565  1.00  0.00    -0.286 OA
HETATM    2  C2          0      21.435  27.546  34.496  1.00  0.00     0.201 C 
HETATM    3  C3          0      21.830  26.633  35.458  1.00  0.00     0.067 C 
HETATM    4  C4          0      22.632  27.006  36.531  1.00  0.00     0.103 C 
HETATM    5  O13         0      23.038  28.260  36.614  1.00  0.00    -0.307 OA
HETATM    6  C14         0      22.662  29.176  35.748  1.00  0.00     0.107 C 
HETATM    7  C15         0      22.741  30.531  36.035  1.00  0.00     0.049 C 
HETATM    8  C16         0      22.113  31.476  35.233  1.00  0.00     0.093 C 
HETATM    9  C18         0      21.889  31.078  33.921  1.00  0.00     0.048 C 
HETATM   10  C19         0      21.850  29.730  33.590  1.00  0.00     0.096 C 
HETATM   11  C21         0      22.050  28.787  34.560  1.00  0.00     0.084 C 
ENDROOT
BRANCH  10  12
HETATM   12  O20         0      21.211  29.336  32.418  1.00  0.00    -0.359 OA
HETATM   13  H20         0      20.426  29.803  32.160  1.00  0.00     0.218 HD
ENDBRANCH  10  12
BRANCH   4  14
HETATM   14  C5          0      22.513  26.221  37.761  1.00  0.00     0.025 C 
HETATM   15  C6          0      21.574  25.212  37.922  1.00  0.00     0.004 C 
HETATM   16  C7          0      21.965  24.073  38.618  1.00  0.00     0.026 C 
HETATM   17  C8          0      23.201  23.992  39.249  1.00  0.00     0.112 C 
HETATM   18  C10         0      23.771  25.218  39.568  1.00  0.00     0.112 C 
HETATM   19  C12         0      23.427  26.325  38.802  1.00  0.00     0.028 C 
BRANCH  17  20
HETATM   20  O9          0      23.873  22.786  39.341  1.00  0.00    -0.357 OA
HETATM   21  H9          0      23.892  22.250  40.126  1.00  0.00     0.218 HD
ENDBRANCH  17  20
BRANCH  18  22
HETATM   22  O11         0      24.907  25.194  40.364  1.00  0.00    -0.357 OA
HETATM   23  H11         0      24.817  24.820  41.232  1.00  0.00     0.218 HD
ENDBRANCH  18  22
ENDBRANCH   4  14
BRANCH   8  24
HETATM   24  O17         0      21.464  32.586  35.786  1.00  0.00    -0.359 OA
HETATM   25  H17         0      20.599  32.852  35.499  1.00  0.00     0.218 HD
ENDBRANCH   8  24
TORSDOF 5
ENDMDL
MODEL 8
REMARK VINA RESULT:      -4.5      2.075      2.906
REMARK  5 active torsions:
REMARK  status: ('A' for Active; 'I' for Inactive)
REMARK    1  A    between atoms: C4_4  and  C5_5 
REMARK    2  A    between atoms: C8_8  and  O9_9 
REMARK    3  A    between atoms: C10_11  and  O11_12 
REMARK    4  A    between atoms: C16_18  and  O17_19 
REMARK    5  A    between atoms: C19_22  and  O20_23 
ROOT
HETATM    1  O1          0      20.324  27.258  34.041  1.00  0.00    -0.286 OA
HETATM    2  C2          0      21.223  27.617  34.851  1.00  0.00     0.201 C 
HETATM    3  C3          0      21.637  26.828  35.910  1.00  0.00     0.067 C 
HETATM    4  C4          0      22.555  27.290  36.847  1.00  0.00     0.103 C 
HETATM    5  O13         0      23.053  28.505  36.702  1.00  0.00    -0.307 OA
HETATM    6  C14         0      22.666  29.309  35.736  1.00  0.00     0.107 C 
HETATM    7  C15         0      22.864  30.680  35.802  1.00  0.00     0.049 C 
HETATM    8  C16         0      22.235  31.544  34.914  1.00  0.00     0.093 C 
HETATM    9  C18         0      21.869  30.974  33.701  1.00  0.00     0.048 C 
HETATM   10  C19         0      21.707  29.600  33.587  1.00  0.00     0.096 C 
HETATM   11  C21         0      21.926  28.799  34.674  1.00  0.00     0.084 C 
ENDROOT
BRANCH  10  12
HETATM   12  O20         0      20.941  29.089  32.544  1.00  0.00    -0.359 OA
HETATM   13  H20         0      20.844  28.146  32.483  1.00  0.00     0.218 HD
ENDBRANCH  10  12
BRANCH   4  14
HETATM   14  C5          0      22.491  26.710  38.190  1.00  0.00     0.025 C 
HETATM   15  C6          0      22.058  25.414  38.429  1.00  0.00     0.004 C 
HETATM   16  C7          0      22.717  24.686  39.415  1.00  0.00     0.026 C 
HETATM   17  C8          0      23.683  25.267  40.228  1.00  0.00     0.112 C 
HETATM   18  C10         0      23.588  26.648  40.346  1.00  0.00     0.112 C 
HETATM   19  C12         0      23.001  27.360  39.306  1.00  0.00     0.028 C 
BRANCH  17  20
HETATM   20  O9          0      24.758  24.530  40.690  1.00  0.00    -0.357 OA
HETATM   21  H9          0      25.165  23.825  40.199  1.00  0.00     0.218 HD
ENDBRANCH  17  20
BRANCH  18  22
HETATM   22  O11         0      24.404  27.256  41.289  1.00  0.00    -0.357 OA
HETATM   23  H11         0      24.172  28.139  41.552  1.00  0.00     0.218 HD
ENDBRANCH  18  22
ENDBRANCH   4  14
BRANCH   8  24
HETATM   24  O17         0      21.716  32.773  35.336  1.00  0.00    -0.359 OA
HETATM   25  H17         0      21.835  33.567  34.827  1.00  0.00     0.218 HD
ENDBRANCH   8  24
TORSDOF 5
ENDMDL
MODEL 9
REMARK VINA RESULT:      -4.4      1.964      2.509
REMARK  5 active torsions:
REMARK  status: ('A' for Active; 'I' for Inactive)
REMARK    1  A    between atoms: C4_4  and  C5_5 
REMARK    2  A    between atoms: C8_8  and  O9_9 
REMARK    3  A    between atoms: C10_11  and  O11_12 
REMARK    4  A    between atoms: C16_18  and  O17_19 
REMARK    5  A    between atoms: C19_22  and  O20_23 
ROOT
HETATM    1  O1          0      19.100  28.943  35.546  1.00  0.00    -0.286 OA
HETATM    2  C2          0      20.351  28.889  35.702  1.00  0.00     0.201 C 
HETATM    3  C3          0      20.956  28.065  36.635  1.00  0.00     0.067 C 
HETATM    4  C4          0      22.328  28.100  36.857  1.00  0.00     0.103 C 
HETATM    5  O13         0      23.066  28.928  36.140  1.00  0.00    -0.307 OA
HETATM    6  C14         0      22.538  29.758  35.267  1.00  0.00     0.107 C 
HETATM    7  C15         0      23.222  30.878  34.816  1.00  0.00     0.049 C 
HETATM    8  C16         0      22.576  31.879  34.102  1.00  0.00     0.093 C 
HETATM    9  C18         0      21.430  31.473  33.429  1.00  0.00     0.048 C 
HETATM   10  C19         0      20.747  30.331  33.824  1.00  0.00     0.096 C 
HETATM   11  C21         0      21.215  29.589  34.874  1.00  0.00     0.084 C 
ENDROOT
BRANCH  10  12
HETATM   12  O20         0      19.413  30.175  33.458  1.00  0.00    -0.359 OA
HETATM   13  H20         0      19.132  29.321  33.153  1.00  0.00     0.218 HD
ENDBRANCH  10  12
BRANCH   4  14
HETATM   14  C5          0      22.803  27.701  38.184  1.00  0.00     0.025 C 
HETATM   15  C6          0      22.026  27.820  39.327  1.00  0.00     0.004 C 
HETATM   16  C7          0      22.115  26.806  40.275  1.00  0.00     0.026 C 
HETATM   17  C8          0      23.043  25.776  40.157  1.00  0.00     0.112 C 
HETATM   18  C10         0      24.148  26.079  39.372  1.00  0.00     0.112 C 
HETATM   19  C12         0      24.007  27.037  38.375  1.00  0.00     0.028 C 
BRANCH  17  20
HETATM   20  O9          0      22.752  24.504  40.617  1.00  0.00    -0.357 OA
HETATM   21  H9          0      23.283  24.039  41.254  1.00  0.00     0.218 HD
ENDBRANCH  17  20
BRANCH  18  22
HETATM   22  O11         0      25.189  25.162  39.374  1.00  0.00    -0.357 OA
HETATM   23  H11         0      25.908  25.327  38.775  1.00  0.00     0.218 HD
ENDBRANCH  18  22
ENDBRANCH   4  14
BRANCH   8  24
HETATM   24  O17         0      22.861  33.232  34.320  1.00  0.00    -0.359 OA
HETATM   25  H17         0      23.503  33.509  34.963  1.00  0.00     0.218 HD
ENDBRANCH   8  24
TORSDOF 5
ENDMDL
