MODEL 1
REMARK VINA RESULT:      -0.0      0.000      0.000
REMARK  5 active torsions:
REMARK  status: ('A' for Active; 'I' for Inactive)
REMARK    1  A    between atoms: C4_4  and  C5_5 
REMARK    2  A    between atoms: C8_8  and  O9_9 
REMARK    3  A    between atoms: C10_11  and  O11_12 
REMARK    4  A    between atoms: C16_18  and  O17_19 
REMARK    5  A    between atoms: C19_22  and  O20_23 
ROOT
HETATM    1  O1          0      15.980  48.660 -26.759  1.00  0.00    -0.286 OA
HETATM    2  C2          0      15.819  47.762 -25.888  1.00  0.00     0.201 C 
HETATM    3  C3          0      15.883  48.015 -24.528  1.00  0.00     0.067 C 
HETATM    4  C4          0      15.804  46.990 -23.592  1.00  0.00     0.103 C 
HETATM    5  O13         0      15.644  45.750 -24.020  1.00  0.00    -0.307 OA
HETATM    6  C14         0      15.615  45.451 -25.300  1.00  0.00     0.107 C 
HETATM    7  C15         0      15.850  44.161 -25.754  1.00  0.00     0.049 C 
HETATM    8  C16         0      16.070  43.899 -27.101  1.00  0.00     0.093 C 
HETATM    9  C18         0      15.532  44.835 -27.977  1.00  0.00     0.048 C 
HETATM   10  C19         0      15.241  46.121 -27.543  1.00  0.00     0.096 C 
HETATM   11  C21         0      15.471  46.466 -26.239  1.00  0.00     0.084 C 
ENDROOT
BRANCH  10  12
HETATM   12  O20         0      15.128  47.145 -28.478  1.00  0.00    -0.359 OA
HETATM   13  H20         0      14.889  48.009 -28.166  1.00  0.00     0.218 HD
ENDBRANCH  10  12
BRANCH   4  14
HETATM   14  C5          0      16.457  47.211 -22.300  1.00  0.00     0.025 C 
HETATM   15  C6          0      17.102  46.201 -21.601  1.00  0.00     0.004 C 
HETATM   16  C7          0      18.277  46.529 -20.932  1.00  0.00     0.026 C 
HETATM   17  C8          0      18.726  47.843 -20.848  1.00  0.00     0.112 C 
HETATM   18  C10         0      17.737  48.805 -21.005  1.00  0.00     0.112 C 
HETATM   19  C12         0      16.611  48.478 -21.751  1.00  0.00     0.028 C 
BRANCH  17  20
HETATM   20  O9          0      20.079  48.129 -20.823  1.00  0.00    -0.357 OA
HETATM   21  H9          0      20.661  47.994 -21.562  1.00  0.00     0.218 HD
ENDBRANCH  17  20
BRANCH  18  22
HETATM   22  O11         0      18.093  50.120 -20.744  1.00  0.00    -0.357 OA
HETATM   23  H11         0      18.862  50.454 -21.190  1.00  0.00     0.218 HD
ENDBRANCH  18  22
ENDBRANCH   4  14
BRANCH   8  24
HETATM   24  O17         0      17.032  42.972 -27.516  1.00  0.00    -0.359 OA
HETATM   25  H17         0      17.652  42.589 -26.907  1.00  0.00     0.218 HD
ENDBRANCH   8  24
TORSDOF 5
ENDMDL
MODEL 2
REMARK VINA RESULT:      -0.0      2.112      2.318
REMARK  5 active torsions:
REMARK  status: ('A' for Active; 'I' for Inactive)
REMARK    1  A    between atoms: C4_4  and  C5_5 
REMARK    2  A    between atoms: C8_8  and  O9_9 
REMARK    3  A    between atoms: C10_11  and  O11_12 
REMARK    4  A    between atoms: C16_18  and  O17_19 
REMARK    5  A    between atoms: C19_22  and  O20_23 
ROOT
HETATM    1  O1          0      17.526  48.934 -26.931  1.00  0.00    -0.286 OA
HETATM    2  C2          0      16.435  48.520 -26.452  1.00  0.00     0.201 C 
HETATM    3  C3          0      15.916  48.986 -25.256  1.00  0.00     0.067 C 
HETATM    4  C4          0      14.765  48.440 -24.699  1.00  0.00     0.103 C 
HETATM    5  O13         0      14.148  47.466 -25.345  1.00  0.00    -0.307 OA
HETATM    6  C14         0      14.619  46.962 -26.465  1.00  0.00     0.107 C 
HETATM    7  C15         0      14.225  45.714 -26.927  1.00  0.00     0.049 C 
HETATM    8  C16         0      14.905  45.079 -27.959  1.00  0.00     0.093 C 
HETATM    9  C18         0      15.596  45.928 -28.815  1.00  0.00     0.048 C 
HETATM   10  C19         0      15.965  47.200 -28.401  1.00  0.00     0.096 C 
HETATM   11  C21         0      15.630  47.630 -27.146  1.00  0.00     0.084 C 
ENDROOT
BRANCH  10  12
HETATM   12  O20         0      16.998  47.858 -29.062  1.00  0.00    -0.359 OA
HETATM   13  H20         0      16.885  48.779 -29.260  1.00  0.00     0.218 HD
ENDBRANCH  10  12
BRANCH   4  14
HETATM   14  C5          0      14.619  48.524 -23.245  1.00  0.00     0.025 C 
HETATM   15  C6          0      14.005  47.534 -22.492  1.00  0.00     0.004 C 
HETATM   16  C7          0      14.553  47.235 -21.249  1.00  0.00     0.026 C 
HETATM   17  C8          0      15.594  47.985 -20.712  1.00  0.00     0.112 C 
HETATM   18  C10         0      15.698  49.275 -21.214  1.00  0.00     0.112 C 
HETATM   19  C12         0      15.218  49.527 -22.494  1.00  0.00     0.028 C 
BRANCH  17  20
HETATM   20  O9          0      16.552  47.393 -19.909  1.00  0.00    -0.357 OA
HETATM   21  H9          0      16.766  47.693 -19.033  1.00  0.00     0.218 HD
ENDBRANCH  17  20
BRANCH  18  22
HETATM   22  O11         0      16.594  50.125 -20.581  1.00  0.00    -0.357 OA
HETATM   23  H11         0      17.463  49.782 -20.408  1.00  0.00     0.218 HD
ENDBRANCH  18  22
ENDBRANCH   4  14
BRANCH   8  24
HETATM   24  O17         0      15.148  43.702 -27.933  1.00  0.00    -0.359 OA
HETATM   25  H17         0      14.464  43.070 -28.122  1.00  0.00     0.218 HD
ENDBRANCH   8  24
TORSDOF 5
ENDMDL
MODEL 3
REMARK VINA RESULT:      -0.0      2.128      6.144
REMARK  5 active torsions:
REMARK  status: ('A' for Active; 'I' for Inactive)
REMARK    1  A    between atoms: C4_4  and  C5_5 
REMARK    2  A    between atoms: C8_8  and  O9_9 
REMARK    3  A    between atoms: C10_11  and  O11_12 
REMARK    4  A    between atoms: C16_18  and  O17_19 
REMARK    5  A    between atoms: C19_22  and  O20_23 
ROOT
HETATM    1  O1          0      16.805  50.031 -22.119  1.00  0.00    -0.286 OA
HETATM    2  C2          0      16.957  48.881 -22.615  1.00  0.00     0.201 C 
HETATM    3  C3          0      17.384  48.674 -23.916  1.00  0.00     0.067 C 
HETATM    4  C4          0      17.445  47.401 -24.469  1.00  0.00     0.103 C 
HETATM    5  O13         0      17.104  46.366 -23.720  1.00  0.00    -0.307 OA
HETATM    6  C14         0      16.657  46.510 -22.492  1.00  0.00     0.107 C 
HETATM    7  C15         0      15.936  45.510 -21.855  1.00  0.00     0.049 C 
HETATM    8  C16         0      15.253  45.755 -20.670  1.00  0.00     0.093 C 
HETATM    9  C18         0      15.745  46.815 -19.918  1.00  0.00     0.048 C 
HETATM   10  C19         0      16.510  47.808 -20.514  1.00  0.00     0.096 C 
HETATM   11  C21         0      16.795  47.735 -21.850  1.00  0.00     0.084 C 
ENDROOT
BRANCH  10  12
HETATM   12  O20         0      16.624  49.046 -19.889  1.00  0.00    -0.359 OA
HETATM   13  H20         0      17.494  49.407 -19.771  1.00  0.00     0.218 HD
ENDBRANCH  10  12
BRANCH   4  14
HETATM   14  C5          0      17.306  47.294 -25.923  1.00  0.00     0.025 C 
HETATM   15  C6          0      16.656  46.236 -26.541  1.00  0.00     0.004 C 
HETATM   16  C7          0      15.880  46.521 -27.659  1.00  0.00     0.026 C 
HETATM   17  C8          0      15.856  47.791 -28.226  1.00  0.00     0.112 C 
HETATM   18  C10         0      16.972  48.569 -27.952  1.00  0.00     0.112 C 
HETATM   19  C12         0      17.681  48.318 -26.783  1.00  0.00     0.028 C 
BRANCH  17  20
HETATM   20  O9          0      14.708  48.278 -28.826  1.00  0.00    -0.357 OA
HETATM   21  H9          0      14.711  48.843 -29.590  1.00  0.00     0.218 HD
ENDBRANCH  17  20
BRANCH  18  22
HETATM   22  O11         0      17.089  49.767 -28.643  1.00  0.00    -0.357 OA
HETATM   23  H11         0      17.199  50.555 -28.123  1.00  0.00     0.218 HD
ENDBRANCH  18  22
ENDBRANCH   4  14
BRANCH   8  24
HETATM   24  O17         0      13.987  45.209 -20.432  1.00  0.00    -0.359 OA
HETATM   25  H17         0      13.325  45.168 -21.112  1.00  0.00     0.218 HD
ENDBRANCH   8  24
TORSDOF 5
ENDMDL
MODEL 4
REMARK VINA RESULT:      -0.0      9.927     12.884
REMARK  5 active torsions:
REMARK  status: ('A' for Active; 'I' for Inactive)
REMARK    1  A    between atoms: C4_4  and  C5_5 
REMARK    2  A    between atoms: C8_8  and  O9_9 
REMARK    3  A    between atoms: C10_11  and  O11_12 
REMARK    4  A    between atoms: C16_18  and  O17_19 
REMARK    5  A    between atoms: C19_22  and  O20_23 
ROOT
HETATM    1  O1          0      10.862  39.465 -28.394  1.00  0.00    -0.286 OA
HETATM    2  C2          0      10.207  39.891 -29.385  1.00  0.00     0.201 C 
HETATM    3  C3          0      10.268  39.299 -30.635  1.00  0.00     0.067 C 
HETATM    4  C4          0       9.616  39.849 -31.733  1.00  0.00     0.103 C 
HETATM    5  O13         0       8.907  40.951 -31.565  1.00  0.00    -0.307 OA
HETATM    6  C14         0       8.846  41.573 -30.408  1.00  0.00     0.107 C 
HETATM    7  C15         0       8.456  42.901 -30.311  1.00  0.00     0.049 C 
HETATM    8  C16         0       8.636  43.622 -29.137  1.00  0.00     0.093 C 
HETATM    9  C18         0       8.704  42.854 -27.981  1.00  0.00     0.048 C 
HETATM   10  C19         0       9.045  41.510 -28.046  1.00  0.00     0.096 C 
HETATM   11  C21         0       9.300  40.932 -29.260  1.00  0.00     0.084 C 
ENDROOT
BRANCH  10  12
HETATM   12  O20         0       9.530  40.875 -26.907  1.00  0.00    -0.359 OA
HETATM   13  H20         0       9.724  39.948 -26.962  1.00  0.00     0.218 HD
ENDBRANCH  10  12
BRANCH   4  14
HETATM   14  C5          0      10.178  39.568 -33.056  1.00  0.00     0.025 C 
HETATM   15  C6          0      10.013  40.419 -34.139  1.00  0.00     0.004 C 
HETATM   16  C7          0      11.092  40.580 -35.003  1.00  0.00     0.026 C 
HETATM   17  C8          0      12.250  39.820 -34.873  1.00  0.00     0.112 C 
HETATM   18  C10         0      12.080  38.613 -34.207  1.00  0.00     0.112 C 
HETATM   19  C12         0      11.045  38.507 -33.286  1.00  0.00     0.028 C 
BRANCH  17  20
HETATM   20  O9          0      13.485  40.350 -35.200  1.00  0.00    -0.357 OA
HETATM   21  H9          0      14.239  39.823 -35.438  1.00  0.00     0.218 HD
ENDBRANCH  17  20
BRANCH  18  22
HETATM   22  O11         0      13.154  37.735 -34.215  1.00  0.00    -0.357 OA
HETATM   23  H11         0      13.090  36.972 -33.652  1.00  0.00     0.218 HD
ENDBRANCH  18  22
ENDBRANCH   4  14
BRANCH   8  24
HETATM   24  O17         0       9.051  44.958 -29.159  1.00  0.00    -0.359 OA
HETATM   25  H17         0       8.721  45.594 -28.535  1.00  0.00     0.218 HD
ENDBRANCH   8  24
TORSDOF 5
ENDMDL
MODEL 5
REMARK VINA RESULT:      -0.0     11.853     14.499
REMARK  5 active torsions:
REMARK  status: ('A' for Active; 'I' for Inactive)
REMARK    1  A    between atoms: C4_4  and  C5_5 
REMARK    2  A    between atoms: C8_8  and  O9_9 
REMARK    3  A    between atoms: C10_11  and  O11_12 
REMARK    4  A    between atoms: C16_18  and  O17_19 
REMARK    5  A    between atoms: C19_22  and  O20_23 
ROOT
HETATM    1  O1          0      12.167  39.302 -31.957  1.00  0.00    -0.286 OA
HETATM    2  C2          0      11.934  39.536 -33.174  1.00  0.00     0.201 C 
HETATM    3  C3          0      12.432  38.749 -34.199  1.00  0.00     0.067 C 
HETATM    4  C4          0      12.246  39.088 -35.534  1.00  0.00     0.103 C 
HETATM    5  O13         0      11.558  40.179 -35.822  1.00  0.00    -0.307 OA
HETATM    6  C14         0      11.095  40.980 -34.889  1.00  0.00     0.107 C 
HETATM    7  C15         0      10.738  42.293 -35.163  1.00  0.00     0.049 C 
HETATM    8  C16         0      10.496  43.203 -34.142  1.00  0.00     0.093 C 
HETATM    9  C18         0      10.111  42.639 -32.931  1.00  0.00     0.048 C 
HETATM   10  C19         0      10.411  41.315 -32.643  1.00  0.00     0.096 C 
HETATM   11  C21         0      11.077  40.553 -33.565  1.00  0.00     0.084 C 
ENDROOT
BRANCH  10  12
HETATM   12  O20         0      10.424  40.893 -31.317  1.00  0.00    -0.359 OA
HETATM   13  H20         0       9.888  41.368 -30.694  1.00  0.00     0.218 HD
ENDBRANCH  10  12
BRANCH   4  14
HETATM   14  C5          0      13.246  38.612 -36.492  1.00  0.00     0.025 C 
HETATM   15  C6          0      13.516  39.266 -37.685  1.00  0.00     0.004 C 
HETATM   16  C7          0      14.841  39.318 -38.106  1.00  0.00     0.026 C 
HETATM   17  C8          0      15.847  38.629 -37.436  1.00  0.00     0.112 C 
HETATM   18  C10         0      15.408  37.544 -36.690  1.00  0.00     0.112 C 
HETATM   19  C12         0      14.104  37.557 -36.209  1.00  0.00     0.028 C 
BRANCH  17  20
HETATM   20  O9          0      17.132  39.138 -37.370  1.00  0.00    -0.357 OA
HETATM   21  H9          0      17.860  38.801 -37.879  1.00  0.00     0.218 HD
ENDBRANCH  17  20
BRANCH  18  22
HETATM   22  O11         0      16.383  36.712 -36.158  1.00  0.00    -0.357 OA
HETATM   23  H11         0      16.082  35.950 -35.676  1.00  0.00     0.218 HD
ENDBRANCH  18  22
ENDBRANCH   4  14
BRANCH   8  24
HETATM   24  O17         0      10.930  44.531 -34.230  1.00  0.00    -0.359 OA
HETATM   25  H17         0      10.342  45.233 -34.482  1.00  0.00     0.218 HD
ENDBRANCH   8  24
TORSDOF 5
ENDMDL
MODEL 6
REMARK VINA RESULT:      -0.0      6.579     11.340
REMARK  5 active torsions:
REMARK  status: ('A' for Active; 'I' for Inactive)
REMARK    1  A    between atoms: C4_4  and  C5_5 
REMARK    2  A    between atoms: C8_8  and  O9_9 
REMARK    3  A    between atoms: C10_11  and  O11_12 
REMARK    4  A    between atoms: C16_18  and  O17_19 
REMARK    5  A    between atoms: C19_22  and  O20_23 
ROOT
HETATM    1  O1          0      11.559  39.953 -30.238  1.00  0.00    -0.286 OA
HETATM    2  C2          0      12.787  40.133 -30.462  1.00  0.00     0.201 C 
HETATM    3  C3          0      13.520  39.327 -31.317  1.00  0.00     0.067 C 
HETATM    4  C4          0      14.893  39.484 -31.468  1.00  0.00     0.103 C 
HETATM    5  O13         0      15.501  40.440 -30.788  1.00  0.00    -0.307 OA
HETATM    6  C14         0      14.860  41.208 -29.935  1.00  0.00     0.107 C 
HETATM    7  C15         0      15.526  41.919 -28.947  1.00  0.00     0.049 C 
HETATM    8  C16         0      14.836  42.518 -27.900  1.00  0.00     0.093 C 
HETATM    9  C18         0      13.508  42.824 -28.171  1.00  0.00     0.048 C 
HETATM   10  C19         0      12.825  42.164 -29.183  1.00  0.00     0.096 C 
HETATM   11  C21         0      13.469  41.218 -29.932  1.00  0.00     0.084 C 
ENDROOT
BRANCH  10  12
HETATM   12  O20         0      11.433  42.146 -29.165  1.00  0.00    -0.359 OA
HETATM   13  H20         0      10.983  42.903 -28.810  1.00  0.00     0.218 HD
ENDBRANCH  10  12
BRANCH   4  14
HETATM   14  C5          0      15.662  38.302 -31.864  1.00  0.00     0.025 C 
HETATM   15  C6          0      17.001  38.134 -31.543  1.00  0.00     0.004 C 
HETATM   16  C7          0      17.427  36.855 -31.202  1.00  0.00     0.026 C 
HETATM   17  C8          0      16.583  35.754 -31.306  1.00  0.00     0.112 C 
HETATM   18  C10         0      15.534  35.910 -32.202  1.00  0.00     0.112 C 
HETATM   19  C12         0      15.072  37.195 -32.460  1.00  0.00     0.028 C 
BRANCH  17  20
HETATM   20  O9          0      16.687  34.695 -30.422  1.00  0.00    -0.357 OA
HETATM   21  H9          0      16.876  33.802 -30.687  1.00  0.00     0.218 HD
ENDBRANCH  17  20
BRANCH  18  22
HETATM   22  O11         0      14.776  34.783 -32.485  1.00  0.00    -0.357 OA
HETATM   23  H11         0      15.137  33.944 -32.220  1.00  0.00     0.218 HD
ENDBRANCH  18  22
ENDBRANCH   4  14
BRANCH   8  24
HETATM   24  O17         0      15.336  42.500 -26.593  1.00  0.00    -0.359 OA
HETATM   25  H17         0      16.063  41.942 -26.345  1.00  0.00     0.218 HD
ENDBRANCH   8  24
TORSDOF 5
ENDMDL
MODEL 7
REMARK VINA RESULT:      -0.0     10.437     13.057
REMARK  5 active torsions:
REMARK  status: ('A' for Active; 'I' for Inactive)
REMARK    1  A    between atoms: C4_4  and  C5_5 
REMARK    2  A    between atoms: C8_8  and  O9_9 
REMARK    3  A    between atoms: C10_11  and  O11_12 
REMARK    4  A    between atoms: C16_18  and  O17_19 
REMARK    5  A    between atoms: C19_22  and  O20_23 
ROOT
HETATM    1  O1          0      10.315  43.022 -38.069  1.00  0.00    -0.286 OA
HETATM    2  C2          0      10.152  42.673 -36.868  1.00  0.00     0.201 C 
HETATM    3  C3          0       9.441  43.434 -35.955  1.00  0.00     0.067 C 
HETATM    4  C4          0       9.363  43.077 -34.614  1.00  0.00     0.103 C 
HETATM    5  O13         0       9.969  41.973 -34.214  1.00  0.00    -0.307 OA
HETATM    6  C14         0      10.688  41.235 -35.031  1.00  0.00     0.107 C 
HETATM    7  C15         0      11.631  40.332 -34.562  1.00  0.00     0.049 C 
HETATM    8  C16         0      12.558  39.748 -35.417  1.00  0.00     0.093 C 
HETATM    9  C18         0      12.170  39.686 -36.750  1.00  0.00     0.048 C 
HETATM   10  C19         0      11.195  40.543 -37.241  1.00  0.00     0.096 C 
HETATM   11  C21         0      10.600  41.446 -36.403  1.00  0.00     0.084 C 
ENDROOT
BRANCH  10  12
HETATM   12  O20         0      11.125  40.780 -38.611  1.00  0.00    -0.359 OA
HETATM   13  H20         0      10.571  41.490 -38.912  1.00  0.00     0.218 HD
ENDBRANCH  10  12
BRANCH   4  14
HETATM   14  C5          0       9.151  44.155 -33.646  1.00  0.00     0.025 C 
HETATM   15  C6          0       9.575  44.076 -32.327  1.00  0.00     0.004 C 
HETATM   16  C7          0      10.084  45.231 -31.742  1.00  0.00     0.026 C 
HETATM   17  C8          0      10.049  46.457 -32.399  1.00  0.00     0.112 C 
HETATM   18  C10         0       9.076  46.559 -33.384  1.00  0.00     0.112 C 
HETATM   19  C12         0       8.646  45.396 -34.012  1.00  0.00     0.028 C 
BRANCH  17  20
HETATM   20  O9          0      11.051  47.391 -32.209  1.00  0.00    -0.357 OA
HETATM   21  H9          0      11.959  47.165 -32.044  1.00  0.00     0.218 HD
ENDBRANCH  17  20
BRANCH  18  22
HETATM   22  O11         0       8.872  47.815 -33.937  1.00  0.00    -0.357 OA
HETATM   23  H11         0       7.982  48.150 -33.929  1.00  0.00     0.218 HD
ENDBRANCH  18  22
ENDBRANCH   4  14
BRANCH   8  24
HETATM   24  O17         0      13.888  39.555 -35.028  1.00  0.00    -0.359 OA
HETATM   25  H17         0      14.379  40.232 -34.577  1.00  0.00     0.218 HD
ENDBRANCH   8  24
TORSDOF 5
ENDMDL
MODEL 8
REMARK VINA RESULT:      -0.0     12.405     14.683
REMARK  5 active torsions:
REMARK  status: ('A' for Active; 'I' for Inactive)
REMARK    1  A    between atoms: C4_4  and  C5_5 
REMARK    2  A    between atoms: C8_8  and  O9_9 
REMARK    3  A    between atoms: C10_11  and  O11_12 
REMARK    4  A    between atoms: C16_18  and  O17_19 
REMARK    5  A    between atoms: C19_22  and  O20_23 
ROOT
HETATM    1  O1          0       5.712  36.205 -29.536  1.00  0.00    -0.286 OA
HETATM    2  C2          0       5.723  36.176 -28.275  1.00  0.00     0.201 C 
HETATM    3  C3          0       5.090  37.130 -27.497  1.00  0.00     0.067 C 
HETATM    4  C4          0       5.203  37.133 -26.111  1.00  0.00     0.103 C 
HETATM    5  O13         0       5.919  36.186 -25.532  1.00  0.00    -0.307 OA
HETATM    6  C14         0       6.572  35.279 -26.225  1.00  0.00     0.107 C 
HETATM    7  C15         0       7.618  34.552 -25.676  1.00  0.00     0.049 C 
HETATM    8  C16         0       8.462  33.788 -26.473  1.00  0.00     0.093 C 
HETATM    9  C18         0       7.913  33.372 -27.680  1.00  0.00     0.048 C 
HETATM   10  C19         0       6.835  34.049 -28.235  1.00  0.00     0.096 C 
HETATM   11  C21         0       6.298  35.123 -27.580  1.00  0.00     0.084 C 
ENDROOT
BRANCH  10  12
HETATM   12  O20         0       6.578  33.920 -29.596  1.00  0.00    -0.359 OA
HETATM   13  H20         0       6.745  33.078 -30.003  1.00  0.00     0.218 HD
ENDBRANCH  10  12
BRANCH   4  14
HETATM   14  C5          0       5.052  38.419 -25.430  1.00  0.00     0.025 C 
HETATM   15  C6          0       5.643  38.695 -24.205  1.00  0.00     0.004 C 
HETATM   16  C7          0       6.152  39.975 -24.009  1.00  0.00     0.026 C 
HETATM   17  C8          0       5.962  40.987 -24.944  1.00  0.00     0.112 C 
HETATM   18  C10         0       4.868  40.806 -25.780  1.00  0.00     0.112 C 
HETATM   19  C12         0       4.433  39.510 -26.026  1.00  0.00     0.028 C 
BRANCH  17  20
HETATM   20  O9          0       6.923  41.963 -25.137  1.00  0.00    -0.357 OA
HETATM   21  H9          0       6.733  42.894 -25.166  1.00  0.00     0.218 HD
ENDBRANCH  17  20
BRANCH  18  22
HETATM   22  O11         0       4.522  41.870 -26.601  1.00  0.00    -0.357 OA
HETATM   23  H11         0       5.110  42.616 -26.609  1.00  0.00     0.218 HD
ENDBRANCH  18  22
ENDBRANCH   4  14
BRANCH   8  24
HETATM   24  O17         0       9.840  33.736 -26.236  1.00  0.00    -0.359 OA
HETATM   25  H17         0      10.442  34.342 -26.652  1.00  0.00     0.218 HD
ENDBRANCH   8  24
TORSDOF 5
ENDMDL
MODEL 9
REMARK VINA RESULT:      -0.0      7.139      9.025
REMARK  5 active torsions:
REMARK  status: ('A' for Active; 'I' for Inactive)
REMARK    1  A    between atoms: C4_4  and  C5_5 
REMARK    2  A    between atoms: C8_8  and  O9_9 
REMARK    3  A    between atoms: C10_11  and  O11_12 
REMARK    4  A    between atoms: C16_18  and  O17_19 
REMARK    5  A    between atoms: C19_22  and  O20_23 
ROOT
HETATM    1  O1          0      14.198  42.431 -26.715  1.00  0.00    -0.286 OA
HETATM    2  C2          0      13.136  41.962 -27.210  1.00  0.00     0.201 C 
HETATM    3  C3          0      11.903  42.574 -27.059  1.00  0.00     0.067 C 
HETATM    4  C4          0      10.735  41.984 -27.526  1.00  0.00     0.103 C 
HETATM    5  O13         0      10.815  40.820 -28.147  1.00  0.00    -0.307 OA
HETATM    6  C14         0      11.955  40.179 -28.285  1.00  0.00     0.107 C 
HETATM    7  C15         0      12.001  38.820 -28.561  1.00  0.00     0.049 C 
HETATM    8  C16         0      13.185  38.102 -28.453  1.00  0.00     0.093 C 
HETATM    9  C18         0      14.344  38.856 -28.590  1.00  0.00     0.048 C 
HETATM   10  C19         0      14.324  40.226 -28.367  1.00  0.00     0.096 C 
HETATM   11  C21         0      13.151  40.842 -28.027  1.00  0.00     0.084 C 
ENDROOT
BRANCH  10  12
HETATM   12  O20         0      15.515  40.886 -28.077  1.00  0.00    -0.359 OA
HETATM   13  H20         0      15.491  41.832 -27.995  1.00  0.00     0.218 HD
ENDBRANCH  10  12
BRANCH   4  14
HETATM   14  C5          0       9.488  42.333 -26.842  1.00  0.00     0.025 C 
HETATM   15  C6          0       8.390  41.486 -26.802  1.00  0.00     0.004 C 
HETATM   16  C7          0       7.658  41.435 -25.620  1.00  0.00     0.026 C 
HETATM   17  C8          0       7.924  42.294 -24.560  1.00  0.00     0.112 C 
HETATM   18  C10         0       8.569  43.471 -24.915  1.00  0.00     0.112 C 
HETATM   19  C12         0       9.364  43.470 -26.055  1.00  0.00     0.028 C 
BRANCH  17  20
HETATM   20  O9          0       7.742  41.882 -23.251  1.00  0.00    -0.357 OA
HETATM   21  H9          0       7.896  40.994 -22.951  1.00  0.00     0.218 HD
ENDBRANCH  17  20
BRANCH  18  22
HETATM   22  O11         0       8.690  44.442 -23.931  1.00  0.00    -0.357 OA
HETATM   23  H11         0       9.570  44.729 -23.716  1.00  0.00     0.218 HD
ENDBRANCH  18  22
ENDBRANCH   4  14
BRANCH   8  24
HETATM   24  O17         0      13.208  36.809 -27.919  1.00  0.00    -0.359 OA
HETATM   25  H17         0      13.064  36.042 -28.461  1.00  0.00     0.218 HD
ENDBRANCH   8  24
TORSDOF 5
ENDMDL
