MODEL 1
REMARK VINA RESULT:      -6.0      0.000      0.000
REMARK  5 active torsions:
REMARK  status: ('A' for Active; 'I' for Inactive)
REMARK    1  A    between atoms: C4_4  and  C5_5 
REMARK    2  A    between atoms: C8_8  and  O9_9 
REMARK    3  A    between atoms: C10_11  and  O11_12 
REMARK    4  A    between atoms: C16_18  and  O17_19 
REMARK    5  A    between atoms: C19_22  and  O20_23 
ROOT
HETATM    1  O1          0      33.014  88.248  18.405  1.00  0.00    -0.286 OA
HETATM    2  C2          0      33.918  88.537  17.574  1.00  0.00     0.201 C 
HETATM    3  C3          0      33.962  89.747  16.903  1.00  0.00     0.067 C 
HETATM    4  C4          0      34.910  90.000  15.918  1.00  0.00     0.103 C 
HETATM    5  O13         0      35.798  89.063  15.636  1.00  0.00    -0.307 OA
HETATM    6  C14         0      35.777  87.883  16.216  1.00  0.00     0.107 C 
HETATM    7  C15         0      36.420  86.785  15.663  1.00  0.00     0.049 C 
HETATM    8  C16         0      36.187  85.499  16.134  1.00  0.00     0.093 C 
HETATM    9  C18         0      35.742  85.427  17.449  1.00  0.00     0.048 C 
HETATM   10  C19         0      35.135  86.523  18.048  1.00  0.00     0.096 C 
HETATM   11  C21         0      34.990  87.687  17.345  1.00  0.00     0.084 C 
ENDROOT
BRANCH  10  12
HETATM   12  O20         0      34.322  86.326  19.160  1.00  0.00    -0.359 OA
HETATM   13  H20         0      33.381  86.376  19.038  1.00  0.00     0.218 HD
ENDBRANCH  10  12
BRANCH   4  14
HETATM   14  C5          0      34.554  90.969  14.880  1.00  0.00     0.025 C 
HETATM   15  C6          0      34.121  92.255  15.168  1.00  0.00     0.004 C 
HETATM   16  C7          0      34.556  93.283  14.338  1.00  0.00     0.026 C 
HETATM   17  C8          0      35.287  93.028  13.182  1.00  0.00     0.112 C 
HETATM   18  C10         0      35.120  91.752  12.661  1.00  0.00     0.112 C 
HETATM   19  C12         0      34.767  90.725  13.529  1.00  0.00     0.028 C 
BRANCH  17  20
HETATM   20  O9          0      36.249  93.919  12.741  1.00  0.00    -0.357 OA
HETATM   21  H9          0      36.383  94.142  11.827  1.00  0.00     0.218 HD
ENDBRANCH  17  20
BRANCH  18  22
HETATM   22  O11         0      35.673  91.506  11.413  1.00  0.00    -0.357 OA
HETATM   23  H11         0      35.289  91.965  10.674  1.00  0.00     0.218 HD
ENDBRANCH  18  22
ENDBRANCH   4  14
BRANCH   8  24
HETATM   24  O17         0      36.083  84.410  15.262  1.00  0.00    -0.359 OA
HETATM   25  H17         0      35.549  83.652  15.470  1.00  0.00     0.218 HD
ENDBRANCH   8  24
TORSDOF 5
ENDMDL
MODEL 2
REMARK VINA RESULT:      -5.8      2.012      3.389
REMARK  5 active torsions:
REMARK  status: ('A' for Active; 'I' for Inactive)
REMARK    1  A    between atoms: C4_4  and  C5_5 
REMARK    2  A    between atoms: C8_8  and  O9_9 
REMARK    3  A    between atoms: C10_11  and  O11_12 
REMARK    4  A    between atoms: C16_18  and  O17_19 
REMARK    5  A    between atoms: C19_22  and  O20_23 
ROOT
HETATM    1  O1          0      38.318  85.617  17.697  1.00  0.00    -0.286 OA
HETATM    2  C2          0      37.256  86.092  17.210  1.00  0.00     0.201 C 
HETATM    3  C3          0      37.249  87.119  16.282  1.00  0.00     0.067 C 
HETATM    4  C4          0      36.063  87.693  15.840  1.00  0.00     0.103 C 
HETATM    5  O13         0      34.918  87.226  16.307  1.00  0.00    -0.307 OA
HETATM    6  C14         0      34.870  86.278  17.217  1.00  0.00     0.107 C 
HETATM    7  C15         0      33.738  86.065  17.991  1.00  0.00     0.049 C 
HETATM    8  C16         0      33.775  85.245  19.112  1.00  0.00     0.093 C 
HETATM    9  C18         0      34.775  84.280  19.102  1.00  0.00     0.048 C 
HETATM   10  C19         0      35.899  84.439  18.303  1.00  0.00     0.096 C 
HETATM   11  C21         0      36.016  85.546  17.507  1.00  0.00     0.084 C 
ENDROOT
BRANCH  10  12
HETATM   12  O20         0      37.058  83.732  18.610  1.00  0.00    -0.359 OA
HETATM   13  H20         0      37.124  83.339  19.473  1.00  0.00     0.218 HD
ENDBRANCH  10  12
BRANCH   4  14
HETATM   14  C5          0      36.122  89.081  15.379  1.00  0.00     0.025 C 
HETATM   15  C6          0      37.259  89.866  15.499  1.00  0.00     0.004 C 
HETATM   16  C7          0      37.558  90.733  14.453  1.00  0.00     0.026 C 
HETATM   17  C8          0      36.686  90.914  13.384  1.00  0.00     0.112 C 
HETATM   18  C10         0      35.361  90.603  13.658  1.00  0.00     0.112 C 
HETATM   19  C12         0      35.094  89.669  14.652  1.00  0.00     0.028 C 
BRANCH  17  20
HETATM   20  O9          0      37.167  91.178  12.114  1.00  0.00    -0.357 OA
HETATM   21  H9          0      36.863  91.897  11.573  1.00  0.00     0.218 HD
ENDBRANCH  17  20
BRANCH  18  22
HETATM   22  O11         0      34.423  90.943  12.693  1.00  0.00    -0.357 OA
HETATM   23  H11         0      34.291  90.323  11.985  1.00  0.00     0.218 HD
ENDBRANCH  18  22
ENDBRANCH   4  14
BRANCH   8  24
HETATM   24  O17         0      33.090  85.582  20.285  1.00  0.00    -0.359 OA
HETATM   25  H17         0      32.160  85.774  20.283  1.00  0.00     0.218 HD
ENDBRANCH   8  24
TORSDOF 5
ENDMDL
MODEL 3
REMARK VINA RESULT:      -5.7      1.920      7.021
REMARK  5 active torsions:
REMARK  status: ('A' for Active; 'I' for Inactive)
REMARK    1  A    between atoms: C4_4  and  C5_5 
REMARK    2  A    between atoms: C8_8  and  O9_9 
REMARK    3  A    between atoms: C10_11  and  O11_12 
REMARK    4  A    between atoms: C16_18  and  O17_19 
REMARK    5  A    between atoms: C19_22  and  O20_23 
ROOT
HETATM    1  O1          0      35.667  89.798  11.711  1.00  0.00    -0.286 OA
HETATM    2  C2          0      35.933  90.081  12.912  1.00  0.00     0.201 C 
HETATM    3  C3          0      36.323  89.129  13.838  1.00  0.00     0.067 C 
HETATM    4  C4          0      36.510  89.450  15.178  1.00  0.00     0.103 C 
HETATM    5  O13         0      36.327  90.701  15.562  1.00  0.00    -0.307 OA
HETATM    6  C14         0      35.921  91.636  14.731  1.00  0.00     0.107 C 
HETATM    7  C15         0      35.352  92.818  15.182  1.00  0.00     0.049 C 
HETATM    8  C16         0      34.697  93.681  14.312  1.00  0.00     0.093 C 
HETATM    9  C18         0      35.094  93.588  12.983  1.00  0.00     0.048 C 
HETATM   10  C19         0      35.708  92.437  12.510  1.00  0.00     0.096 C 
HETATM   11  C21         0      35.941  91.392  13.362  1.00  0.00     0.084 C 
ENDROOT
BRANCH  10  12
HETATM   12  O20         0      35.702  92.175  11.143  1.00  0.00    -0.359 OA
HETATM   13  H20         0      34.888  92.296  10.670  1.00  0.00     0.218 HD
ENDBRANCH  10  12
BRANCH   4  14
HETATM   14  C5          0      36.321  88.378  16.157  1.00  0.00     0.025 C 
HETATM   15  C6          0      35.082  87.810  16.421  1.00  0.00     0.004 C 
HETATM   16  C7          0      35.038  86.439  16.650  1.00  0.00     0.026 C 
HETATM   17  C8          0      36.197  85.677  16.747  1.00  0.00     0.112 C 
HETATM   18  C10         0      37.333  86.393  17.101  1.00  0.00     0.112 C 
HETATM   19  C12         0      37.387  87.745  16.783  1.00  0.00     0.028 C 
BRANCH  17  20
HETATM   20  O9          0      36.221  84.364  16.314  1.00  0.00    -0.357 OA
HETATM   21  H9          0      35.450  83.811  16.260  1.00  0.00     0.218 HD
ENDBRANCH  17  20
BRANCH  18  22
HETATM   22  O11         0      38.473  85.659  17.396  1.00  0.00    -0.357 OA
HETATM   23  H11         0      38.420  85.062  18.133  1.00  0.00     0.218 HD
ENDBRANCH  18  22
ENDBRANCH   4  14
BRANCH   8  24
HETATM   24  O17         0      33.516  94.334  14.683  1.00  0.00    -0.359 OA
HETATM   25  H17         0      33.298  94.491  15.594  1.00  0.00     0.218 HD
ENDBRANCH   8  24
TORSDOF 5
ENDMDL
MODEL 4
REMARK VINA RESULT:      -5.6      1.821      6.458
REMARK  5 active torsions:
REMARK  status: ('A' for Active; 'I' for Inactive)
REMARK    1  A    between atoms: C4_4  and  C5_5 
REMARK    2  A    between atoms: C8_8  and  O9_9 
REMARK    3  A    between atoms: C10_11  and  O11_12 
REMARK    4  A    between atoms: C16_18  and  O17_19 
REMARK    5  A    between atoms: C19_22  and  O20_23 
ROOT
HETATM    1  O1          0      34.037  93.247  16.114  1.00  0.00    -0.286 OA
HETATM    2  C2          0      34.215  92.151  15.515  1.00  0.00     0.201 C 
HETATM    3  C3          0      34.112  90.924  16.149  1.00  0.00     0.067 C 
HETATM    4  C4          0      34.413  89.737  15.492  1.00  0.00     0.103 C 
HETATM    5  O13         0      34.786  89.789  14.225  1.00  0.00    -0.307 OA
HETATM    6  C14         0      34.935  90.929  13.587  1.00  0.00     0.107 C 
HETATM    7  C15         0      35.689  91.024  12.426  1.00  0.00     0.049 C 
HETATM    8  C16         0      36.054  92.258  11.902  1.00  0.00     0.093 C 
HETATM    9  C18         0      35.222  93.314  12.253  1.00  0.00     0.048 C 
HETATM   10  C19         0      34.420  93.234  13.383  1.00  0.00     0.096 C 
HETATM   11  C21         0      34.434  92.100  14.147  1.00  0.00     0.084 C 
ENDROOT
BRANCH  10  12
HETATM   12  O20         0      33.943  94.406  13.963  1.00  0.00    -0.359 OA
HETATM   13  H20         0      33.109  94.745  13.662  1.00  0.00     0.218 HD
ENDBRANCH  10  12
BRANCH   4  14
HETATM   14  C5          0      34.865  88.612  16.314  1.00  0.00     0.025 C 
HETATM   15  C6          0      34.032  87.565  16.679  1.00  0.00     0.004 C 
HETATM   16  C7          0      34.577  86.285  16.701  1.00  0.00     0.026 C 
HETATM   17  C8          0      35.936  86.067  16.499  1.00  0.00     0.112 C 
HETATM   18  C10         0      36.745  87.161  16.775  1.00  0.00     0.112 C 
HETATM   19  C12         0      36.198  88.433  16.662  1.00  0.00     0.028 C 
BRANCH  17  20
HETATM   20  O9          0      36.384  84.918  15.872  1.00  0.00    -0.357 OA
HETATM   21  H9          0      37.268  84.807  15.543  1.00  0.00     0.218 HD
ENDBRANCH  17  20
BRANCH  18  22
HETATM   22  O11         0      38.116  86.944  16.772  1.00  0.00    -0.357 OA
HETATM   23  H11         0      38.655  87.605  16.353  1.00  0.00     0.218 HD
ENDBRANCH  18  22
ENDBRANCH   4  14
BRANCH   8  24
HETATM   24  O17         0      37.325  92.472  11.357  1.00  0.00    -0.359 OA
HETATM   25  H17         0      37.448  92.966  10.556  1.00  0.00     0.218 HD
ENDBRANCH   8  24
TORSDOF 5
ENDMDL
MODEL 5
REMARK VINA RESULT:      -5.4      1.748      6.883
REMARK  5 active torsions:
REMARK  status: ('A' for Active; 'I' for Inactive)
REMARK    1  A    between atoms: C4_4  and  C5_5 
REMARK    2  A    between atoms: C8_8  and  O9_9 
REMARK    3  A    between atoms: C10_11  and  O11_12 
REMARK    4  A    between atoms: C16_18  and  O17_19 
REMARK    5  A    between atoms: C19_22  and  O20_23 
ROOT
HETATM    1  O1          0      36.416  89.318  12.186  1.00  0.00    -0.286 OA
HETATM    2  C2          0      36.231  89.395  13.431  1.00  0.00     0.201 C 
HETATM    3  C3          0      36.137  88.280  14.247  1.00  0.00     0.067 C 
HETATM    4  C4          0      35.830  88.390  15.599  1.00  0.00     0.103 C 
HETATM    5  O13         0      35.646  89.594  16.112  1.00  0.00    -0.307 OA
HETATM    6  C14         0      35.688  90.682  15.375  1.00  0.00     0.107 C 
HETATM    7  C15         0      35.116  91.873  15.798  1.00  0.00     0.049 C 
HETATM    8  C16         0      34.937  92.938  14.923  1.00  0.00     0.093 C 
HETATM    9  C18         0      35.799  92.954  13.833  1.00  0.00     0.048 C 
HETATM   10  C19         0      36.424  91.788  13.411  1.00  0.00     0.096 C 
HETATM   11  C21         0      36.204  90.618  14.085  1.00  0.00     0.084 C 
ENDROOT
BRANCH  10  12
HETATM   12  O20         0      36.913  91.710  12.111  1.00  0.00    -0.359 OA
HETATM   13  H20         0      37.803  91.404  11.988  1.00  0.00     0.218 HD
ENDBRANCH  10  12
BRANCH   4  14
HETATM   14  C5          0      35.171  87.246  16.231  1.00  0.00     0.025 C 
HETATM   15  C6          0      35.866  86.133  16.683  1.00  0.00     0.004 C 
HETATM   16  C7          0      35.440  85.546  17.870  1.00  0.00     0.026 C 
HETATM   17  C8          0      34.283  85.965  18.517  1.00  0.00     0.112 C 
HETATM   18  C10         0      33.359  86.601  17.698  1.00  0.00     0.112 C 
HETATM   19  C12         0      33.822  87.253  16.562  1.00  0.00     0.028 C 
BRANCH  17  20
HETATM   20  O9          0      34.188  85.926  19.896  1.00  0.00    -0.357 OA
HETATM   21  H9          0      34.767  85.416  20.451  1.00  0.00     0.218 HD
ENDBRANCH  17  20
BRANCH  18  22
HETATM   22  O11         0      32.113  86.869  18.247  1.00  0.00    -0.357 OA
HETATM   23  H11         0      31.668  86.148  18.677  1.00  0.00     0.218 HD
ENDBRANCH  18  22
ENDBRANCH   4  14
BRANCH   8  24
HETATM   24  O17         0      33.779  93.722  14.957  1.00  0.00    -0.359 OA
HETATM   25  H17         0      33.357  93.955  15.775  1.00  0.00     0.218 HD
ENDBRANCH   8  24
TORSDOF 5
ENDMDL
MODEL 6
REMARK VINA RESULT:      -5.4      2.441      7.234
REMARK  5 active torsions:
REMARK  status: ('A' for Active; 'I' for Inactive)
REMARK    1  A    between atoms: C4_4  and  C5_5 
REMARK    2  A    between atoms: C8_8  and  O9_9 
REMARK    3  A    between atoms: C10_11  and  O11_12 
REMARK    4  A    between atoms: C16_18  and  O17_19 
REMARK    5  A    between atoms: C19_22  and  O20_23 
ROOT
HETATM    1  O1          0      33.173  88.817  18.732  1.00  0.00    -0.286 OA
HETATM    2  C2          0      33.915  87.983  18.144  1.00  0.00     0.201 C 
HETATM    3  C3          0      34.252  86.759  18.696  1.00  0.00     0.067 C 
HETATM    4  C4          0      35.153  85.903  18.074  1.00  0.00     0.103 C 
HETATM    5  O13         0      35.680  86.267  16.918  1.00  0.00    -0.307 OA
HETATM    6  C14         0      35.423  87.434  16.369  1.00  0.00     0.107 C 
HETATM    7  C15         0      36.250  87.983  15.399  1.00  0.00     0.049 C 
HETATM    8  C16         0      36.122  89.311  15.010  1.00  0.00     0.093 C 
HETATM    9  C18         0      34.864  89.865  15.216  1.00  0.00     0.048 C 
HETATM   10  C19         0      33.993  89.312  16.146  1.00  0.00     0.096 C 
HETATM   11  C21         0      34.370  88.203  16.853  1.00  0.00     0.084 C 
ENDROOT
BRANCH  10  12
HETATM   12  O20         0      32.958  90.090  16.655  1.00  0.00    -0.359 OA
HETATM   13  H20         0      32.234  90.299  16.078  1.00  0.00     0.218 HD
ENDBRANCH  10  12
BRANCH   4  14
HETATM   14  C5          0      35.901  84.980  18.930  1.00  0.00     0.025 C 
HETATM   15  C6          0      35.305  83.915  19.588  1.00  0.00     0.004 C 
HETATM   16  C7          0      36.022  82.725  19.671  1.00  0.00     0.026 C 
HETATM   17  C8          0      37.339  82.636  19.233  1.00  0.00     0.112 C 
HETATM   18  C10         0      38.021  83.845  19.196  1.00  0.00     0.112 C 
HETATM   19  C12         0      37.286  85.012  19.028  1.00  0.00     0.028 C 
BRANCH  17  20
HETATM   20  O9          0      37.826  81.462  18.687  1.00  0.00    -0.357 OA
HETATM   21  H9          0      38.744  81.218  18.694  1.00  0.00     0.218 HD
ENDBRANCH  17  20
BRANCH  18  22
HETATM   22  O11         0      39.385  83.789  18.950  1.00  0.00    -0.357 OA
HETATM   23  H11         0      39.952  83.655  19.701  1.00  0.00     0.218 HD
ENDBRANCH  18  22
ENDBRANCH   4  14
BRANCH   8  24
HETATM   24  O17         0      37.244  90.108  14.757  1.00  0.00    -0.359 OA
HETATM   25  H17         0      37.649  90.141  13.899  1.00  0.00     0.218 HD
ENDBRANCH   8  24
TORSDOF 5
ENDMDL
MODEL 7
REMARK VINA RESULT:      -5.3      1.805      6.531
REMARK  5 active torsions:
REMARK  status: ('A' for Active; 'I' for Inactive)
REMARK    1  A    between atoms: C4_4  and  C5_5 
REMARK    2  A    between atoms: C8_8  and  O9_9 
REMARK    3  A    between atoms: C10_11  and  O11_12 
REMARK    4  A    between atoms: C16_18  and  O17_19 
REMARK    5  A    between atoms: C19_22  and  O20_23 
ROOT
HETATM    1  O1          0      34.406  92.658  16.550  1.00  0.00    -0.286 OA
HETATM    2  C2          0      34.449  91.582  15.893  1.00  0.00     0.201 C 
HETATM    3  C3          0      34.182  90.346  16.457  1.00  0.00     0.067 C 
HETATM    4  C4          0      34.336  89.168  15.736  1.00  0.00     0.103 C 
HETATM    5  O13         0      34.728  89.241  14.476  1.00  0.00    -0.307 OA
HETATM    6  C14         0      35.030  90.385  13.904  1.00  0.00     0.107 C 
HETATM    7  C15         0      35.804  90.445  12.754  1.00  0.00     0.049 C 
HETATM    8  C16         0      36.331  91.648  12.300  1.00  0.00     0.093 C 
HETATM    9  C18         0      35.638  92.782  12.706  1.00  0.00     0.048 C 
HETATM   10  C19         0      34.817  92.745  13.825  1.00  0.00     0.096 C 
HETATM   11  C21         0      34.677  91.578  14.525  1.00  0.00     0.084 C 
ENDROOT
BRANCH  10  12
HETATM   12  O20         0      34.488  93.935  14.467  1.00  0.00    -0.359 OA
HETATM   13  H20         0      34.000  93.882  15.280  1.00  0.00     0.218 HD
ENDBRANCH  10  12
BRANCH   4  14
HETATM   14  C5          0      34.630  87.951  16.496  1.00  0.00     0.025 C 
HETATM   15  C6          0      35.868  87.704  17.071  1.00  0.00     0.004 C 
HETATM   16  C7          0      35.889  87.088  18.318  1.00  0.00     0.026 C 
HETATM   17  C8          0      34.727  86.611  18.915  1.00  0.00     0.112 C 
HETATM   18  C10         0      33.693  86.332  18.030  1.00  0.00     0.112 C 
HETATM   19  C12         0      33.649  87.025  16.827  1.00  0.00     0.028 C 
BRANCH  17  20
HETATM   20  O9          0      34.577  86.629  20.290  1.00  0.00    -0.357 OA
HETATM   21  H9          0      34.218  87.364  20.773  1.00  0.00     0.218 HD
ENDBRANCH  17  20
BRANCH  18  22
HETATM   22  O11         0      32.583  85.678  18.547  1.00  0.00    -0.357 OA
HETATM   23  H11         0      31.731  85.991  18.267  1.00  0.00     0.218 HD
ENDBRANCH  18  22
ENDBRANCH   4  14
BRANCH   8  24
HETATM   24  O17         0      37.626  91.726  11.776  1.00  0.00    -0.359 OA
HETATM   25  H17         0      38.354  92.053  12.290  1.00  0.00     0.218 HD
ENDBRANCH   8  24
TORSDOF 5
ENDMDL
MODEL 8
REMARK VINA RESULT:      -5.2      1.876      3.060
REMARK  5 active torsions:
REMARK  status: ('A' for Active; 'I' for Inactive)
REMARK    1  A    between atoms: C4_4  and  C5_5 
REMARK    2  A    between atoms: C8_8  and  O9_9 
REMARK    3  A    between atoms: C10_11  and  O11_12 
REMARK    4  A    between atoms: C16_18  and  O17_19 
REMARK    5  A    between atoms: C19_22  and  O20_23 
ROOT
HETATM    1  O1          0      37.571  87.825  18.755  1.00  0.00    -0.286 OA
HETATM    2  C2          0      36.859  87.731  17.718  1.00  0.00     0.201 C 
HETATM    3  C3          0      37.200  88.329  16.516  1.00  0.00     0.067 C 
HETATM    4  C4          0      36.348  88.296  15.418  1.00  0.00     0.103 C 
HETATM    5  O13         0      35.196  87.659  15.528  1.00  0.00    -0.307 OA
HETATM    6  C14         0      34.807  87.107  16.656  1.00  0.00     0.107 C 
HETATM    7  C15         0      33.476  86.799  16.899  1.00  0.00     0.049 C 
HETATM    8  C16         0      33.034  86.458  18.172  1.00  0.00     0.093 C 
HETATM    9  C18         0      34.011  85.934  19.011  1.00  0.00     0.048 C 
HETATM   10  C19         0      35.355  86.183  18.770  1.00  0.00     0.096 C 
HETATM   11  C21         0      35.723  86.936  17.688  1.00  0.00     0.084 C 
ENDROOT
BRANCH  10  12
HETATM   12  O20         0      36.269  86.044  19.809  1.00  0.00    -0.359 OA
HETATM   13  H20         0      36.520  86.824  20.289  1.00  0.00     0.218 HD
ENDBRANCH  10  12
BRANCH   4  14
HETATM   14  C5          0      36.460  89.389  14.451  1.00  0.00     0.025 C 
HETATM   15  C6          0      36.358  89.195  13.081  1.00  0.00     0.004 C 
HETATM   16  C7          0      35.692  90.165  12.340  1.00  0.00     0.026 C 
HETATM   17  C8          0      35.258  91.354  12.917  1.00  0.00     0.112 C 
HETATM   18  C10         0      35.940  91.721  14.070  1.00  0.00     0.112 C 
HETATM   19  C12         0      36.524  90.722  14.838  1.00  0.00     0.028 C 
BRANCH  17  20
HETATM   20  O9          0      34.104  91.977  12.475  1.00  0.00    -0.357 OA
HETATM   21  H9          0      33.759  91.886  11.594  1.00  0.00     0.218 HD
ENDBRANCH  17  20
BRANCH  18  22
HETATM   22  O11         0      35.678  92.986  14.578  1.00  0.00    -0.357 OA
HETATM   23  H11         0      35.612  93.696  13.951  1.00  0.00     0.218 HD
ENDBRANCH  18  22
ENDBRANCH   4  14
BRANCH   8  24
HETATM   24  O17         0      31.809  86.917  18.666  1.00  0.00    -0.359 OA
HETATM   25  H17         0      31.705  87.800  19.003  1.00  0.00     0.218 HD
ENDBRANCH   8  24
TORSDOF 5
ENDMDL
MODEL 9
REMARK VINA RESULT:      -5.1      1.626      2.217
REMARK  5 active torsions:
REMARK  status: ('A' for Active; 'I' for Inactive)
REMARK    1  A    between atoms: C4_4  and  C5_5 
REMARK    2  A    between atoms: C8_8  and  O9_9 
REMARK    3  A    between atoms: C10_11  and  O11_12 
REMARK    4  A    between atoms: C16_18  and  O17_19 
REMARK    5  A    between atoms: C19_22  and  O20_23 
ROOT
HETATM    1  O1          0      32.869  87.055  19.447  1.00  0.00    -0.286 OA
HETATM    2  C2          0      33.628  87.685  18.661  1.00  0.00     0.201 C 
HETATM    3  C3          0      33.429  89.015  18.330  1.00  0.00     0.067 C 
HETATM    4  C4          0      34.218  89.656  17.382  1.00  0.00     0.103 C 
HETATM    5  O13         0      35.193  88.977  16.804  1.00  0.00    -0.307 OA
HETATM    6  C14         0      35.402  87.703  17.054  1.00  0.00     0.107 C 
HETATM    7  C15         0      36.130  86.898  16.189  1.00  0.00     0.049 C 
HETATM    8  C16         0      36.133  85.515  16.322  1.00  0.00     0.093 C 
HETATM    9  C18         0      35.847  85.047  17.599  1.00  0.00     0.048 C 
HETATM   10  C19         0      35.161  85.844  18.505  1.00  0.00     0.096 C 
HETATM   11  C21         0      34.778  87.107  18.144  1.00  0.00     0.084 C 
ENDROOT
BRANCH  10  12
HETATM   12  O20         0      34.509  85.246  19.579  1.00  0.00    -0.359 OA
HETATM   13  H20         0      35.032  84.750  20.197  1.00  0.00     0.218 HD
ENDBRANCH  10  12
BRANCH   4  14
HETATM   14  C5          0      33.619  90.781  16.662  1.00  0.00     0.025 C 
HETATM   15  C6          0      32.464  91.419  17.090  1.00  0.00     0.004 C 
HETATM   16  C7          0      32.396  92.800  16.939  1.00  0.00     0.026 C 
HETATM   17  C8          0      33.384  93.509  16.263  1.00  0.00     0.112 C 
HETATM   18  C10         0      34.121  92.757  15.359  1.00  0.00     0.112 C 
HETATM   19  C12         0      34.244  91.390  15.581  1.00  0.00     0.028 C 
BRANCH  17  20
HETATM   20  O9          0      33.715  94.798  16.641  1.00  0.00    -0.357 OA
HETATM   21  H9          0      33.663  95.548  16.060  1.00  0.00     0.218 HD
ENDBRANCH  17  20
BRANCH  18  22
HETATM   22  O11         0      34.988  93.449  14.524  1.00  0.00    -0.357 OA
HETATM   23  H11         0      34.925  93.268  13.594  1.00  0.00     0.218 HD
ENDBRANCH  18  22
ENDBRANCH   4  14
BRANCH   8  24
HETATM   24  O17         0      36.089  84.675  15.203  1.00  0.00    -0.359 OA
HETATM   25  H17         0      36.219  85.008  14.324  1.00  0.00     0.218 HD
ENDBRANCH   8  24
TORSDOF 5
ENDMDL
