MODEL 1
REMARK VINA RESULT:      -0.0      0.000      0.000
REMARK  5 active torsions:
REMARK  status: ('A' for Active; 'I' for Inactive)
REMARK    1  A    between atoms: C4_4  and  C5_5 
REMARK    2  A    between atoms: C8_8  and  O9_9 
REMARK    3  A    between atoms: C10_11  and  O11_12 
REMARK    4  A    between atoms: C16_18  and  O17_19 
REMARK    5  A    between atoms: C19_22  and  O20_23 
ROOT
HETATM    1  O1          0      11.184   4.069 -25.502  1.00  0.00    -0.286 OA
HETATM    2  C2          0      12.086   3.430 -26.111  1.00  0.00     0.201 C 
HETATM    3  C3          0      13.394   3.875 -26.196  1.00  0.00     0.067 C 
HETATM    4  C4          0      14.344   3.204 -26.958  1.00  0.00     0.103 C 
HETATM    5  O13         0      13.984   2.104 -27.596  1.00  0.00    -0.307 OA
HETATM    6  C14         0      12.747   1.659 -27.579  1.00  0.00     0.107 C 
HETATM    7  C15         0      12.276   0.772 -28.536  1.00  0.00     0.049 C 
HETATM    8  C16         0      10.918   0.505 -28.667  1.00  0.00     0.093 C 
HETATM    9  C18         0      10.164   0.722 -27.520  1.00  0.00     0.048 C 
HETATM   10  C19         0      10.627   1.568 -26.521  1.00  0.00     0.096 C 
HETATM   11  C21         0      11.843   2.179 -26.659  1.00  0.00     0.084 C 
ENDROOT
BRANCH  10  12
HETATM   12  O20         0       9.720   2.114 -25.619  1.00  0.00    -0.359 OA
HETATM   13  H20         0       9.733   3.055 -25.490  1.00  0.00     0.218 HD
ENDBRANCH  10  12
BRANCH   4  14
HETATM   14  C5          0      15.458   3.993 -27.487  1.00  0.00     0.025 C 
HETATM   15  C6          0      16.144   3.646 -28.641  1.00  0.00     0.004 C 
HETATM   16  C7          0      16.542   4.675 -29.488  1.00  0.00     0.026 C 
HETATM   17  C8          0      16.384   6.012 -29.137  1.00  0.00     0.112 C 
HETATM   18  C10         0      16.294   6.246 -27.772  1.00  0.00     0.112 C 
HETATM   19  C12         0      15.812   5.228 -26.957  1.00  0.00     0.028 C 
BRANCH  17  20
HETATM   20  O9          0      16.126   6.972 -30.100  1.00  0.00    -0.357 OA
HETATM   21  H9          0      16.602   7.039 -30.919  1.00  0.00     0.218 HD
ENDBRANCH  17  20
BRANCH  18  22
HETATM   22  O11         0      16.325   7.570 -27.358  1.00  0.00    -0.357 OA
HETATM   23  H11         0      17.063   8.094 -27.648  1.00  0.00     0.218 HD
ENDBRANCH  18  22
ENDBRANCH   4  14
BRANCH   8  24
HETATM   24  O17         0      10.321   0.363 -29.925  1.00  0.00    -0.359 OA
HETATM   25  H17         0      10.016   1.114 -30.420  1.00  0.00     0.218 HD
ENDBRANCH   8  24
TORSDOF 5
ENDMDL
MODEL 2
REMARK VINA RESULT:       0.0      4.494      6.201
REMARK  5 active torsions:
REMARK  status: ('A' for Active; 'I' for Inactive)
REMARK    1  A    between atoms: C4_4  and  C5_5 
REMARK    2  A    between atoms: C8_8  and  O9_9 
REMARK    3  A    between atoms: C10_11  and  O11_12 
REMARK    4  A    between atoms: C16_18  and  O17_19 
REMARK    5  A    between atoms: C19_22  and  O20_23 
ROOT
HETATM    1  O1          0      11.610  -2.311 -27.106  1.00  0.00    -0.286 OA
HETATM    2  C2          0      11.421  -1.439 -26.214  1.00  0.00     0.201 C 
HETATM    3  C3          0      12.320  -0.416 -25.962  1.00  0.00     0.067 C 
HETATM    4  C4          0      12.138   0.470 -24.907  1.00  0.00     0.103 C 
HETATM    5  O13         0      11.068   0.337 -24.143  1.00  0.00    -0.307 OA
HETATM    6  C14         0      10.204  -0.639 -24.315  1.00  0.00     0.107 C 
HETATM    7  C15         0       9.327  -1.024 -23.311  1.00  0.00     0.049 C 
HETATM    8  C16         0       8.601  -2.206 -23.401  1.00  0.00     0.093 C 
HETATM    9  C18         0       8.389  -2.667 -24.695  1.00  0.00     0.048 C 
HETATM   10  C19         0       9.219  -2.265 -25.732  1.00  0.00     0.096 C 
HETATM   11  C21         0      10.244  -1.393 -25.482  1.00  0.00     0.084 C 
ENDROOT
BRANCH  10  12
HETATM   12  O20         0       9.285  -3.035 -26.889  1.00  0.00    -0.359 OA
HETATM   13  H20         0       9.742  -3.866 -26.844  1.00  0.00     0.218 HD
ENDBRANCH  10  12
BRANCH   4  14
HETATM   14  C5          0      13.337   1.090 -24.339  1.00  0.00     0.025 C 
HETATM   15  C6          0      13.405   1.530 -23.025  1.00  0.00     0.004 C 
HETATM   16  C7          0      14.602   1.338 -22.342  1.00  0.00     0.026 C 
HETATM   17  C8          0      15.736   0.848 -22.981  1.00  0.00     0.112 C 
HETATM   18  C10         0      15.756   1.043 -24.356  1.00  0.00     0.112 C 
HETATM   19  C12         0      14.543   1.146 -25.026  1.00  0.00     0.028 C 
BRANCH  17  20
HETATM   20  O9          0      16.644   0.053 -22.305  1.00  0.00    -0.357 OA
HETATM   21  H9          0      16.420  -0.777 -21.901  1.00  0.00     0.218 HD
ENDBRANCH  17  20
BRANCH  18  22
HETATM   22  O11         0      16.940   0.746 -25.016  1.00  0.00    -0.357 OA
HETATM   23  H11         0      16.916   0.032 -25.642  1.00  0.00     0.218 HD
ENDBRANCH  18  22
ENDBRANCH   4  14
BRANCH   8  24
HETATM   24  O17         0       8.402  -3.027 -22.285  1.00  0.00    -0.359 OA
HETATM   25  H17         0       9.098  -3.199 -21.663  1.00  0.00     0.218 HD
ENDBRANCH   8  24
TORSDOF 5
ENDMDL
MODEL 3
REMARK VINA RESULT:       0.0     13.243     14.700
REMARK  5 active torsions:
REMARK  status: ('A' for Active; 'I' for Inactive)
REMARK    1  A    between atoms: C4_4  and  C5_5 
REMARK    2  A    between atoms: C8_8  and  O9_9 
REMARK    3  A    between atoms: C10_11  and  O11_12 
REMARK    4  A    between atoms: C16_18  and  O17_19 
REMARK    5  A    between atoms: C19_22  and  O20_23 
ROOT
HETATM    1  O1          0      15.345  -5.075 -19.436  1.00  0.00    -0.286 OA
HETATM    2  C2          0      16.554  -5.372 -19.238  1.00  0.00     0.201 C 
HETATM    3  C3          0      16.979  -6.092 -18.134  1.00  0.00     0.067 C 
HETATM    4  C4          0      18.328  -6.318 -17.887  1.00  0.00     0.103 C 
HETATM    5  O13         0      19.218  -5.848 -18.743  1.00  0.00    -0.307 OA
HETATM    6  C14         0      18.871  -5.127 -19.787  1.00  0.00     0.107 C 
HETATM    7  C15         0      19.779  -4.311 -20.447  1.00  0.00     0.049 C 
HETATM    8  C16         0      19.359  -3.368 -21.376  1.00  0.00     0.093 C 
HETATM    9  C18         0      18.137  -3.641 -21.979  1.00  0.00     0.048 C 
HETATM   10  C19         0      17.224  -4.490 -21.369  1.00  0.00     0.096 C 
HETATM   11  C21         0      17.536  -5.076 -20.172  1.00  0.00     0.084 C 
ENDROOT
BRANCH  10  12
HETATM   12  O20         0      15.882  -4.419 -21.730  1.00  0.00    -0.359 OA
HETATM   13  H20         0      15.567  -5.018 -22.396  1.00  0.00     0.218 HD
ENDBRANCH  10  12
BRANCH   4  14
HETATM   14  C5          0      18.729  -6.519 -16.493  1.00  0.00     0.025 C 
HETATM   15  C6          0      20.001  -6.221 -16.026  1.00  0.00     0.004 C 
HETATM   16  C7          0      20.108  -5.667 -14.755  1.00  0.00     0.026 C 
HETATM   17  C8          0      19.003  -5.537 -13.921  1.00  0.00     0.112 C 
HETATM   18  C10         0      17.958  -6.407 -14.202  1.00  0.00     0.112 C 
HETATM   19  C12         0      17.825  -6.879 -15.503  1.00  0.00     0.028 C 
BRANCH  17  20
HETATM   20  O9          0      18.903  -4.477 -13.036  1.00  0.00    -0.357 OA
HETATM   21  H9          0      18.259  -3.782 -13.115  1.00  0.00     0.218 HD
ENDBRANCH  17  20
BRANCH  18  22
HETATM   22  O11         0      16.913  -6.451 -13.290  1.00  0.00    -0.357 OA
HETATM   23  H11         0      16.116  -6.886 -13.570  1.00  0.00     0.218 HD
ENDBRANCH  18  22
ENDBRANCH   4  14
BRANCH   8  24
HETATM   24  O17         0      19.944  -2.098 -21.442  1.00  0.00    -0.359 OA
HETATM   25  H17         0      20.386  -1.793 -22.226  1.00  0.00     0.218 HD
ENDBRANCH   8  24
TORSDOF 5
ENDMDL
MODEL 4
REMARK VINA RESULT:       0.0     11.568     14.255
REMARK  5 active torsions:
REMARK  status: ('A' for Active; 'I' for Inactive)
REMARK    1  A    between atoms: C4_4  and  C5_5 
REMARK    2  A    between atoms: C8_8  and  O9_9 
REMARK    3  A    between atoms: C10_11  and  O11_12 
REMARK    4  A    between atoms: C16_18  and  O17_19 
REMARK    5  A    between atoms: C19_22  and  O20_23 
ROOT
HETATM    1  O1          0      16.775  -8.246 -19.343  1.00  0.00    -0.286 OA
HETATM    2  C2          0      15.848  -7.429 -19.087  1.00  0.00     0.201 C 
HETATM    3  C3          0      14.520  -7.808 -18.992  1.00  0.00     0.067 C 
HETATM    4  C4          0      13.507  -6.873 -18.812  1.00  0.00     0.103 C 
HETATM    5  O13         0      13.832  -5.596 -18.710  1.00  0.00    -0.307 OA
HETATM    6  C14         0      15.074  -5.179 -18.831  1.00  0.00     0.107 C 
HETATM    7  C15         0      15.376  -3.857 -19.125  1.00  0.00     0.049 C 
HETATM    8  C16         0      16.658  -3.477 -19.501  1.00  0.00     0.093 C 
HETATM    9  C18         0      17.673  -4.318 -19.062  1.00  0.00     0.048 C 
HETATM   10  C19         0      17.398  -5.634 -18.715  1.00  0.00     0.096 C 
HETATM   11  C21         0      16.114  -6.102 -18.790  1.00  0.00     0.084 C 
ENDROOT
BRANCH  10  12
HETATM   12  O20         0      18.432  -6.565 -18.704  1.00  0.00    -0.359 OA
HETATM   13  H20         0      19.323  -6.240 -18.660  1.00  0.00     0.218 HD
ENDBRANCH  10  12
BRANCH   4  14
HETATM   14  C5          0      12.175  -7.223 -19.310  1.00  0.00     0.025 C 
HETATM   15  C6          0      11.243  -6.272 -19.697  1.00  0.00     0.004 C 
HETATM   16  C7          0      10.453  -6.557 -20.806  1.00  0.00     0.026 C 
HETATM   17  C8          0      10.493  -7.799 -21.430  1.00  0.00     0.112 C 
HETATM   18  C10         0      10.944  -8.838 -20.625  1.00  0.00     0.112 C 
HETATM   19  C12         0      11.801  -8.534 -19.574  1.00  0.00     0.028 C 
BRANCH  17  20
HETATM   20  O9          0      10.298  -7.914 -22.795  1.00  0.00    -0.357 OA
HETATM   21  H9          0       9.774  -8.596 -23.197  1.00  0.00     0.218 HD
ENDBRANCH  17  20
BRANCH  18  22
HETATM   22  O11         0      10.826 -10.123 -21.134  1.00  0.00    -0.357 OA
HETATM   23  H11         0      11.307 -10.809 -20.685  1.00  0.00     0.218 HD
ENDBRANCH  18  22
ENDBRANCH   4  14
BRANCH   8  24
HETATM   24  O17         0      16.871  -2.531 -20.510  1.00  0.00    -0.359 OA
HETATM   25  H17         0      17.183  -1.655 -20.315  1.00  0.00     0.218 HD
ENDBRANCH   8  24
TORSDOF 5
ENDMDL
MODEL 5
REMARK VINA RESULT:       0.0      8.554     10.123
REMARK  5 active torsions:
REMARK  status: ('A' for Active; 'I' for Inactive)
REMARK    1  A    between atoms: C4_4  and  C5_5 
REMARK    2  A    between atoms: C8_8  and  O9_9 
REMARK    3  A    between atoms: C10_11  and  O11_12 
REMARK    4  A    between atoms: C16_18  and  O17_19 
REMARK    5  A    between atoms: C19_22  and  O20_23 
ROOT
HETATM    1  O1          0       9.690  -1.557 -20.689  1.00  0.00    -0.286 OA
HETATM    2  C2          0       9.164  -0.516 -21.170  1.00  0.00     0.201 C 
HETATM    3  C3          0       9.157   0.698 -20.504  1.00  0.00     0.067 C 
HETATM    4  C4          0       8.481   1.803 -21.010  1.00  0.00     0.103 C 
HETATM    5  O13         0       7.850   1.686 -22.165  1.00  0.00    -0.307 OA
HETATM    6  C14         0       7.794   0.547 -22.819  1.00  0.00     0.107 C 
HETATM    7  C15         0       6.832   0.309 -23.790  1.00  0.00     0.049 C 
HETATM    8  C16         0       6.614  -0.969 -24.292  1.00  0.00     0.093 C 
HETATM    9  C18         0       7.700  -1.831 -24.193  1.00  0.00     0.048 C 
HETATM   10  C19         0       8.705  -1.596 -23.264  1.00  0.00     0.096 C 
HETATM   11  C21         0       8.635  -0.498 -22.451  1.00  0.00     0.084 C 
ENDROOT
BRANCH  10  12
HETATM   12  O20         0       9.527  -2.647 -22.871  1.00  0.00    -0.359 OA
HETATM   13  H20         0       9.967  -3.146 -23.549  1.00  0.00     0.218 HD
ENDBRANCH  10  12
BRANCH   4  14
HETATM   14  C5          0       8.010   2.798 -20.046  1.00  0.00     0.025 C 
HETATM   15  C6          0       6.915   3.617 -20.285  1.00  0.00     0.004 C 
HETATM   16  C7          0       6.069   3.891 -19.215  1.00  0.00     0.026 C 
HETATM   17  C8          0       6.372   3.478 -17.921  1.00  0.00     0.112 C 
HETATM   18  C10         0       7.721   3.250 -17.686  1.00  0.00     0.112 C 
HETATM   19  C12         0       8.528   2.894 -18.760  1.00  0.00     0.028 C 
BRANCH  17  20
HETATM   20  O9          0       5.368   3.128 -17.036  1.00  0.00    -0.357 OA
HETATM   21  H9          0       4.665   3.713 -16.777  1.00  0.00     0.218 HD
ENDBRANCH  17  20
BRANCH  18  22
HETATM   22  O11         0       8.100   3.021 -16.371  1.00  0.00    -0.357 OA
HETATM   23  H11         0       8.735   2.330 -16.220  1.00  0.00     0.218 HD
ENDBRANCH  18  22
ENDBRANCH   4  14
BRANCH   8  24
HETATM   24  O17         0       5.323  -1.439 -24.555  1.00  0.00    -0.359 OA
HETATM   25  H17         0       5.134  -1.982 -25.312  1.00  0.00     0.218 HD
ENDBRANCH   8  24
TORSDOF 5
ENDMDL
MODEL 6
REMARK VINA RESULT:       0.0      8.718     10.687
REMARK  5 active torsions:
REMARK  status: ('A' for Active; 'I' for Inactive)
REMARK    1  A    between atoms: C4_4  and  C5_5 
REMARK    2  A    between atoms: C8_8  and  O9_9 
REMARK    3  A    between atoms: C10_11  and  O11_12 
REMARK    4  A    between atoms: C16_18  and  O17_19 
REMARK    5  A    between atoms: C19_22  and  O20_23 
ROOT
HETATM    1  O1          0       8.373   0.928 -21.025  1.00  0.00    -0.286 OA
HETATM    2  C2          0       7.662   1.836 -21.537  1.00  0.00     0.201 C 
HETATM    3  C3          0       7.525   3.091 -20.970  1.00  0.00     0.067 C 
HETATM    4  C4          0       6.655   4.038 -21.499  1.00  0.00     0.103 C 
HETATM    5  O13         0       5.963   3.730 -22.582  1.00  0.00    -0.307 OA
HETATM    6  C14         0       6.028   2.540 -23.138  1.00  0.00     0.107 C 
HETATM    7  C15         0       5.042   2.080 -23.999  1.00  0.00     0.049 C 
HETATM    8  C16         0       4.981   0.745 -24.379  1.00  0.00     0.093 C 
HETATM    9  C18         0       6.187   0.059 -24.308  1.00  0.00     0.048 C 
HETATM   10  C19         0       7.213   0.517 -23.493  1.00  0.00     0.096 C 
HETATM   11  C21         0       7.041   1.663 -22.765  1.00  0.00     0.084 C 
ENDROOT
BRANCH  10  12
HETATM   12  O20         0       8.210  -0.367 -23.092  1.00  0.00    -0.359 OA
HETATM   13  H20         0       8.831  -0.663 -23.746  1.00  0.00     0.218 HD
ENDBRANCH  10  12
BRANCH   4  14
HETATM   14  C5          0       6.114   5.039 -20.578  1.00  0.00     0.025 C 
HETATM   15  C6          0       4.895   5.669 -20.783  1.00  0.00     0.004 C 
HETATM   16  C7          0       4.101   5.915 -19.668  1.00  0.00     0.026 C 
HETATM   17  C8          0       4.558   5.667 -18.378  1.00  0.00     0.112 C 
HETATM   18  C10         0       5.940   5.656 -18.245  1.00  0.00     0.112 C 
HETATM   19  C12         0       6.708   5.323 -19.355  1.00  0.00     0.028 C 
BRANCH  17  20
HETATM   20  O9          0       3.687   5.260 -17.383  1.00  0.00    -0.357 OA
HETATM   21  H9          0       2.769   5.503 -17.353  1.00  0.00     0.218 HD
ENDBRANCH  17  20
BRANCH  18  22
HETATM   22  O11         0       6.447   5.602 -16.954  1.00  0.00    -0.357 OA
HETATM   23  H11         0       6.619   4.740 -16.595  1.00  0.00     0.218 HD
ENDBRANCH  18  22
ENDBRANCH   4  14
BRANCH   8  24
HETATM   24  O17         0       3.758   0.074 -24.490  1.00  0.00    -0.359 OA
HETATM   25  H17         0       3.596  -0.556 -25.183  1.00  0.00     0.218 HD
ENDBRANCH   8  24
TORSDOF 5
ENDMDL
MODEL 7
REMARK VINA RESULT:       0.0      5.842      7.772
REMARK  5 active torsions:
REMARK  status: ('A' for Active; 'I' for Inactive)
REMARK    1  A    between atoms: C4_4  and  C5_5 
REMARK    2  A    between atoms: C8_8  and  O9_9 
REMARK    3  A    between atoms: C10_11  and  O11_12 
REMARK    4  A    between atoms: C16_18  and  O17_19 
REMARK    5  A    between atoms: C19_22  and  O20_23 
ROOT
HETATM    1  O1          0       4.779   2.039 -21.994  1.00  0.00    -0.286 OA
HETATM    2  C2          0       5.748   1.396 -22.484  1.00  0.00     0.201 C 
HETATM    3  C3          0       7.016   1.412 -21.928  1.00  0.00     0.067 C 
HETATM    4  C4          0       8.090   0.779 -22.545  1.00  0.00     0.103 C 
HETATM    5  O13         0       7.880   0.132 -23.677  1.00  0.00    -0.307 OA
HETATM    6  C14         0       6.704   0.117 -24.266  1.00  0.00     0.107 C 
HETATM    7  C15         0       6.563  -0.200 -25.610  1.00  0.00     0.049 C 
HETATM    8  C16         0       5.371   0.031 -26.285  1.00  0.00     0.093 C 
HETATM    9  C18         0       4.239   0.070 -25.480  1.00  0.00     0.048 C 
HETATM   10  C19         0       4.348   0.338 -24.122  1.00  0.00     0.096 C 
HETATM   11  C21         0       5.581   0.548 -23.568  1.00  0.00     0.084 C 
ENDROOT
BRANCH  10  12
HETATM   12  O20         0       3.234   0.800 -23.428  1.00  0.00    -0.359 OA
HETATM   13  H20         0       2.391   0.412 -23.630  1.00  0.00     0.218 HD
ENDBRANCH  10  12
BRANCH   4  14
HETATM   14  C5          0       9.426   1.312 -22.275  1.00  0.00     0.025 C 
HETATM   15  C6          0      10.482   1.182 -23.166  1.00  0.00     0.004 C 
HETATM   16  C7          0      11.353   2.258 -23.295  1.00  0.00     0.026 C 
HETATM   17  C8          0      11.260   3.375 -22.470  1.00  0.00     0.112 C 
HETATM   18  C10         0      10.629   3.147 -21.255  1.00  0.00     0.112 C 
HETATM   19  C12         0       9.699   2.117 -21.177  1.00  0.00     0.028 C 
BRANCH  17  20
HETATM   20  O9          0      11.586   4.634 -22.943  1.00  0.00    -0.357 OA
HETATM   21  H9          0      11.022   5.149 -23.507  1.00  0.00     0.218 HD
ENDBRANCH  17  20
BRANCH  18  22
HETATM   22  O11         0      10.676   4.172 -20.321  1.00  0.00    -0.357 OA
HETATM   23  H11         0      10.567   5.058 -20.648  1.00  0.00     0.218 HD
ENDBRANCH  18  22
ENDBRANCH   4  14
BRANCH   8  24
HETATM   24  O17         0       5.357   0.517 -27.597  1.00  0.00    -0.359 OA
HETATM   25  H17         0       5.546   1.427 -27.794  1.00  0.00     0.218 HD
ENDBRANCH   8  24
TORSDOF 5
ENDMDL
MODEL 8
REMARK VINA RESULT:       0.0     11.408     14.048
REMARK  5 active torsions:
REMARK  status: ('A' for Active; 'I' for Inactive)
REMARK    1  A    between atoms: C4_4  and  C5_5 
REMARK    2  A    between atoms: C8_8  and  O9_9 
REMARK    3  A    between atoms: C10_11  and  O11_12 
REMARK    4  A    between atoms: C16_18  and  O17_19 
REMARK    5  A    between atoms: C19_22  and  O20_23 
ROOT
HETATM    1  O1          0      10.801   1.203 -14.810  1.00  0.00    -0.286 OA
HETATM    2  C2          0      11.069   0.006 -15.105  1.00  0.00     0.201 C 
HETATM    3  C3          0      11.104  -0.456 -16.410  1.00  0.00     0.067 C 
HETATM    4  C4          0      11.300  -1.801 -16.702  1.00  0.00     0.103 C 
HETATM    5  O13         0      11.477  -2.648 -15.704  1.00  0.00    -0.307 OA
HETATM    6  C14         0      11.417  -2.269 -14.446  1.00  0.00     0.107 C 
HETATM    7  C15         0      11.201  -3.176 -13.419  1.00  0.00     0.049 C 
HETATM    8  C16         0      10.885  -2.750 -12.134  1.00  0.00     0.093 C 
HETATM    9  C18         0      11.312  -1.465 -11.820  1.00  0.00     0.048 C 
HETATM   10  C19         0      11.581  -0.546 -12.825  1.00  0.00     0.096 C 
HETATM   11  C21         0      11.442  -0.913 -14.136  1.00  0.00     0.084 C 
ENDROOT
BRANCH  10  12
HETATM   12  O20         0      11.576   0.812 -12.524  1.00  0.00    -0.359 OA
HETATM   13  H20         0      12.329   1.329 -12.785  1.00  0.00     0.218 HD
ENDBRANCH  10  12
BRANCH   4  14
HETATM   14  C5          0      10.744  -2.301 -17.961  1.00  0.00     0.025 C 
HETATM   15  C6          0      10.377  -3.626 -18.147  1.00  0.00     0.004 C 
HETATM   16  C7          0       9.231  -3.879 -18.893  1.00  0.00     0.026 C 
HETATM   17  C8          0       8.546  -2.860 -19.546  1.00  0.00     0.112 C 
HETATM   18  C10         0       9.309  -1.734 -19.825  1.00  0.00     0.112 C 
HETATM   19  C12         0      10.401  -1.458 -19.010  1.00  0.00     0.028 C 
BRANCH  17  20
HETATM   20  O9          0       7.171  -2.913 -19.695  1.00  0.00    -0.357 OA
HETATM   21  H9          0       6.686  -2.376 -20.311  1.00  0.00     0.218 HD
ENDBRANCH  17  20
BRANCH  18  22
HETATM   22  O11         0       8.732  -0.769 -20.637  1.00  0.00    -0.357 OA
HETATM   23  H11         0       9.237  -0.481 -21.388  1.00  0.00     0.218 HD
ENDBRANCH  18  22
ENDBRANCH   4  14
BRANCH   8  24
HETATM   24  O17         0       9.933  -3.419 -11.357  1.00  0.00    -0.359 OA
HETATM   25  H17         0       9.025  -3.484 -11.627  1.00  0.00     0.218 HD
ENDBRANCH   8  24
TORSDOF 5
ENDMDL
MODEL 9
REMARK VINA RESULT:       0.0     12.858     15.445
REMARK  5 active torsions:
REMARK  status: ('A' for Active; 'I' for Inactive)
REMARK    1  A    between atoms: C4_4  and  C5_5 
REMARK    2  A    between atoms: C8_8  and  O9_9 
REMARK    3  A    between atoms: C10_11  and  O11_12 
REMARK    4  A    between atoms: C16_18  and  O17_19 
REMARK    5  A    between atoms: C19_22  and  O20_23 
ROOT
HETATM    1  O1          0       3.414  -2.233 -15.206  1.00  0.00    -0.286 OA
HETATM    2  C2          0       4.542  -2.734 -14.950  1.00  0.00     0.201 C 
HETATM    3  C3          0       5.703  -1.982 -14.895  1.00  0.00     0.067 C 
HETATM    4  C4          0       6.948  -2.574 -14.712  1.00  0.00     0.103 C 
HETATM    5  O13         0       7.011  -3.886 -14.568  1.00  0.00    -0.307 OA
HETATM    6  C14         0       5.944  -4.650 -14.649  1.00  0.00     0.107 C 
HETATM    7  C15         0       6.038  -6.012 -14.898  1.00  0.00     0.049 C 
HETATM    8  C16         0       4.918  -6.763 -15.234  1.00  0.00     0.093 C 
HETATM    9  C18         0       3.708  -6.240 -14.796  1.00  0.00     0.048 C 
HETATM   10  C19         0       3.591  -4.891 -14.492  1.00  0.00     0.096 C 
HETATM   11  C21         0       4.681  -4.071 -14.610  1.00  0.00     0.084 C 
ENDROOT
BRANCH  10  12
HETATM   12  O20         0       2.330  -4.302 -14.484  1.00  0.00    -0.359 OA
HETATM   13  H20         0       2.085  -3.785 -13.726  1.00  0.00     0.218 HD
ENDBRANCH  10  12
BRANCH   4  14
HETATM   14  C5          0       8.111  -1.867 -15.250  1.00  0.00     0.025 C 
HETATM   15  C6          0       9.276  -2.517 -15.632  1.00  0.00     0.004 C 
HETATM   16  C7          0       9.932  -2.051 -16.766  1.00  0.00     0.026 C 
HETATM   17  C8          0       9.522  -0.896 -17.423  1.00  0.00     0.112 C 
HETATM   18  C10         0       8.799  -0.008 -16.638  1.00  0.00     0.112 C 
HETATM   19  C12         0       8.082  -0.513 -15.559  1.00  0.00     0.028 C 
BRANCH  17  20
HETATM   20  O9          0       9.656  -0.775 -18.795  1.00  0.00    -0.357 OA
HETATM   21  H9          0       9.317  -0.042 -19.296  1.00  0.00     0.218 HD
ENDBRANCH  17  20
BRANCH  18  22
HETATM   22  O11         0       8.529   1.239 -17.185  1.00  0.00    -0.357 OA
HETATM   23  H11         0       9.049   1.968 -16.869  1.00  0.00     0.218 HD
ENDBRANCH  18  22
ENDBRANCH   4  14
BRANCH   8  24
HETATM   24  O17         0       4.977  -7.763 -16.212  1.00  0.00    -0.359 OA
HETATM   25  H17         0       5.148  -7.560 -17.124  1.00  0.00     0.218 HD
ENDBRANCH   8  24
TORSDOF 5
ENDMDL
