MODEL 1
REMARK VINA RESULT:      -6.5      0.000      0.000
REMARK  5 active torsions:
REMARK  status: ('A' for Active; 'I' for Inactive)
REMARK    1  A    between atoms: C4_4  and  C5_5 
REMARK    2  A    between atoms: C8_8  and  O9_9 
REMARK    3  A    between atoms: C10_11  and  O11_12 
REMARK    4  A    between atoms: C16_18  and  O17_19 
REMARK    5  A    between atoms: C19_22  and  O20_23 
ROOT
HETATM    1  O1          0      63.567   6.157   2.633  1.00  0.00    -0.286 OA
HETATM    2  C2          0      62.875   5.135   2.374  1.00  0.00     0.201 C 
HETATM    3  C3          0      61.666   5.197   1.703  1.00  0.00     0.067 C 
HETATM    4  C4          0      60.875   4.069   1.521  1.00  0.00     0.103 C 
HETATM    5  O13         0      61.306   2.909   1.986  1.00  0.00    -0.307 OA
HETATM    6  C14         0      62.428   2.801   2.663  1.00  0.00     0.107 C 
HETATM    7  C15         0      62.687   1.710   3.480  1.00  0.00     0.049 C 
HETATM    8  C16         0      63.744   1.719   4.381  1.00  0.00     0.093 C 
HETATM    9  C18         0      64.786   2.579   4.056  1.00  0.00     0.048 C 
HETATM   10  C19         0      64.573   3.654   3.204  1.00  0.00     0.096 C 
HETATM   11  C21         0      63.332   3.858   2.666  1.00  0.00     0.084 C 
ENDROOT
BRANCH  10  12
HETATM   12  O20         0      65.459   4.727   3.228  1.00  0.00    -0.359 OA
HETATM   13  H20         0      65.706   5.118   2.399  1.00  0.00     0.218 HD
ENDBRANCH  10  12
BRANCH   4  14
HETATM   14  C5          0      59.433   4.278   1.376  1.00  0.00     0.025 C 
HETATM   15  C6          0      58.528   4.011   2.394  1.00  0.00     0.004 C 
HETATM   16  C7          0      57.458   4.886   2.551  1.00  0.00     0.026 C 
HETATM   17  C8          0      57.217   5.914   1.645  1.00  0.00     0.112 C 
HETATM   18  C10         0      57.756   5.711   0.382  1.00  0.00     0.112 C 
HETATM   19  C12         0      58.879   4.900   0.265  1.00  0.00     0.028 C 
BRANCH  17  20
HETATM   20  O9          0      56.670   7.114   2.064  1.00  0.00    -0.357 OA
HETATM   21  H9          0      56.861   7.951   1.657  1.00  0.00     0.218 HD
ENDBRANCH  17  20
BRANCH  18  22
HETATM   22  O11         0      57.389   6.610  -0.609  1.00  0.00    -0.357 OA
HETATM   23  H11         0      56.697   6.338  -1.201  1.00  0.00     0.218 HD
ENDBRANCH  18  22
ENDBRANCH   4  14
BRANCH   8  24
HETATM   24  O17         0      63.615   1.172   5.663  1.00  0.00    -0.359 OA
HETATM   25  H17         0      63.182   0.339   5.809  1.00  0.00     0.218 HD
ENDBRANCH   8  24
TORSDOF 5
ENDMDL
MODEL 2
REMARK VINA RESULT:      -6.4      1.911      6.567
REMARK  5 active torsions:
REMARK  status: ('A' for Active; 'I' for Inactive)
REMARK    1  A    between atoms: C4_4  and  C5_5 
REMARK    2  A    between atoms: C8_8  and  O9_9 
REMARK    3  A    between atoms: C10_11  and  O11_12 
REMARK    4  A    between atoms: C16_18  and  O17_19 
REMARK    5  A    between atoms: C19_22  and  O20_23 
ROOT
HETATM    1  O1          0      59.599   6.471  -0.588  1.00  0.00    -0.286 OA
HETATM    2  C2          0      59.727   5.658   0.368  1.00  0.00     0.201 C 
HETATM    3  C3          0      60.936   5.430   1.003  1.00  0.00     0.067 C 
HETATM    4  C4          0      61.071   4.454   1.985  1.00  0.00     0.103 C 
HETATM    5  O13         0      60.008   3.747   2.328  1.00  0.00    -0.307 OA
HETATM    6  C14         0      58.846   3.898   1.731  1.00  0.00     0.107 C 
HETATM    7  C15         0      57.862   2.922   1.790  1.00  0.00     0.049 C 
HETATM    8  C16         0      56.749   2.967   0.959  1.00  0.00     0.093 C 
HETATM    9  C18         0      56.415   4.234   0.495  1.00  0.00     0.048 C 
HETATM   10  C19         0      57.364   5.247   0.465  1.00  0.00     0.096 C 
HETATM   11  C21         0      58.633   5.002   0.913  1.00  0.00     0.084 C 
ENDROOT
BRANCH  10  12
HETATM   12  O20         0      57.167   6.338  -0.376  1.00  0.00    -0.359 OA
HETATM   13  H20         0      56.583   7.027  -0.083  1.00  0.00     0.218 HD
ENDBRANCH  10  12
BRANCH   4  14
HETATM   14  C5          0      62.398   3.864   2.164  1.00  0.00     0.025 C 
HETATM   15  C6          0      62.807   2.716   1.500  1.00  0.00     0.004 C 
HETATM   16  C7          0      64.125   2.662   1.060  1.00  0.00     0.026 C 
HETATM   17  C8          0      65.045   3.653   1.384  1.00  0.00     0.112 C 
HETATM   18  C10         0      64.734   4.380   2.526  1.00  0.00     0.112 C 
HETATM   19  C12         0      63.399   4.490   2.896  1.00  0.00     0.028 C 
BRANCH  17  20
HETATM   20  O9          0      66.055   3.999   0.504  1.00  0.00    -0.357 OA
HETATM   21  H9          0      66.802   3.443   0.313  1.00  0.00     0.218 HD
ENDBRANCH  17  20
BRANCH  18  22
HETATM   22  O11         0      65.706   5.250   3.000  1.00  0.00    -0.357 OA
HETATM   23  H11         0      66.198   5.740   2.352  1.00  0.00     0.218 HD
ENDBRANCH  18  22
ENDBRANCH   4  14
BRANCH   8  24
HETATM   24  O17         0      56.227   1.808   0.375  1.00  0.00    -0.359 OA
HETATM   25  H17         0      56.740   1.275  -0.221  1.00  0.00     0.218 HD
ENDBRANCH   8  24
TORSDOF 5
ENDMDL
MODEL 3
REMARK VINA RESULT:      -6.3      1.295      1.873
REMARK  5 active torsions:
REMARK  status: ('A' for Active; 'I' for Inactive)
REMARK    1  A    between atoms: C4_4  and  C5_5 
REMARK    2  A    between atoms: C8_8  and  O9_9 
REMARK    3  A    between atoms: C10_11  and  O11_12 
REMARK    4  A    between atoms: C16_18  and  O17_19 
REMARK    5  A    between atoms: C19_22  and  O20_23 
ROOT
HETATM    1  O1          0      64.168   6.322   2.673  1.00  0.00    -0.286 OA
HETATM    2  C2          0      63.395   5.376   2.359  1.00  0.00     0.201 C 
HETATM    3  C3          0      62.234   5.565   1.629  1.00  0.00     0.067 C 
HETATM    4  C4          0      61.348   4.522   1.386  1.00  0.00     0.103 C 
HETATM    5  O13         0      61.640   3.320   1.850  1.00  0.00    -0.307 OA
HETATM    6  C14         0      62.709   3.094   2.581  1.00  0.00     0.107 C 
HETATM    7  C15         0      62.818   1.971   3.390  1.00  0.00     0.049 C 
HETATM    8  C16         0      63.822   1.864   4.344  1.00  0.00     0.093 C 
HETATM    9  C18         0      64.958   2.623   4.088  1.00  0.00     0.048 C 
HETATM   10  C19         0      64.896   3.725   3.246  1.00  0.00     0.096 C 
HETATM   11  C21         0      63.710   4.057   2.650  1.00  0.00     0.084 C 
ENDROOT
BRANCH  10  12
HETATM   12  O20         0      65.878   4.706   3.335  1.00  0.00    -0.359 OA
HETATM   13  H20         0      66.655   4.513   3.847  1.00  0.00     0.218 HD
ENDBRANCH  10  12
BRANCH   4  14
HETATM   14  C5          0      59.943   4.873   1.172  1.00  0.00     0.025 C 
HETATM   15  C6          0      59.470   5.389  -0.026  1.00  0.00     0.004 C 
HETATM   16  C7          0      58.218   4.966  -0.461  1.00  0.00     0.026 C 
HETATM   17  C8          0      57.404   4.163   0.330  1.00  0.00     0.112 C 
HETATM   18  C10         0      57.668   4.234   1.692  1.00  0.00     0.112 C 
HETATM   19  C12         0      58.952   4.576   2.099  1.00  0.00     0.028 C 
BRANCH  17  20
HETATM   20  O9          0      56.560   3.228  -0.241  1.00  0.00    -0.357 OA
HETATM   21  H9          0      55.750   3.449  -0.685  1.00  0.00     0.218 HD
ENDBRANCH  17  20
BRANCH  18  22
HETATM   22  O11         0      56.769   3.603   2.539  1.00  0.00    -0.357 OA
HETATM   23  H11         0      56.890   3.737   3.472  1.00  0.00     0.218 HD
ENDBRANCH  18  22
ENDBRANCH   4  14
BRANCH   8  24
HETATM   24  O17         0      63.573   1.315   5.606  1.00  0.00    -0.359 OA
HETATM   25  H17         0      63.678   1.824   6.401  1.00  0.00     0.218 HD
ENDBRANCH   8  24
TORSDOF 5
ENDMDL
MODEL 4
REMARK VINA RESULT:      -6.2      1.932      6.874
REMARK  5 active torsions:
REMARK  status: ('A' for Active; 'I' for Inactive)
REMARK    1  A    between atoms: C4_4  and  C5_5 
REMARK    2  A    between atoms: C8_8  and  O9_9 
REMARK    3  A    between atoms: C10_11  and  O11_12 
REMARK    4  A    between atoms: C16_18  and  O17_19 
REMARK    5  A    between atoms: C19_22  and  O20_23 
ROOT
HETATM    1  O1          0      57.920   1.506   1.989  1.00  0.00    -0.286 OA
HETATM    2  C2          0      58.726   2.366   1.539  1.00  0.00     0.201 C 
HETATM    3  C3          0      60.091   2.306   1.766  1.00  0.00     0.067 C 
HETATM    4  C4          0      60.944   3.320   1.347  1.00  0.00     0.103 C 
HETATM    5  O13         0      60.433   4.353   0.701  1.00  0.00    -0.307 OA
HETATM    6  C14         0      59.141   4.478   0.492  1.00  0.00     0.107 C 
HETATM    7  C15         0      58.564   5.702   0.188  1.00  0.00     0.049 C 
HETATM    8  C16         0      57.186   5.879   0.221  1.00  0.00     0.093 C 
HETATM    9  C18         0      56.441   4.720   0.040  1.00  0.00     0.048 C 
HETATM   10  C19         0      57.002   3.475   0.290  1.00  0.00     0.096 C 
HETATM   11  C21         0      58.304   3.387   0.702  1.00  0.00     0.084 C 
ENDROOT
BRANCH  10  12
HETATM   12  O20         0      56.167   2.389   0.531  1.00  0.00    -0.359 OA
HETATM   13  H20         0      56.546   1.519   0.497  1.00  0.00     0.218 HD
ENDBRANCH  10  12
BRANCH   4  14
HETATM   14  C5          0      62.186   3.504   2.101  1.00  0.00     0.025 C 
HETATM   15  C6          0      63.120   2.493   2.270  1.00  0.00     0.004 C 
HETATM   16  C7          0      64.465   2.845   2.228  1.00  0.00     0.026 C 
HETATM   17  C8          0      64.870   4.173   2.156  1.00  0.00     0.112 C 
HETATM   18  C10         0      63.937   5.090   2.624  1.00  0.00     0.112 C 
HETATM   19  C12         0      62.592   4.745   2.575  1.00  0.00     0.028 C 
BRANCH  17  20
HETATM   20  O9          0      66.020   4.528   1.474  1.00  0.00    -0.357 OA
HETATM   21  H9          0      66.550   3.915   0.978  1.00  0.00     0.218 HD
ENDBRANCH  17  20
BRANCH  18  22
HETATM   22  O11         0      64.358   6.406   2.751  1.00  0.00    -0.357 OA
HETATM   23  H11         0      63.795   7.075   2.379  1.00  0.00     0.218 HD
ENDBRANCH  18  22
ENDBRANCH   4  14
BRANCH   8  24
HETATM   24  O17         0      56.613   7.050   0.729  1.00  0.00    -0.359 OA
HETATM   25  H17         0      55.854   7.452   0.322  1.00  0.00     0.218 HD
ENDBRANCH   8  24
TORSDOF 5
ENDMDL
MODEL 5
REMARK VINA RESULT:      -6.1      1.590      2.884
REMARK  5 active torsions:
REMARK  status: ('A' for Active; 'I' for Inactive)
REMARK    1  A    between atoms: C4_4  and  C5_5 
REMARK    2  A    between atoms: C8_8  and  O9_9 
REMARK    3  A    between atoms: C10_11  and  O11_12 
REMARK    4  A    between atoms: C16_18  and  O17_19 
REMARK    5  A    between atoms: C19_22  and  O20_23 
ROOT
HETATM    1  O1          0      61.899   1.122   3.364  1.00  0.00    -0.286 OA
HETATM    2  C2          0      61.768   2.285   2.893  1.00  0.00     0.201 C 
HETATM    3  C3          0      60.569   2.761   2.392  1.00  0.00     0.067 C 
HETATM    4  C4          0      60.477   4.008   1.785  1.00  0.00     0.103 C 
HETATM    5  O13         0      61.562   4.758   1.707  1.00  0.00    -0.307 OA
HETATM    6  C14         0      62.734   4.338   2.133  1.00  0.00     0.107 C 
HETATM    7  C15         0      63.918   4.922   1.707  1.00  0.00     0.049 C 
HETATM    8  C16         0      65.147   4.322   1.953  1.00  0.00     0.093 C 
HETATM    9  C18         0      65.174   3.465   3.046  1.00  0.00     0.048 C 
HETATM   10  C19         0      64.001   2.900   3.528  1.00  0.00     0.096 C 
HETATM   11  C21         0      62.807   3.203   2.932  1.00  0.00     0.084 C 
ENDROOT
BRANCH  10  12
HETATM   12  O20         0      64.069   1.745   4.301  1.00  0.00    -0.359 OA
HETATM   13  H20         0      63.725   0.941   3.932  1.00  0.00     0.218 HD
ENDBRANCH  10  12
BRANCH   4  14
HETATM   14  C5          0      59.421   4.192   0.788  1.00  0.00     0.025 C 
HETATM   15  C6          0      58.905   3.145   0.038  1.00  0.00     0.004 C 
HETATM   16  C7          0      57.538   3.150  -0.222  1.00  0.00     0.026 C 
HETATM   17  C8          0      56.732   4.225   0.135  1.00  0.00     0.112 C 
HETATM   18  C10         0      57.405   5.431   0.282  1.00  0.00     0.112 C 
HETATM   19  C12         0      58.751   5.398   0.626  1.00  0.00     0.028 C 
BRANCH  17  20
HETATM   20  O9          0      55.415   4.030   0.511  1.00  0.00    -0.357 OA
HETATM   21  H9          0      54.696   4.581   0.224  1.00  0.00     0.218 HD
ENDBRANCH  17  20
BRANCH  18  22
HETATM   22  O11         0      56.628   6.568   0.450  1.00  0.00    -0.357 OA
HETATM   23  H11         0      56.138   6.638   1.262  1.00  0.00     0.218 HD
ENDBRANCH  18  22
ENDBRANCH   4  14
BRANCH   8  24
HETATM   24  O17         0      66.162   4.318   0.990  1.00  0.00    -0.359 OA
HETATM   25  H17         0      67.060   4.098   1.211  1.00  0.00     0.218 HD
ENDBRANCH   8  24
TORSDOF 5
ENDMDL
MODEL 6
REMARK VINA RESULT:      -5.9      3.031      4.975
REMARK  5 active torsions:
REMARK  status: ('A' for Active; 'I' for Inactive)
REMARK    1  A    between atoms: C4_4  and  C5_5 
REMARK    2  A    between atoms: C8_8  and  O9_9 
REMARK    3  A    between atoms: C10_11  and  O11_12 
REMARK    4  A    between atoms: C16_18  and  O17_19 
REMARK    5  A    between atoms: C19_22  and  O20_23 
ROOT
HETATM    1  O1          0      58.117   5.624   0.887  1.00  0.00    -0.286 OA
HETATM    2  C2          0      58.785   4.670   1.373  1.00  0.00     0.201 C 
HETATM    3  C3          0      58.195   3.568   1.967  1.00  0.00     0.067 C 
HETATM    4  C4          0      58.954   2.580   2.586  1.00  0.00     0.103 C 
HETATM    5  O13         0      60.270   2.697   2.584  1.00  0.00    -0.307 OA
HETATM    6  C14         0      60.879   3.742   2.067  1.00  0.00     0.107 C 
HETATM    7  C15         0      62.185   4.067   2.403  1.00  0.00     0.049 C 
HETATM    8  C16         0      62.733   5.297   2.060  1.00  0.00     0.093 C 
HETATM    9  C18         0      62.145   5.917   0.964  1.00  0.00     0.048 C 
HETATM   10  C19         0      60.857   5.581   0.571  1.00  0.00     0.096 C 
HETATM   11  C21         0      60.166   4.620   1.258  1.00  0.00     0.084 C 
ENDROOT
BRANCH  10  12
HETATM   12  O20         0      60.130   6.473  -0.211  1.00  0.00    -0.359 OA
HETATM   13  H20         0      59.194   6.336  -0.290  1.00  0.00     0.218 HD
ENDBRANCH  10  12
BRANCH   4  14
HETATM   14  C5          0      58.315   1.821   3.662  1.00  0.00     0.025 C 
HETATM   15  C6          0      59.027   1.015   4.539  1.00  0.00     0.004 C 
HETATM   16  C7          0      58.624   0.998   5.870  1.00  0.00     0.026 C 
HETATM   17  C8          0      57.472   1.652   6.292  1.00  0.00     0.112 C 
HETATM   18  C10         0      56.530   1.869   5.295  1.00  0.00     0.112 C 
HETATM   19  C12         0      56.971   1.967   3.981  1.00  0.00     0.028 C 
BRANCH  17  20
HETATM   20  O9          0      57.398   2.214   7.554  1.00  0.00    -0.357 OA
HETATM   21  H9          0      58.133   2.626   7.993  1.00  0.00     0.218 HD
ENDBRANCH  17  20
BRANCH  18  22
HETATM   22  O11         0      55.290   2.346   5.695  1.00  0.00    -0.357 OA
HETATM   23  H11         0      54.799   1.807   6.304  1.00  0.00     0.218 HD
ENDBRANCH  18  22
ENDBRANCH   4  14
BRANCH   8  24
HETATM   24  O17         0      63.565   5.996   2.942  1.00  0.00    -0.359 OA
HETATM   25  H17         0      63.388   6.029   3.875  1.00  0.00     0.218 HD
ENDBRANCH   8  24
TORSDOF 5
ENDMDL
MODEL 7
REMARK VINA RESULT:      -5.9      5.004      6.808
REMARK  5 active torsions:
REMARK  status: ('A' for Active; 'I' for Inactive)
REMARK    1  A    between atoms: C4_4  and  C5_5 
REMARK    2  A    between atoms: C8_8  and  O9_9 
REMARK    3  A    between atoms: C10_11  and  O11_12 
REMARK    4  A    between atoms: C16_18  and  O17_19 
REMARK    5  A    between atoms: C19_22  and  O20_23 
ROOT
HETATM    1  O1          0      59.512   0.589   2.131  1.00  0.00    -0.286 OA
HETATM    2  C2          0      58.999   1.116   1.107  1.00  0.00     0.201 C 
HETATM    3  C3          0      58.462   0.372   0.069  1.00  0.00     0.067 C 
HETATM    4  C4          0      57.996   0.975  -1.094  1.00  0.00     0.103 C 
HETATM    5  O13         0      58.052   2.291  -1.193  1.00  0.00    -0.307 OA
HETATM    6  C14         0      58.586   3.041  -0.254  1.00  0.00     0.107 C 
HETATM    7  C15         0      59.010   4.338  -0.507  1.00  0.00     0.049 C 
HETATM    8  C16         0      59.797   5.030   0.405  1.00  0.00     0.093 C 
HETATM    9  C18         0      59.683   4.604   1.723  1.00  0.00     0.048 C 
HETATM   10  C19         0      59.218   3.328   2.013  1.00  0.00     0.096 C 
HETATM   11  C21         0      58.853   2.490   0.995  1.00  0.00     0.084 C 
ENDROOT
BRANCH  10  12
HETATM   12  O20         0      59.511   2.762   3.250  1.00  0.00    -0.359 OA
HETATM   13  H20         0      60.416   2.544   3.437  1.00  0.00     0.218 HD
ENDBRANCH  10  12
BRANCH   4  14
HETATM   14  C5          0      58.020   0.174  -2.319  1.00  0.00     0.025 C 
HETATM   15  C6          0      57.812  -1.198  -2.324  1.00  0.00     0.004 C 
HETATM   16  C7          0      57.080  -1.735  -3.378  1.00  0.00     0.026 C 
HETATM   17  C8          0      56.681  -0.957  -4.460  1.00  0.00     0.112 C 
HETATM   18  C10         0      57.448   0.181  -4.670  1.00  0.00     0.112 C 
HETATM   19  C12         0      58.101   0.747  -3.581  1.00  0.00     0.028 C 
BRANCH  17  20
HETATM   20  O9          0      55.489  -1.212  -5.116  1.00  0.00    -0.357 OA
HETATM   21  H9          0      55.283  -0.883  -5.983  1.00  0.00     0.218 HD
ENDBRANCH  17  20
BRANCH  18  22
HETATM   22  O11         0      57.214   0.889  -5.840  1.00  0.00    -0.357 OA
HETATM   23  H11         0      57.713   0.630  -6.606  1.00  0.00     0.218 HD
ENDBRANCH  18  22
ENDBRANCH   4  14
BRANCH   8  24
HETATM   24  O17         0      60.855   5.845  -0.015  1.00  0.00    -0.359 OA
HETATM   25  H17         0      60.734   6.521  -0.671  1.00  0.00     0.218 HD
ENDBRANCH   8  24
TORSDOF 5
ENDMDL
MODEL 8
REMARK VINA RESULT:      -5.7      3.206      5.416
REMARK  5 active torsions:
REMARK  status: ('A' for Active; 'I' for Inactive)
REMARK    1  A    between atoms: C4_4  and  C5_5 
REMARK    2  A    between atoms: C8_8  and  O9_9 
REMARK    3  A    between atoms: C10_11  and  O11_12 
REMARK    4  A    between atoms: C16_18  and  O17_19 
REMARK    5  A    between atoms: C19_22  and  O20_23 
ROOT
HETATM    1  O1          0      56.994   6.291  -0.115  1.00  0.00    -0.286 OA
HETATM    2  C2          0      57.391   5.135   0.198  1.00  0.00     0.201 C 
HETATM    3  C3          0      56.524   4.078   0.418  1.00  0.00     0.067 C 
HETATM    4  C4          0      56.980   2.841   0.861  1.00  0.00     0.103 C 
HETATM    5  O13         0      58.277   2.675   1.054  1.00  0.00    -0.307 OA
HETATM    6  C14         0      59.138   3.656   0.896  1.00  0.00     0.107 C 
HETATM    7  C15         0      60.403   3.617   1.465  1.00  0.00     0.049 C 
HETATM    8  C16         0      61.209   4.748   1.512  1.00  0.00     0.093 C 
HETATM    9  C18         0      60.936   5.704   0.540  1.00  0.00     0.048 C 
HETATM   10  C19         0      59.696   5.742  -0.083  1.00  0.00     0.096 C 
HETATM   11  C21         0      58.740   4.821   0.249  1.00  0.00     0.084 C 
ENDROOT
BRANCH  10  12
HETATM   12  O20         0      59.282   6.917  -0.703  1.00  0.00    -0.359 OA
HETATM   13  H20         0      59.808   7.251  -1.420  1.00  0.00     0.218 HD
ENDBRANCH  10  12
BRANCH   4  14
HETATM   14  C5          0      56.043   2.016   1.624  1.00  0.00     0.025 C 
HETATM   15  C6          0      56.452   1.125   2.606  1.00  0.00     0.004 C 
HETATM   16  C7          0      55.661   1.012   3.745  1.00  0.00     0.026 C 
HETATM   17  C8          0      54.435   1.661   3.849  1.00  0.00     0.112 C 
HETATM   18  C10         0      53.844   1.981   2.634  1.00  0.00     0.112 C 
HETATM   19  C12         0      54.666   2.171   1.529  1.00  0.00     0.028 C 
BRANCH  17  20
HETATM   20  O9          0      53.979   2.122   5.070  1.00  0.00    -0.357 OA
HETATM   21  H9          0      53.063   2.131   5.322  1.00  0.00     0.218 HD
ENDBRANCH  17  20
BRANCH  18  22
HETATM   22  O11         0      52.541   2.456   2.675  1.00  0.00    -0.357 OA
HETATM   23  H11         0      51.948   2.033   3.287  1.00  0.00     0.218 HD
ENDBRANCH  18  22
ENDBRANCH   4  14
BRANCH   8  24
HETATM   24  O17         0      61.984   5.045   2.638  1.00  0.00    -0.359 OA
HETATM   25  H17         0      62.705   4.488   2.908  1.00  0.00     0.218 HD
ENDBRANCH   8  24
TORSDOF 5
ENDMDL
MODEL 9
REMARK VINA RESULT:      -5.6      4.355      6.682
REMARK  5 active torsions:
REMARK  status: ('A' for Active; 'I' for Inactive)
REMARK    1  A    between atoms: C4_4  and  C5_5 
REMARK    2  A    between atoms: C8_8  and  O9_9 
REMARK    3  A    between atoms: C10_11  and  O11_12 
REMARK    4  A    between atoms: C16_18  and  O17_19 
REMARK    5  A    between atoms: C19_22  and  O20_23 
ROOT
HETATM    1  O1          0      58.663   2.383  -0.062  1.00  0.00    -0.286 OA
HETATM    2  C2          0      58.368   2.924   1.039  1.00  0.00     0.201 C 
HETATM    3  C3          0      58.128   2.197   2.192  1.00  0.00     0.067 C 
HETATM    4  C4          0      57.704   2.810   3.365  1.00  0.00     0.103 C 
HETATM    5  O13         0      57.548   4.122   3.375  1.00  0.00    -0.307 OA
HETATM    6  C14         0      57.726   4.855   2.298  1.00  0.00     0.107 C 
HETATM    7  C15         0      57.193   6.131   2.186  1.00  0.00     0.049 C 
HETATM    8  C16         0      57.163   6.797   0.967  1.00  0.00     0.093 C 
HETATM    9  C18         0      58.122   6.384   0.049  1.00  0.00     0.048 C 
HETATM   10  C19         0      58.710   5.132   0.159  1.00  0.00     0.096 C 
HETATM   11  C21         0      58.355   4.303   1.188  1.00  0.00     0.084 C 
ENDROOT
BRANCH  10  12
HETATM   12  O20         0      59.313   4.563  -0.959  1.00  0.00    -0.359 OA
HETATM   13  H20         0      59.889   3.820  -0.824  1.00  0.00     0.218 HD
ENDBRANCH  10  12
BRANCH   4  14
HETATM   14  C5          0      56.918   2.000   4.298  1.00  0.00     0.025 C 
HETATM   15  C6          0      57.465   1.418   5.433  1.00  0.00     0.004 C 
HETATM   16  C7          0      56.687   1.397   6.586  1.00  0.00     0.026 C 
HETATM   17  C8          0      55.361   1.818   6.579  1.00  0.00     0.112 C 
HETATM   18  C10         0      54.745   1.771   5.335  1.00  0.00     0.112 C 
HETATM   19  C12         0      55.538   1.879   4.200  1.00  0.00     0.028 C 
BRANCH  17  20
HETATM   20  O9          0      54.805   2.428   7.689  1.00  0.00    -0.357 OA
HETATM   21  H9          0      53.877   2.412   7.891  1.00  0.00     0.218 HD
ENDBRANCH  17  20
BRANCH  18  22
HETATM   22  O11         0      53.376   1.998   5.304  1.00  0.00    -0.357 OA
HETATM   23  H11         0      52.865   1.462   4.709  1.00  0.00     0.218 HD
ENDBRANCH  18  22
ENDBRANCH   4  14
BRANCH   8  24
HETATM   24  O17         0      56.058   7.563   0.581  1.00  0.00    -0.359 OA
HETATM   25  H17         0      55.618   7.422  -0.249  1.00  0.00     0.218 HD
ENDBRANCH   8  24
TORSDOF 5
ENDMDL
