MODEL 1
REMARK VINA RESULT:      -6.8      0.000      0.000
REMARK  5 active torsions:
REMARK  status: ('A' for Active; 'I' for Inactive)
REMARK    1  A    between atoms: C4_4  and  C5_5 
REMARK    2  A    between atoms: C8_8  and  O9_9 
REMARK    3  A    between atoms: C10_11  and  O11_12 
REMARK    4  A    between atoms: C16_18  and  O17_19 
REMARK    5  A    between atoms: C19_22  and  O20_23 
ROOT
HETATM    1  O1          0      64.860  15.276  32.848  1.00  0.00    -0.286 OA
HETATM    2  C2          0      64.195  14.795  33.806  1.00  0.00     0.201 C 
HETATM    3  C3          0      64.583  14.925  35.129  1.00  0.00     0.067 C 
HETATM    4  C4          0      63.888  14.298  36.157  1.00  0.00     0.103 C 
HETATM    5  O13         0      62.820  13.580  35.855  1.00  0.00    -0.307 OA
HETATM    6  C14         0      62.430  13.394  34.613  1.00  0.00     0.107 C 
HETATM    7  C15         0      61.587  12.351  34.260  1.00  0.00     0.049 C 
HETATM    8  C16         0      61.384  12.006  32.930  1.00  0.00     0.093 C 
HETATM    9  C18         0      61.608  13.029  32.017  1.00  0.00     0.048 C 
HETATM   10  C19         0      62.410  14.111  32.354  1.00  0.00     0.096 C 
HETATM   11  C21         0      62.970  14.180  33.600  1.00  0.00     0.084 C 
ENDROOT
BRANCH  10  12
HETATM   12  O20         0      62.976  14.880  31.341  1.00  0.00    -0.359 OA
HETATM   13  H20         0      63.871  14.691  31.087  1.00  0.00     0.218 HD
ENDBRANCH  10  12
BRANCH   4  14
HETATM   14  C5          0      64.638  13.970  37.370  1.00  0.00     0.025 C 
HETATM   15  C6          0      64.309  14.477  38.619  1.00  0.00     0.004 C 
HETATM   16  C7          0      64.437  13.628  39.714  1.00  0.00     0.026 C 
HETATM   17  C8          0      65.001  12.363  39.593  1.00  0.00     0.112 C 
HETATM   18  C10         0      65.847  12.206  38.503  1.00  0.00     0.112 C 
HETATM   19  C12         0      65.642  13.010  37.388  1.00  0.00     0.028 C 
BRANCH  17  20
HETATM   20  O9          0      64.567  11.315  40.386  1.00  0.00    -0.357 OA
HETATM   21  H9          0      64.865  11.168  41.276  1.00  0.00     0.218 HD
ENDBRANCH  17  20
BRANCH  18  22
HETATM   22  O11         0      66.581  11.030  38.441  1.00  0.00    -0.357 OA
HETATM   23  H11         0      67.348  10.972  38.998  1.00  0.00     0.218 HD
ENDBRANCH  18  22
ENDBRANCH   4  14
BRANCH   8  24
HETATM   24  O17         0      61.297  10.668  32.529  1.00  0.00    -0.359 OA
HETATM   25  H17         0      61.973  10.260  32.001  1.00  0.00     0.218 HD
ENDBRANCH   8  24
TORSDOF 5
ENDMDL
MODEL 2
REMARK VINA RESULT:      -6.1      1.792      2.393
REMARK  5 active torsions:
REMARK  status: ('A' for Active; 'I' for Inactive)
REMARK    1  A    between atoms: C4_4  and  C5_5 
REMARK    2  A    between atoms: C8_8  and  O9_9 
REMARK    3  A    between atoms: C10_11  and  O11_12 
REMARK    4  A    between atoms: C16_18  and  O17_19 
REMARK    5  A    between atoms: C19_22  and  O20_23 
ROOT
HETATM    1  O1          0      65.453  15.217  34.131  1.00  0.00    -0.286 OA
HETATM    2  C2          0      64.392  14.756  34.635  1.00  0.00     0.201 C 
HETATM    3  C3          0      64.127  14.796  35.993  1.00  0.00     0.067 C 
HETATM    4  C4          0      62.999  14.190  36.534  1.00  0.00     0.103 C 
HETATM    5  O13         0      62.155  13.580  35.720  1.00  0.00    -0.307 OA
HETATM    6  C14         0      62.378  13.480  34.428  1.00  0.00     0.107 C 
HETATM    7  C15         0      61.736  12.530  33.647  1.00  0.00     0.049 C 
HETATM    8  C16         0      62.156  12.259  32.350  1.00  0.00     0.093 C 
HETATM    9  C18         0      62.838  13.296  31.725  1.00  0.00     0.048 C 
HETATM   10  C19         0      63.451  14.290  32.475  1.00  0.00     0.096 C 
HETATM   11  C21         0      63.370  14.258  33.841  1.00  0.00     0.084 C 
ENDROOT
BRANCH  10  12
HETATM   12  O20         0      64.466  15.048  31.900  1.00  0.00    -0.359 OA
HETATM   13  H20         0      65.238  14.592  31.586  1.00  0.00     0.218 HD
ENDBRANCH  10  12
BRANCH   4  14
HETATM   14  C5          0      63.079  13.748  37.927  1.00  0.00     0.025 C 
HETATM   15  C6          0      64.168  13.054  38.434  1.00  0.00     0.004 C 
HETATM   16  C7          0      64.578  13.356  39.729  1.00  0.00     0.026 C 
HETATM   17  C8          0      63.851  14.219  40.542  1.00  0.00     0.112 C 
HETATM   18  C10         0      62.510  14.344  40.202  1.00  0.00     0.112 C 
HETATM   19  C12         0      62.141  14.120  38.881  1.00  0.00     0.028 C 
BRANCH  17  20
HETATM   20  O9          0      64.488  15.029  41.465  1.00  0.00    -0.357 OA
HETATM   21  H9          0      65.402  14.934  41.709  1.00  0.00     0.218 HD
ENDBRANCH  17  20
BRANCH  18  22
HETATM   22  O11         0      61.700  15.040  41.087  1.00  0.00    -0.357 OA
HETATM   23  H11         0      62.135  15.594  41.724  1.00  0.00     0.218 HD
ENDBRANCH  18  22
ENDBRANCH   4  14
BRANCH   8  24
HETATM   24  O17         0      62.189  10.951  31.853  1.00  0.00    -0.359 OA
HETATM   25  H17         0      62.259  10.773  30.922  1.00  0.00     0.218 HD
ENDBRANCH   8  24
TORSDOF 5
ENDMDL
MODEL 3
REMARK VINA RESULT:      -6.0      2.370      6.411
REMARK  5 active torsions:
REMARK  status: ('A' for Active; 'I' for Inactive)
REMARK    1  A    between atoms: C4_4  and  C5_5 
REMARK    2  A    between atoms: C8_8  and  O9_9 
REMARK    3  A    between atoms: C10_11  and  O11_12 
REMARK    4  A    between atoms: C16_18  and  O17_19 
REMARK    5  A    between atoms: C19_22  and  O20_23 
ROOT
HETATM    1  O1          0      64.792  16.117  36.981  1.00  0.00    -0.286 OA
HETATM    2  C2          0      64.066  15.098  36.815  1.00  0.00     0.201 C 
HETATM    3  C3          0      63.999  14.412  35.615  1.00  0.00     0.067 C 
HETATM    4  C4          0      63.115  13.356  35.428  1.00  0.00     0.103 C 
HETATM    5  O13         0      62.338  12.993  36.433  1.00  0.00    -0.307 OA
HETATM    6  C14         0      62.336  13.634  37.581  1.00  0.00     0.107 C 
HETATM    7  C15         0      61.279  13.530  38.474  1.00  0.00     0.049 C 
HETATM    8  C16         0      61.160  14.395  39.555  1.00  0.00     0.093 C 
HETATM    9  C18         0      62.352  14.964  39.986  1.00  0.00     0.048 C 
HETATM   10  C19         0      63.445  15.042  39.133  1.00  0.00     0.096 C 
HETATM   11  C21         0      63.353  14.539  37.864  1.00  0.00     0.084 C 
ENDROOT
BRANCH  10  12
HETATM   12  O20         0      64.449  15.969  39.397  1.00  0.00    -0.359 OA
HETATM   13  H20         0      64.680  16.582  38.709  1.00  0.00     0.218 HD
ENDBRANCH  10  12
BRANCH   4  14
HETATM   14  C5          0      62.665  13.092  34.060  1.00  0.00     0.025 C 
HETATM   15  C6          0      61.658  12.186  33.760  1.00  0.00     0.004 C 
HETATM   16  C7          0      60.772  12.521  32.742  1.00  0.00     0.026 C 
HETATM   17  C8          0      60.958  13.654  31.956  1.00  0.00     0.112 C 
HETATM   18  C10         0      62.267  14.114  31.903  1.00  0.00     0.112 C 
HETATM   19  C12         0      63.108  13.837  32.974  1.00  0.00     0.028 C 
BRANCH  17  20
HETATM   20  O9          0      59.875  14.358  31.460  1.00  0.00    -0.357 OA
HETATM   21  H9          0      58.972  14.160  31.678  1.00  0.00     0.218 HD
ENDBRANCH  17  20
BRANCH  18  22
HETATM   22  O11         0      62.542  15.121  30.989  1.00  0.00    -0.357 OA
HETATM   23  H11         0      62.769  15.973  31.344  1.00  0.00     0.218 HD
ENDBRANCH  18  22
ENDBRANCH   4  14
BRANCH   8  24
HETATM   24  O17         0      59.917  14.905  39.948  1.00  0.00    -0.359 OA
HETATM   25  H17         0      59.105  14.464  39.729  1.00  0.00     0.218 HD
ENDBRANCH   8  24
TORSDOF 5
ENDMDL
MODEL 4
REMARK VINA RESULT:      -5.9      2.470      7.039
REMARK  5 active torsions:
REMARK  status: ('A' for Active; 'I' for Inactive)
REMARK    1  A    between atoms: C4_4  and  C5_5 
REMARK    2  A    between atoms: C8_8  and  O9_9 
REMARK    3  A    between atoms: C10_11  and  O11_12 
REMARK    4  A    between atoms: C16_18  and  O17_19 
REMARK    5  A    between atoms: C19_22  and  O20_23 
ROOT
HETATM    1  O1          0      64.846  12.973  40.429  1.00  0.00    -0.286 OA
HETATM    2  C2          0      64.134  13.623  39.615  1.00  0.00     0.201 C 
HETATM    3  C3          0      63.683  13.088  38.420  1.00  0.00     0.067 C 
HETATM    4  C4          0      62.987  13.857  37.494  1.00  0.00     0.103 C 
HETATM    5  O13         0      62.736  15.123  37.781  1.00  0.00    -0.307 OA
HETATM    6  C14         0      63.173  15.689  38.884  1.00  0.00     0.107 C 
HETATM    7  C15         0      63.269  17.068  39.010  1.00  0.00     0.049 C 
HETATM    8  C16         0      63.962  17.650  40.064  1.00  0.00     0.093 C 
HETATM    9  C18         0      64.070  16.861  41.203  1.00  0.00     0.048 C 
HETATM   10  C19         0      63.933  15.482  41.120  1.00  0.00     0.096 C 
HETATM   11  C21         0      63.673  14.896  39.911  1.00  0.00     0.084 C 
ENDROOT
BRANCH  10  12
HETATM   12  O20         0      64.460  14.684  42.132  1.00  0.00    -0.359 OA
HETATM   13  H20         0      65.394  14.735  42.298  1.00  0.00     0.218 HD
ENDBRANCH  10  12
BRANCH   4  14
HETATM   14  C5          0      63.076  13.457  36.089  1.00  0.00     0.025 C 
HETATM   15  C6          0      62.215  12.533  35.514  1.00  0.00     0.004 C 
HETATM   16  C7          0      61.795  12.768  34.209  1.00  0.00     0.026 C 
HETATM   17  C8          0      62.316  13.811  33.452  1.00  0.00     0.112 C 
HETATM   18  C10         0      63.568  14.254  33.858  1.00  0.00     0.112 C 
HETATM   19  C12         0      63.929  14.083  35.189  1.00  0.00     0.028 C 
BRANCH  17  20
HETATM   20  O9          0      61.534  14.469  32.518  1.00  0.00    -0.357 OA
HETATM   21  H9          0      60.812  14.062  32.054  1.00  0.00     0.218 HD
ENDBRANCH  17  20
BRANCH  18  22
HETATM   22  O11         0      64.214  15.159  33.028  1.00  0.00    -0.357 OA
HETATM   23  H11         0      64.997  14.854  32.585  1.00  0.00     0.218 HD
ENDBRANCH  18  22
ENDBRANCH   4  14
BRANCH   8  24
HETATM   24  O17         0      64.765  18.780  39.873  1.00  0.00    -0.359 OA
HETATM   25  H17         0      64.448  19.544  39.406  1.00  0.00     0.218 HD
ENDBRANCH   8  24
TORSDOF 5
ENDMDL
MODEL 5
REMARK VINA RESULT:      -5.7      3.211      6.529
REMARK  5 active torsions:
REMARK  status: ('A' for Active; 'I' for Inactive)
REMARK    1  A    between atoms: C4_4  and  C5_5 
REMARK    2  A    between atoms: C8_8  and  O9_9 
REMARK    3  A    between atoms: C10_11  and  O11_12 
REMARK    4  A    between atoms: C16_18  and  O17_19 
REMARK    5  A    between atoms: C19_22  and  O20_23 
ROOT
HETATM    1  O1          0      65.145  16.420  37.769  1.00  0.00    -0.286 OA
HETATM    2  C2          0      64.107  15.733  37.973  1.00  0.00     0.201 C 
HETATM    3  C3          0      63.833  14.564  37.284  1.00  0.00     0.067 C 
HETATM    4  C4          0      62.634  13.881  37.454  1.00  0.00     0.103 C 
HETATM    5  O13         0      61.750  14.357  38.313  1.00  0.00    -0.307 OA
HETATM    6  C14         0      61.944  15.482  38.966  1.00  0.00     0.107 C 
HETATM    7  C15         0      60.894  16.183  39.541  1.00  0.00     0.049 C 
HETATM    8  C16         0      61.062  17.484  40.002  1.00  0.00     0.093 C 
HETATM    9  C18         0      62.366  17.822  40.343  1.00  0.00     0.048 C 
HETATM   10  C19         0      63.438  17.111  39.822  1.00  0.00     0.096 C 
HETATM   11  C21         0      63.209  16.058  38.979  1.00  0.00     0.084 C 
ENDROOT
BRANCH  10  12
HETATM   12  O20         0      64.700  17.698  39.805  1.00  0.00    -0.359 OA
HETATM   13  H20         0      65.348  17.377  40.420  1.00  0.00     0.218 HD
ENDBRANCH  10  12
BRANCH   4  14
HETATM   14  C5          0      62.161  13.068  36.333  1.00  0.00     0.025 C 
HETATM   15  C6          0      60.922  12.443  36.327  1.00  0.00     0.004 C 
HETATM   16  C7          0      60.221  12.413  35.126  1.00  0.00     0.026 C 
HETATM   17  C8          0      60.786  12.868  33.940  1.00  0.00     0.112 C 
HETATM   18  C10         0      62.175  12.868  33.922  1.00  0.00     0.112 C 
HETATM   19  C12         0      62.851  12.985  35.130  1.00  0.00     0.028 C 
BRANCH  17  20
HETATM   20  O9          0      60.005  13.463  32.965  1.00  0.00    -0.357 OA
HETATM   21  H9          0      60.075  14.378  32.718  1.00  0.00     0.218 HD
ENDBRANCH  17  20
BRANCH  18  22
HETATM   22  O11         0      62.787  13.131  32.705  1.00  0.00    -0.357 OA
HETATM   23  H11         0      63.384  12.471  32.372  1.00  0.00     0.218 HD
ENDBRANCH  18  22
ENDBRANCH   4  14
BRANCH   8  24
HETATM   24  O17         0      60.075  18.457  39.813  1.00  0.00    -0.359 OA
HETATM   25  H17         0      59.437  18.659  40.488  1.00  0.00     0.218 HD
ENDBRANCH   8  24
TORSDOF 5
ENDMDL
MODEL 6
REMARK VINA RESULT:      -5.7      3.238      4.618
REMARK  5 active torsions:
REMARK  status: ('A' for Active; 'I' for Inactive)
REMARK    1  A    between atoms: C4_4  and  C5_5 
REMARK    2  A    between atoms: C8_8  and  O9_9 
REMARK    3  A    between atoms: C10_11  and  O11_12 
REMARK    4  A    between atoms: C16_18  and  O17_19 
REMARK    5  A    between atoms: C19_22  and  O20_23 
ROOT
HETATM    1  O1          0      60.846  12.027  38.319  1.00  0.00    -0.286 OA
HETATM    2  C2          0      61.687  12.863  37.887  1.00  0.00     0.201 C 
HETATM    3  C3          0      62.215  13.872  38.674  1.00  0.00     0.067 C 
HETATM    4  C4          0      63.060  14.841  38.145  1.00  0.00     0.103 C 
HETATM    5  O13         0      63.377  14.777  36.864  1.00  0.00    -0.307 OA
HETATM    6  C14         0      62.874  13.862  36.065  1.00  0.00     0.107 C 
HETATM    7  C15         0      62.873  14.016  34.686  1.00  0.00     0.049 C 
HETATM    8  C16         0      62.123  13.182  33.867  1.00  0.00     0.093 C 
HETATM    9  C18         0      61.838  11.933  34.405  1.00  0.00     0.048 C 
HETATM   10  C19         0      61.875  11.731  35.778  1.00  0.00     0.096 C 
HETATM   11  C21         0      62.212  12.766  36.607  1.00  0.00     0.084 C 
ENDROOT
BRANCH  10  12
HETATM   12  O20         0      61.187  10.653  36.326  1.00  0.00    -0.359 OA
HETATM   13  H20         0      61.693   9.906  36.623  1.00  0.00     0.218 HD
ENDBRANCH  10  12
BRANCH   4  14
HETATM   14  C5          0      63.086  16.144  38.813  1.00  0.00     0.025 C 
HETATM   15  C6          0      61.952  16.925  38.981  1.00  0.00     0.004 C 
HETATM   16  C7          0      61.820  17.622  40.177  1.00  0.00     0.026 C 
HETATM   17  C8          0      62.841  17.650  41.121  1.00  0.00     0.112 C 
HETATM   18  C10         0      64.108  17.397  40.612  1.00  0.00     0.112 C 
HETATM   19  C12         0      64.215  16.626  39.461  1.00  0.00     0.028 C 
BRANCH  17  20
HETATM   20  O9          0      62.555  17.714  42.473  1.00  0.00    -0.357 OA
HETATM   21  H9          0      62.949  17.145  43.124  1.00  0.00     0.218 HD
ENDBRANCH  17  20
BRANCH  18  22
HETATM   22  O11         0      65.181  17.598  41.469  1.00  0.00    -0.357 OA
HETATM   23  H11         0      65.702  18.381  41.330  1.00  0.00     0.218 HD
ENDBRANCH  18  22
ENDBRANCH   4  14
BRANCH   8  24
HETATM   24  O17         0      61.434  13.679  32.755  1.00  0.00    -0.359 OA
HETATM   25  H17         0      61.864  13.808  31.918  1.00  0.00     0.218 HD
ENDBRANCH   8  24
TORSDOF 5
ENDMDL
MODEL 7
REMARK VINA RESULT:      -5.5      2.822      6.972
REMARK  5 active torsions:
REMARK  status: ('A' for Active; 'I' for Inactive)
REMARK    1  A    between atoms: C4_4  and  C5_5 
REMARK    2  A    between atoms: C8_8  and  O9_9 
REMARK    3  A    between atoms: C10_11  and  O11_12 
REMARK    4  A    between atoms: C16_18  and  O17_19 
REMARK    5  A    between atoms: C19_22  and  O20_23 
ROOT
HETATM    1  O1          0      63.586  17.895  39.506  1.00  0.00    -0.286 OA
HETATM    2  C2          0      63.967  16.698  39.385  1.00  0.00     0.201 C 
HETATM    3  C3          0      64.377  16.159  38.177  1.00  0.00     0.067 C 
HETATM    4  C4          0      64.693  14.811  38.051  1.00  0.00     0.103 C 
HETATM    5  O13         0      64.617  14.038  39.121  1.00  0.00    -0.307 OA
HETATM    6  C14         0      64.198  14.491  40.282  1.00  0.00     0.107 C 
HETATM    7  C15         0      63.739  13.639  41.276  1.00  0.00     0.049 C 
HETATM    8  C16         0      63.066  14.127  42.390  1.00  0.00     0.093 C 
HETATM    9  C18         0      63.345  15.450  42.712  1.00  0.00     0.048 C 
HETATM   10  C19         0      63.849  16.317  41.753  1.00  0.00     0.096 C 
HETATM   11  C21         0      64.090  15.863  40.485  1.00  0.00     0.084 C 
ENDROOT
BRANCH  10  12
HETATM   12  O20         0      63.714  17.690  41.938  1.00  0.00    -0.359 OA
HETATM   13  H20         0      63.060  17.993  42.558  1.00  0.00     0.218 HD
ENDBRANCH  10  12
BRANCH   4  14
HETATM   14  C5          0      64.523  14.204  36.730  1.00  0.00     0.025 C 
HETATM   15  C6          0      63.728  13.088  36.511  1.00  0.00     0.004 C 
HETATM   16  C7          0      62.984  13.047  35.336  1.00  0.00     0.026 C 
HETATM   17  C8          0      63.126  14.016  34.349  1.00  0.00     0.112 C 
HETATM   18  C10         0      64.341  14.688  34.366  1.00  0.00     0.112 C 
HETATM   19  C12         0      65.024  14.787  35.573  1.00  0.00     0.028 C 
BRANCH  17  20
HETATM   20  O9          0      62.048  14.398  33.570  1.00  0.00    -0.357 OA
HETATM   21  H9          0      61.273  13.863  33.442  1.00  0.00     0.218 HD
ENDBRANCH  17  20
BRANCH  18  22
HETATM   22  O11         0      64.611  15.527  33.295  1.00  0.00    -0.357 OA
HETATM   23  H11         0      63.964  16.194  33.098  1.00  0.00     0.218 HD
ENDBRANCH  18  22
ENDBRANCH   4  14
BRANCH   8  24
HETATM   24  O17         0      61.961  13.456  42.925  1.00  0.00    -0.359 OA
HETATM   25  H17         0      61.755  13.493  43.852  1.00  0.00     0.218 HD
ENDBRANCH   8  24
TORSDOF 5
ENDMDL
MODEL 8
REMARK VINA RESULT:      -5.3      3.738      5.098
REMARK  5 active torsions:
REMARK  status: ('A' for Active; 'I' for Inactive)
REMARK    1  A    between atoms: C4_4  and  C5_5 
REMARK    2  A    between atoms: C8_8  and  O9_9 
REMARK    3  A    between atoms: C10_11  and  O11_12 
REMARK    4  A    between atoms: C16_18  and  O17_19 
REMARK    5  A    between atoms: C19_22  and  O20_23 
ROOT
HETATM    1  O1          0      65.955  12.870  37.777  1.00  0.00    -0.286 OA
HETATM    2  C2          0      64.832  13.444  37.764  1.00  0.00     0.201 C 
HETATM    3  C3          0      64.678  14.798  38.004  1.00  0.00     0.067 C 
HETATM    4  C4          0      63.420  15.386  38.085  1.00  0.00     0.103 C 
HETATM    5  O13         0      62.353  14.627  37.908  1.00  0.00    -0.307 OA
HETATM    6  C14         0      62.442  13.330  37.715  1.00  0.00     0.107 C 
HETATM    7  C15         0      61.362  12.484  37.926  1.00  0.00     0.049 C 
HETATM    8  C16         0      61.524  11.104  37.970  1.00  0.00     0.093 C 
HETATM    9  C18         0      62.635  10.622  37.289  1.00  0.00     0.048 C 
HETATM   10  C19         0      63.714  11.454  37.019  1.00  0.00     0.096 C 
HETATM   11  C21         0      63.675  12.764  37.413  1.00  0.00     0.084 C 
ENDROOT
BRANCH  10  12
HETATM   12  O20         0      64.957  10.890  36.748  1.00  0.00    -0.359 OA
HETATM   13  H20         0      65.623  10.935  37.423  1.00  0.00     0.218 HD
ENDBRANCH  10  12
BRANCH   4  14
HETATM   14  C5          0      63.298  16.596  38.900  1.00  0.00     0.025 C 
HETATM   15  C6          0      62.074  17.165  39.222  1.00  0.00     0.004 C 
HETATM   16  C7          0      61.928  17.698  40.499  1.00  0.00     0.026 C 
HETATM   17  C8          0      63.000  17.786  41.380  1.00  0.00     0.112 C 
HETATM   18  C10         0      64.249  17.794  40.775  1.00  0.00     0.112 C 
HETATM   19  C12         0      64.387  17.178  39.536  1.00  0.00     0.028 C 
BRANCH  17  20
HETATM   20  O9          0      62.808  17.657  42.745  1.00  0.00    -0.357 OA
HETATM   21  H9          0      63.125  16.920  43.255  1.00  0.00     0.218 HD
ENDBRANCH  17  20
BRANCH  18  22
HETATM   22  O11         0      65.340  18.068  41.587  1.00  0.00    -0.357 OA
HETATM   23  H11         0      66.188  17.764  41.286  1.00  0.00     0.218 HD
ENDBRANCH  18  22
ENDBRANCH   4  14
BRANCH   8  24
HETATM   24  O17         0      60.830  10.317  38.896  1.00  0.00    -0.359 OA
HETATM   25  H17         0      60.623  10.636  39.766  1.00  0.00     0.218 HD
ENDBRANCH   8  24
TORSDOF 5
ENDMDL
MODEL 9
REMARK VINA RESULT:      -5.2      6.945     10.760
REMARK  5 active torsions:
REMARK  status: ('A' for Active; 'I' for Inactive)
REMARK    1  A    between atoms: C4_4  and  C5_5 
REMARK    2  A    between atoms: C8_8  and  O9_9 
REMARK    3  A    between atoms: C10_11  and  O11_12 
REMARK    4  A    between atoms: C16_18  and  O17_19 
REMARK    5  A    between atoms: C19_22  and  O20_23 
ROOT
HETATM    1  O1          0      66.463  18.825  44.254  1.00  0.00    -0.286 OA
HETATM    2  C2          0      65.272  18.585  43.912  1.00  0.00     0.201 C 
HETATM    3  C3          0      64.946  17.948  42.727  1.00  0.00     0.067 C 
HETATM    4  C4          0      63.624  17.788  42.326  1.00  0.00     0.103 C 
HETATM    5  O13         0      62.663  18.242  43.111  1.00  0.00    -0.307 OA
HETATM    6  C14         0      62.919  18.887  44.228  1.00  0.00     0.107 C 
HETATM    7  C15         0      61.972  19.698  44.837  1.00  0.00     0.049 C 
HETATM    8  C16         0      62.320  20.569  45.862  1.00  0.00     0.093 C 
HETATM    9  C18         0      63.461  20.215  46.572  1.00  0.00     0.048 C 
HETATM   10  C19         0      64.407  19.368  46.010  1.00  0.00     0.096 C 
HETATM   11  C21         0      64.206  18.865  44.754  1.00  0.00     0.084 C 
ENDROOT
BRANCH  10  12
HETATM   12  O20         0      65.704  19.367  46.514  1.00  0.00    -0.359 OA
HETATM   13  H20         0      66.016  18.577  46.938  1.00  0.00     0.218 HD
ENDBRANCH  10  12
BRANCH   4  14
HETATM   14  C5          0      63.369  17.684  40.888  1.00  0.00     0.025 C 
HETATM   15  C6          0      64.340  17.291  39.978  1.00  0.00     0.004 C 
HETATM   16  C7          0      63.943  16.476  38.923  1.00  0.00     0.026 C 
HETATM   17  C8          0      62.604  16.170  38.701  1.00  0.00     0.112 C 
HETATM   18  C10         0      61.705  17.082  39.237  1.00  0.00     0.112 C 
HETATM   19  C12         0      62.098  17.824  40.345  1.00  0.00     0.028 C 
BRANCH  17  20
HETATM   20  O9          0      62.235  14.946  38.175  1.00  0.00    -0.357 OA
HETATM   21  H9          0      61.354  14.742  37.880  1.00  0.00     0.218 HD
ENDBRANCH  17  20
BRANCH  18  22
HETATM   22  O11         0      60.371  16.930  38.886  1.00  0.00    -0.357 OA
HETATM   23  H11         0      59.976  17.633  38.383  1.00  0.00     0.218 HD
ENDBRANCH  18  22
ENDBRANCH   4  14
BRANCH   8  24
HETATM   24  O17         0      61.772  21.854  45.944  1.00  0.00    -0.359 OA
HETATM   25  H17         0      60.855  22.018  45.758  1.00  0.00     0.218 HD
ENDBRANCH   8  24
TORSDOF 5
ENDMDL
