MODEL 1
REMARK VINA RESULT:      -4.9      0.000      0.000
REMARK  5 active torsions:
REMARK  status: ('A' for Active; 'I' for Inactive)
REMARK    1  A    between atoms: C4_4  and  C5_5 
REMARK    2  A    between atoms: C8_8  and  O9_9 
REMARK    3  A    between atoms: C10_11  and  O11_12 
REMARK    4  A    between atoms: C16_18  and  O17_19 
REMARK    5  A    between atoms: C19_22  and  O20_23 
ROOT
HETATM    1  O1          0      34.671  10.517  17.953  1.00  0.00    -0.286 OA
HETATM    2  C2          0      34.795  11.093  16.838  1.00  0.00     0.201 C 
HETATM    3  C3          0      34.056  10.737  15.722  1.00  0.00     0.067 C 
HETATM    4  C4          0      34.285  11.319  14.481  1.00  0.00     0.103 C 
HETATM    5  O13         0      35.218  12.248  14.378  1.00  0.00    -0.307 OA
HETATM    6  C14         0      35.973  12.597  15.396  1.00  0.00     0.107 C 
HETATM    7  C15         0      37.184  13.251  15.219  1.00  0.00     0.049 C 
HETATM    8  C16         0      38.090  13.388  16.264  1.00  0.00     0.093 C 
HETATM    9  C18         0      37.531  13.338  17.535  1.00  0.00     0.048 C 
HETATM   10  C19         0      36.299  12.732  17.741  1.00  0.00     0.096 C 
HETATM   11  C21         0      35.621  12.196  16.680  1.00  0.00     0.084 C 
ENDROOT
BRANCH  10  12
HETATM   12  O20         0      35.957  12.302  19.019  1.00  0.00    -0.359 OA
HETATM   13  H20         0      35.651  11.408  19.121  1.00  0.00     0.218 HD
ENDBRANCH  10  12
BRANCH   4  14
HETATM   14  C5          0      33.945  10.527  13.297  1.00  0.00     0.025 C 
HETATM   15  C6          0      32.672  10.026  13.068  1.00  0.00     0.004 C 
HETATM   16  C7          0      32.202  10.033  11.758  1.00  0.00     0.026 C 
HETATM   17  C8          0      33.018  10.400  10.693  1.00  0.00     0.112 C 
HETATM   18  C10         0      34.379  10.264  10.931  1.00  0.00     0.112 C 
HETATM   19  C12         0      34.831  10.346  12.243  1.00  0.00     0.028 C 
BRANCH  17  20
HETATM   20  O9          0      32.493  11.043   9.586  1.00  0.00    -0.357 OA
HETATM   21  H9          0      33.020  11.381   8.872  1.00  0.00     0.218 HD
ENDBRANCH  17  20
BRANCH  18  22
HETATM   22  O11         0      35.227  10.434   9.846  1.00  0.00    -0.357 OA
HETATM   23  H11         0      34.881  10.209   8.991  1.00  0.00     0.218 HD
ENDBRANCH  18  22
ENDBRANCH   4  14
BRANCH   8  24
HETATM   24  O17         0      39.467  13.246  16.059  1.00  0.00    -0.359 OA
HETATM   25  H17         0      39.843  12.430  15.750  1.00  0.00     0.218 HD
ENDBRANCH   8  24
TORSDOF 5
ENDMDL
MODEL 2
REMARK VINA RESULT:      -4.9      1.460      2.872
REMARK  5 active torsions:
REMARK  status: ('A' for Active; 'I' for Inactive)
REMARK    1  A    between atoms: C4_4  and  C5_5 
REMARK    2  A    between atoms: C8_8  and  O9_9 
REMARK    3  A    between atoms: C10_11  and  O11_12 
REMARK    4  A    between atoms: C16_18  and  O17_19 
REMARK    5  A    between atoms: C19_22  and  O20_23 
ROOT
HETATM    1  O1          0      37.294  13.168  13.691  1.00  0.00    -0.286 OA
HETATM    2  C2          0      36.618  12.318  14.332  1.00  0.00     0.201 C 
HETATM    3  C3          0      35.775  11.409  13.716  1.00  0.00     0.067 C 
HETATM    4  C4          0      34.964  10.552  14.451  1.00  0.00     0.103 C 
HETATM    5  O13         0      35.022  10.599  15.770  1.00  0.00    -0.307 OA
HETATM    6  C14         0      35.777  11.468  16.406  1.00  0.00     0.107 C 
HETATM    7  C15         0      35.553  11.797  17.735  1.00  0.00     0.049 C 
HETATM    8  C16         0      36.180  12.888  18.324  1.00  0.00     0.093 C 
HETATM    9  C18         0      37.375  13.271  17.728  1.00  0.00     0.048 C 
HETATM   10  C19         0      37.652  12.919  16.414  1.00  0.00     0.096 C 
HETATM   11  C21         0      36.749  12.175  15.705  1.00  0.00     0.084 C 
ENDROOT
BRANCH  10  12
HETATM   12  O20         0      38.601  13.645  15.701  1.00  0.00    -0.359 OA
HETATM   13  H20         0      38.624  13.541  14.757  1.00  0.00     0.218 HD
ENDBRANCH  10  12
BRANCH   4  14
HETATM   14  C5          0      33.729  10.089  13.816  1.00  0.00     0.025 C 
HETATM   15  C6          0      32.573   9.813  14.532  1.00  0.00     0.004 C 
HETATM   16  C7          0      31.358  10.168  13.955  1.00  0.00     0.026 C 
HETATM   17  C8          0      31.282  10.656  12.655  1.00  0.00     0.112 C 
HETATM   18  C10         0      32.349  10.302  11.840  1.00  0.00     0.112 C 
HETATM   19  C12         0      33.576  10.036  12.436  1.00  0.00     0.028 C 
BRANCH  17  20
HETATM   20  O9          0      30.322  11.587  12.302  1.00  0.00    -0.357 OA
HETATM   21  H9          0      29.621  11.415  11.684  1.00  0.00     0.218 HD
ENDBRANCH  17  20
BRANCH  18  22
HETATM   22  O11         0      32.235  10.601  10.490  1.00  0.00    -0.357 OA
HETATM   23  H11         0      31.362  10.568  10.114  1.00  0.00     0.218 HD
ENDBRANCH  18  22
ENDBRANCH   4  14
BRANCH   8  24
HETATM   24  O17         0      35.500  13.727  19.214  1.00  0.00    -0.359 OA
HETATM   25  H17         0      34.963  14.449  18.908  1.00  0.00     0.218 HD
ENDBRANCH   8  24
TORSDOF 5
ENDMDL
MODEL 3
REMARK VINA RESULT:      -4.6      1.665      2.174
REMARK  5 active torsions:
REMARK  status: ('A' for Active; 'I' for Inactive)
REMARK    1  A    between atoms: C4_4  and  C5_5 
REMARK    2  A    between atoms: C8_8  and  O9_9 
REMARK    3  A    between atoms: C10_11  and  O11_12 
REMARK    4  A    between atoms: C16_18  and  O17_19 
REMARK    5  A    between atoms: C19_22  and  O20_23 
ROOT
HETATM    1  O1          0      36.690   9.570  18.999  1.00  0.00    -0.286 OA
HETATM    2  C2          0      36.163  10.380  18.187  1.00  0.00     0.201 C 
HETATM    3  C3          0      34.996  10.098  17.497  1.00  0.00     0.067 C 
HETATM    4  C4          0      34.493  10.964  16.533  1.00  0.00     0.103 C 
HETATM    5  O13         0      35.141  12.090  16.290  1.00  0.00    -0.307 OA
HETATM    6  C14         0      36.273  12.388  16.890  1.00  0.00     0.107 C 
HETATM    7  C15         0      37.146  13.334  16.373  1.00  0.00     0.049 C 
HETATM    8  C16         0      38.441  13.462  16.861  1.00  0.00     0.093 C 
HETATM    9  C18         0      38.625  13.015  18.164  1.00  0.00     0.048 C 
HETATM   10  C19         0      37.743  12.104  18.728  1.00  0.00     0.096 C 
HETATM   11  C21         0      36.674  11.655  18.002  1.00  0.00     0.084 C 
ENDROOT
BRANCH  10  12
HETATM   12  O20         0      38.153  11.347  19.821  1.00  0.00    -0.359 OA
HETATM   13  H20         0      37.524  10.754  20.213  1.00  0.00     0.218 HD
ENDBRANCH  10  12
BRANCH   4  14
HETATM   14  C5          0      33.674  10.379  15.469  1.00  0.00     0.025 C 
HETATM   15  C6          0      32.357   9.989  15.662  1.00  0.00     0.004 C 
HETATM   16  C7          0      31.458  10.219  14.626  1.00  0.00     0.026 C 
HETATM   17  C8          0      31.877  10.697  13.389  1.00  0.00     0.112 C 
HETATM   18  C10         0      33.212  10.452  13.095  1.00  0.00     0.112 C 
HETATM   19  C12         0      34.105  10.310  14.151  1.00  0.00     0.028 C 
BRANCH  17  20
HETATM   20  O9          0      31.065  11.527  12.637  1.00  0.00    -0.357 OA
HETATM   21  H9          0      30.209  11.826  12.921  1.00  0.00     0.218 HD
ENDBRANCH  17  20
BRANCH  18  22
HETATM   22  O11         0      33.634  10.736  11.804  1.00  0.00    -0.357 OA
HETATM   23  H11         0      34.570  10.827  11.668  1.00  0.00     0.218 HD
ENDBRANCH  18  22
ENDBRANCH   4  14
BRANCH   8  24
HETATM   24  O17         0      39.523  13.699  16.005  1.00  0.00    -0.359 OA
HETATM   25  H17         0      39.677  13.163  15.236  1.00  0.00     0.218 HD
ENDBRANCH   8  24
TORSDOF 5
ENDMDL
MODEL 4
REMARK VINA RESULT:      -4.6      1.692      2.152
REMARK  5 active torsions:
REMARK  status: ('A' for Active; 'I' for Inactive)
REMARK    1  A    between atoms: C4_4  and  C5_5 
REMARK    2  A    between atoms: C8_8  and  O9_9 
REMARK    3  A    between atoms: C10_11  and  O11_12 
REMARK    4  A    between atoms: C16_18  and  O17_19 
REMARK    5  A    between atoms: C19_22  and  O20_23 
ROOT
HETATM    1  O1          0      34.930  10.477  18.293  1.00  0.00    -0.286 OA
HETATM    2  C2          0      34.906  11.164  17.235  1.00  0.00     0.201 C 
HETATM    3  C3          0      33.981  10.957  16.227  1.00  0.00     0.067 C 
HETATM    4  C4          0      34.040  11.659  15.028  1.00  0.00     0.103 C 
HETATM    5  O13         0      34.996  12.558  14.865  1.00  0.00    -0.307 OA
HETATM    6  C14         0      35.921  12.766  15.776  1.00  0.00     0.107 C 
HETATM    7  C15         0      37.123  13.388  15.467  1.00  0.00     0.049 C 
HETATM    8  C16         0      38.190  13.378  16.358  1.00  0.00     0.093 C 
HETATM    9  C18         0      37.839  13.213  17.692  1.00  0.00     0.048 C 
HETATM   10  C19         0      36.624  12.638  18.036  1.00  0.00     0.096 C 
HETATM   11  C21         0      35.757  12.244  17.054  1.00  0.00     0.084 C 
ENDROOT
BRANCH  10  12
HETATM   12  O20         0      36.467  12.086  19.304  1.00  0.00    -0.359 OA
HETATM   13  H20         0      36.868  12.537  20.038  1.00  0.00     0.218 HD
ENDBRANCH  10  12
BRANCH   4  14
HETATM   14  C5          0      33.472  11.012  13.844  1.00  0.00     0.025 C 
HETATM   15  C6          0      34.255  10.495  12.822  1.00  0.00     0.004 C 
HETATM   16  C7          0      33.840   9.305  12.232  1.00  0.00     0.026 C 
HETATM   17  C8          0      32.621   8.718  12.553  1.00  0.00     0.112 C 
HETATM   18  C10         0      31.673   9.594  13.066  1.00  0.00     0.112 C 
HETATM   19  C12         0      32.117  10.734  13.726  1.00  0.00     0.028 C 
BRANCH  17  20
HETATM   20  O9          0      32.473   7.342  12.548  1.00  0.00    -0.357 OA
HETATM   21  H9          0      32.051   6.859  11.847  1.00  0.00     0.218 HD
ENDBRANCH  17  20
BRANCH  18  22
HETATM   22  O11         0      30.385   9.103  13.225  1.00  0.00    -0.357 OA
HETATM   23  H11         0      29.736   9.387  12.592  1.00  0.00     0.218 HD
ENDBRANCH  18  22
ENDBRANCH   4  14
BRANCH   8  24
HETATM   24  O17         0      39.507  13.205  15.916  1.00  0.00    -0.359 OA
HETATM   25  H17         0      39.859  13.705  15.190  1.00  0.00     0.218 HD
ENDBRANCH   8  24
TORSDOF 5
ENDMDL
MODEL 5
REMARK VINA RESULT:      -4.6      2.139      2.791
REMARK  5 active torsions:
REMARK  status: ('A' for Active; 'I' for Inactive)
REMARK    1  A    between atoms: C4_4  and  C5_5 
REMARK    2  A    between atoms: C8_8  and  O9_9 
REMARK    3  A    between atoms: C10_11  and  O11_12 
REMARK    4  A    between atoms: C16_18  and  O17_19 
REMARK    5  A    between atoms: C19_22  and  O20_23 
ROOT
HETATM    1  O1          0      34.428  11.814  16.490  1.00  0.00    -0.286 OA
HETATM    2  C2          0      35.488  12.099  15.867  1.00  0.00     0.201 C 
HETATM    3  C3          0      35.619  11.943  14.498  1.00  0.00     0.067 C 
HETATM    4  C4          0      36.829  12.166  13.851  1.00  0.00     0.103 C 
HETATM    5  O13         0      37.869  12.556  14.568  1.00  0.00    -0.307 OA
HETATM    6  C14         0      37.809  12.683  15.875  1.00  0.00     0.107 C 
HETATM    7  C15         0      38.952  12.694  16.662  1.00  0.00     0.049 C 
HETATM    8  C16         0      38.878  12.572  18.044  1.00  0.00     0.093 C 
HETATM    9  C18         0      37.670  12.969  18.605  1.00  0.00     0.048 C 
HETATM   10  C19         0      36.516  13.014  17.834  1.00  0.00     0.096 C 
HETATM   11  C21         0      36.571  12.681  16.508  1.00  0.00     0.084 C 
ENDROOT
BRANCH  10  12
HETATM   12  O20         0      35.276  12.980  18.465  1.00  0.00    -0.359 OA
HETATM   13  H20         0      34.520  13.285  17.977  1.00  0.00     0.218 HD
ENDBRANCH  10  12
BRANCH   4  14
HETATM   14  C5          0      37.066  11.438  12.603  1.00  0.00     0.025 C 
HETATM   15  C6          0      36.243  10.412  12.163  1.00  0.00     0.004 C 
HETATM   16  C7          0      35.989  10.329  10.798  1.00  0.00     0.026 C 
HETATM   17  C8          0      36.636  11.155   9.885  1.00  0.00     0.112 C 
HETATM   18  C10         0      37.848  11.669  10.325  1.00  0.00     0.112 C 
HETATM   19  C12         0      38.043  11.820  11.693  1.00  0.00     0.028 C 
BRANCH  17  20
HETATM   20  O9          0      35.996  11.576   8.733  1.00  0.00    -0.357 OA
HETATM   21  H9          0      35.152  12.013   8.727  1.00  0.00     0.218 HD
ENDBRANCH  17  20
BRANCH  18  22
HETATM   22  O11         0      38.622  12.341   9.390  1.00  0.00    -0.357 OA
HETATM   23  H11         0      39.257  11.825   8.907  1.00  0.00     0.218 HD
ENDBRANCH  18  22
ENDBRANCH   4  14
BRANCH   8  24
HETATM   24  O17         0      39.803  11.803  18.758  1.00  0.00    -0.359 OA
HETATM   25  H17         0      39.787  11.756  19.707  1.00  0.00     0.218 HD
ENDBRANCH   8  24
TORSDOF 5
ENDMDL
MODEL 6
REMARK VINA RESULT:      -4.5      1.619      6.411
REMARK  5 active torsions:
REMARK  status: ('A' for Active; 'I' for Inactive)
REMARK    1  A    between atoms: C4_4  and  C5_5 
REMARK    2  A    between atoms: C8_8  and  O9_9 
REMARK    3  A    between atoms: C10_11  and  O11_12 
REMARK    4  A    between atoms: C16_18  and  O17_19 
REMARK    5  A    between atoms: C19_22  and  O20_23 
ROOT
HETATM    1  O1          0      31.793  10.730  15.557  1.00  0.00    -0.286 OA
HETATM    2  C2          0      33.026  10.759  15.292  1.00  0.00     0.201 C 
HETATM    3  C3          0      33.973  11.238  16.181  1.00  0.00     0.067 C 
HETATM    4  C4          0      35.312  11.354  15.826  1.00  0.00     0.103 C 
HETATM    5  O13         0      35.683  10.978  14.615  1.00  0.00    -0.307 OA
HETATM    6  C14         0      34.819  10.552  13.720  1.00  0.00     0.107 C 
HETATM    7  C15         0      35.116  10.539  12.365  1.00  0.00     0.049 C 
HETATM    8  C16         0      34.127  10.334  11.411  1.00  0.00     0.093 C 
HETATM    9  C18         0      33.010   9.640  11.863  1.00  0.00     0.048 C 
HETATM   10  C19         0      32.709   9.593  13.217  1.00  0.00     0.096 C 
HETATM   11  C21         0      33.527  10.221  14.117  1.00  0.00     0.084 C 
ENDROOT
BRANCH  10  12
HETATM   12  O20         0      31.410   9.294  13.616  1.00  0.00    -0.359 OA
HETATM   13  H20         0      30.803  10.015  13.733  1.00  0.00     0.218 HD
ENDBRANCH  10  12
BRANCH   4  14
HETATM   14  C5          0      36.103  12.372  16.521  1.00  0.00     0.025 C 
HETATM   15  C6          0      35.979  12.623  17.879  1.00  0.00     0.004 C 
HETATM   16  C7          0      37.139  12.910  18.591  1.00  0.00     0.026 C 
HETATM   17  C8          0      38.364  13.074  17.953  1.00  0.00     0.112 C 
HETATM   18  C10         0      38.277  13.430  16.614  1.00  0.00     0.112 C 
HETATM   19  C12         0      37.142  13.057  15.904  1.00  0.00     0.028 C 
BRANCH  17  20
HETATM   20  O9          0      39.542  12.698  18.573  1.00  0.00    -0.357 OA
HETATM   21  H9          0      39.922  11.830  18.502  1.00  0.00     0.218 HD
ENDBRANCH  17  20
BRANCH  18  22
HETATM   22  O11         0      39.458  13.790  15.981  1.00  0.00    -0.357 OA
HETATM   23  H11         0      39.677  13.325  15.181  1.00  0.00     0.218 HD
ENDBRANCH  18  22
ENDBRANCH   4  14
BRANCH   8  24
HETATM   24  O17         0      34.109  11.055  10.212  1.00  0.00    -0.359 OA
HETATM   25  H17         0      34.159  10.621   9.368  1.00  0.00     0.218 HD
ENDBRANCH   8  24
TORSDOF 5
ENDMDL
MODEL 7
REMARK VINA RESULT:      -4.3      1.649      2.013
REMARK  5 active torsions:
REMARK  status: ('A' for Active; 'I' for Inactive)
REMARK    1  A    between atoms: C4_4  and  C5_5 
REMARK    2  A    between atoms: C8_8  and  O9_9 
REMARK    3  A    between atoms: C10_11  and  O11_12 
REMARK    4  A    between atoms: C16_18  and  O17_19 
REMARK    5  A    between atoms: C19_22  and  O20_23 
ROOT
HETATM    1  O1          0      34.256  11.024  17.406  1.00  0.00    -0.286 OA
HETATM    2  C2          0      34.722  11.364  16.285  1.00  0.00     0.201 C 
HETATM    3  C3          0      34.243  10.858  15.088  1.00  0.00     0.067 C 
HETATM    4  C4          0      34.842  11.170  13.873  1.00  0.00     0.103 C 
HETATM    5  O13         0      35.880  11.988  13.869  1.00  0.00    -0.307 OA
HETATM    6  C14         0      36.397  12.467  14.979  1.00  0.00     0.107 C 
HETATM    7  C15         0      37.686  12.979  15.023  1.00  0.00     0.049 C 
HETATM    8  C16         0      38.316  13.245  16.233  1.00  0.00     0.093 C 
HETATM    9  C18         0      37.459  13.483  17.301  1.00  0.00     0.048 C 
HETATM   10  C19         0      36.148  13.025  17.269  1.00  0.00     0.096 C 
HETATM   11  C21         0      35.692  12.349  16.171  1.00  0.00     0.084 C 
ENDROOT
BRANCH  10  12
HETATM   12  O20         0      35.451  12.876  18.464  1.00  0.00    -0.359 OA
HETATM   13  H20         0      35.209  13.662  18.940  1.00  0.00     0.218 HD
ENDBRANCH  10  12
BRANCH   4  14
HETATM   14  C5          0      34.709  10.194  12.790  1.00  0.00     0.025 C 
HETATM   15  C6          0      35.601   9.148  12.607  1.00  0.00     0.004 C 
HETATM   16  C7          0      35.083   7.922  12.203  1.00  0.00     0.026 C 
HETATM   17  C8          0      33.743   7.773  11.862  1.00  0.00     0.112 C 
HETATM   18  C10         0      33.111   8.946  11.470  1.00  0.00     0.112 C 
HETATM   19  C12         0      33.598  10.153  11.958  1.00  0.00     0.028 C 
BRANCH  17  20
HETATM   20  O9          0      33.076   6.586  12.109  1.00  0.00    -0.357 OA
HETATM   21  H9          0      33.509   5.744  12.186  1.00  0.00     0.218 HD
ENDBRANCH  17  20
BRANCH  18  22
HETATM   22  O11         0      31.834   8.825  10.941  1.00  0.00    -0.357 OA
HETATM   23  H11         0      31.124   9.219  11.435  1.00  0.00     0.218 HD
ENDBRANCH  18  22
ENDBRANCH   4  14
BRANCH   8  24
HETATM   24  O17         0      39.672  12.960  16.427  1.00  0.00    -0.359 OA
HETATM   25  H17         0      40.076  13.017  17.285  1.00  0.00     0.218 HD
ENDBRANCH   8  24
TORSDOF 5
ENDMDL
MODEL 8
REMARK VINA RESULT:      -4.2      2.117      2.692
REMARK  5 active torsions:
REMARK  status: ('A' for Active; 'I' for Inactive)
REMARK    1  A    between atoms: C4_4  and  C5_5 
REMARK    2  A    between atoms: C8_8  and  O9_9 
REMARK    3  A    between atoms: C10_11  and  O11_12 
REMARK    4  A    between atoms: C16_18  and  O17_19 
REMARK    5  A    between atoms: C19_22  and  O20_23 
ROOT
HETATM    1  O1          0      35.525  10.926  18.236  1.00  0.00    -0.286 OA
HETATM    2  C2          0      35.181  11.304  17.083  1.00  0.00     0.201 C 
HETATM    3  C3          0      33.896  11.143  16.593  1.00  0.00     0.067 C 
HETATM    4  C4          0      33.568  11.474  15.283  1.00  0.00     0.103 C 
HETATM    5  O13         0      34.509  11.972  14.500  1.00  0.00    -0.307 OA
HETATM    6  C14         0      35.753  12.110  14.903  1.00  0.00     0.107 C 
HETATM    7  C15         0      36.802  12.243  14.005  1.00  0.00     0.049 C 
HETATM    8  C16         0      38.125  12.132  14.418  1.00  0.00     0.093 C 
HETATM    9  C18         0      38.346  12.418  15.760  1.00  0.00     0.048 C 
HETATM   10  C19         0      37.308  12.340  16.678  1.00  0.00     0.096 C 
HETATM   11  C21         0      36.053  11.996  16.257  1.00  0.00     0.084 C 
ENDROOT
BRANCH  10  12
HETATM   12  O20         0      37.605  12.195  18.030  1.00  0.00    -0.359 OA
HETATM   13  H20         0      38.125  12.871  18.447  1.00  0.00     0.218 HD
ENDBRANCH  10  12
BRANCH   4  14
HETATM   14  C5          0      32.449  10.756  14.670  1.00  0.00     0.025 C 
HETATM   15  C6          0      31.434  10.171  15.413  1.00  0.00     0.004 C 
HETATM   16  C7          0      30.140  10.246  14.909  1.00  0.00     0.026 C 
HETATM   17  C8          0      29.879  10.766  13.645  1.00  0.00     0.112 C 
HETATM   18  C10         0      30.954  10.724  12.768  1.00  0.00     0.112 C 
HETATM   19  C12         0      32.239  10.736  13.297  1.00  0.00     0.028 C 
BRANCH  17  20
HETATM   20  O9          0      28.705  11.451  13.389  1.00  0.00    -0.357 OA
HETATM   21  H9          0      28.159  11.834  14.066  1.00  0.00     0.218 HD
ENDBRANCH  17  20
BRANCH  18  22
HETATM   22  O11         0      30.699  11.053  11.444  1.00  0.00    -0.357 OA
HETATM   23  H11         0      30.732  10.345  10.811  1.00  0.00     0.218 HD
ENDBRANCH  18  22
ENDBRANCH   4  14
BRANCH   8  24
HETATM   24  O17         0      39.078  11.466  13.640  1.00  0.00    -0.359 OA
HETATM   25  H17         0      39.211  11.678  12.724  1.00  0.00     0.218 HD
ENDBRANCH   8  24
TORSDOF 5
ENDMDL
MODEL 9
REMARK VINA RESULT:      -4.2      8.302     12.235
REMARK  5 active torsions:
REMARK  status: ('A' for Active; 'I' for Inactive)
REMARK    1  A    between atoms: C4_4  and  C5_5 
REMARK    2  A    between atoms: C8_8  and  O9_9 
REMARK    3  A    between atoms: C10_11  and  O11_12 
REMARK    4  A    between atoms: C16_18  and  O17_19 
REMARK    5  A    between atoms: C19_22  and  O20_23 
ROOT
HETATM    1  O1          0      24.373  15.045   5.900  1.00  0.00    -0.286 OA
HETATM    2  C2          0      25.605  15.155   6.145  1.00  0.00     0.201 C 
HETATM    3  C3          0      26.414  14.067   6.427  1.00  0.00     0.067 C 
HETATM    4  C4          0      27.746  14.225   6.794  1.00  0.00     0.103 C 
HETATM    5  O13         0      28.248  15.446   6.852  1.00  0.00    -0.307 OA
HETATM    6  C14         0      27.514  16.514   6.630  1.00  0.00     0.107 C 
HETATM    7  C15         0      27.904  17.772   7.068  1.00  0.00     0.049 C 
HETATM    8  C16         0      27.020  18.845   7.060  1.00  0.00     0.093 C 
HETATM    9  C18         0      25.981  18.742   6.142  1.00  0.00     0.048 C 
HETATM   10  C19         0      25.597  17.503   5.647  1.00  0.00     0.096 C 
HETATM   11  C21         0      26.256  16.376   6.053  1.00  0.00     0.084 C 
ENDROOT
BRANCH  10  12
HETATM   12  O20         0      24.327  17.355   5.099  1.00  0.00    -0.359 OA
HETATM   13  H20         0      24.009  16.473   4.944  1.00  0.00     0.218 HD
ENDBRANCH  10  12
BRANCH   4  14
HETATM   14  C5          0      28.339  13.178   7.628  1.00  0.00     0.025 C 
HETATM   15  C6          0      28.996  12.077   7.099  1.00  0.00     0.004 C 
HETATM   16  C7          0      30.131  11.623   7.765  1.00  0.00     0.026 C 
HETATM   17  C8          0      30.523  12.158   8.987  1.00  0.00     0.112 C 
HETATM   18  C10         0      29.503  12.764   9.709  1.00  0.00     0.112 C 
HETATM   19  C12         0      28.420  13.286   9.011  1.00  0.00     0.028 C 
BRANCH  17  20
HETATM   20  O9          0      31.862  12.250   9.324  1.00  0.00    -0.357 OA
HETATM   21  H9          0      32.188  12.182  10.214  1.00  0.00     0.218 HD
ENDBRANCH  17  20
BRANCH  18  22
HETATM   22  O11         0      29.795  13.145  11.011  1.00  0.00    -0.357 OA
HETATM   23  H11         0      30.576  13.671  11.140  1.00  0.00     0.218 HD
ENDBRANCH  18  22
ENDBRANCH   4  14
BRANCH   8  24
HETATM   24  O17         0      26.987  19.770   8.109  1.00  0.00    -0.359 OA
HETATM   25  H17         0      27.581  19.709   8.847  1.00  0.00     0.218 HD
ENDBRANCH   8  24
TORSDOF 5
ENDMDL
