MODEL 1
REMARK VINA RESULT:      -5.1      0.000      0.000
REMARK  5 active torsions:
REMARK  status: ('A' for Active; 'I' for Inactive)
REMARK    1  A    between atoms: C4_4  and  C5_5 
REMARK    2  A    between atoms: C8_8  and  O9_9 
REMARK    3  A    between atoms: C10_11  and  O11_12 
REMARK    4  A    between atoms: C16_18  and  O17_19 
REMARK    5  A    between atoms: C19_22  and  O20_23 
ROOT
HETATM    1  O1          0      39.946  11.982  19.193  1.00  0.00    -0.286 OA
HETATM    2  C2          0      38.738  12.324  19.310  1.00  0.00     0.201 C 
HETATM    3  C3          0      38.006  12.111  20.467  1.00  0.00     0.067 C 
HETATM    4  C4          0      36.649  12.404  20.534  1.00  0.00     0.103 C 
HETATM    5  O13         0      36.056  12.916  19.470  1.00  0.00    -0.307 OA
HETATM    6  C14         0      36.695  13.103  18.336  1.00  0.00     0.107 C 
HETATM    7  C15         0      36.021  13.250  17.132  1.00  0.00     0.049 C 
HETATM    8  C16         0      36.692  13.191  15.917  1.00  0.00     0.093 C 
HETATM    9  C18         0      38.043  13.512  15.976  1.00  0.00     0.048 C 
HETATM   10  C19         0      38.738  13.420  17.174  1.00  0.00     0.096 C 
HETATM   11  C21         0      38.084  13.027  18.310  1.00  0.00     0.084 C 
ENDROOT
BRANCH  10  12
HETATM   12  O20         0      40.125  13.312  17.150  1.00  0.00    -0.359 OA
HETATM   13  H20         0      40.503  12.442  17.109  1.00  0.00     0.218 HD
ENDBRANCH  10  12
BRANCH   4  14
HETATM   14  C5          0      35.845  11.638  21.488  1.00  0.00     0.025 C 
HETATM   15  C6          0      35.974  10.266  21.649  1.00  0.00     0.004 C 
HETATM   16  C7          0      35.873   9.756  22.939  1.00  0.00     0.026 C 
HETATM   17  C8          0      35.521  10.562  24.017  1.00  0.00     0.112 C 
HETATM   18  C10         0      34.816  11.709  23.677  1.00  0.00     0.112 C 
HETATM   19  C12         0      35.002  12.246  22.409  1.00  0.00     0.028 C 
BRANCH  17  20
HETATM   20  O9          0      36.032  10.320  25.280  1.00  0.00    -0.357 OA
HETATM   21  H9          0      36.209   9.450  25.620  1.00  0.00     0.218 HD
ENDBRANCH  17  20
BRANCH  18  22
HETATM   22  O11         0      34.279  12.448  24.721  1.00  0.00    -0.357 OA
HETATM   23  H11         0      34.423  13.387  24.701  1.00  0.00     0.218 HD
ENDBRANCH  18  22
ENDBRANCH   4  14
BRANCH   8  24
HETATM   24  O17         0      36.138  12.540  14.809  1.00  0.00    -0.359 OA
HETATM   25  H17         0      35.304  12.805  14.440  1.00  0.00     0.218 HD
ENDBRANCH   8  24
TORSDOF 5
ENDMDL
MODEL 2
REMARK VINA RESULT:      -5.1      2.517      4.493
REMARK  5 active torsions:
REMARK  status: ('A' for Active; 'I' for Inactive)
REMARK    1  A    between atoms: C4_4  and  C5_5 
REMARK    2  A    between atoms: C8_8  and  O9_9 
REMARK    3  A    between atoms: C10_11  and  O11_12 
REMARK    4  A    between atoms: C16_18  and  O17_19 
REMARK    5  A    between atoms: C19_22  and  O20_23 
ROOT
HETATM    1  O1          0      38.987  10.648  14.404  1.00  0.00    -0.286 OA
HETATM    2  C2          0      38.122  11.374  14.966  1.00  0.00     0.201 C 
HETATM    3  C3          0      38.364  12.050  16.150  1.00  0.00     0.067 C 
HETATM    4  C4          0      37.362  12.760  16.801  1.00  0.00     0.103 C 
HETATM    5  O13         0      36.158  12.802  16.258  1.00  0.00    -0.307 OA
HETATM    6  C14         0      35.865  12.148  15.156  1.00  0.00     0.107 C 
HETATM    7  C15         0      34.555  11.857  14.805  1.00  0.00     0.049 C 
HETATM    8  C16         0      34.264  10.956  13.787  1.00  0.00     0.093 C 
HETATM    9  C18         0      35.267  10.797  12.839  1.00  0.00     0.048 C 
HETATM   10  C19         0      36.582  11.123  13.142  1.00  0.00     0.096 C 
HETATM   11  C21         0      36.891  11.620  14.378  1.00  0.00     0.084 C 
ENDROOT
BRANCH  10  12
HETATM   12  O20         0      37.611  10.571  12.385  1.00  0.00    -0.359 OA
HETATM   13  H20         0      37.749   9.633  12.438  1.00  0.00     0.218 HD
ENDBRANCH  10  12
BRANCH   4  14
HETATM   14  C5          0      37.488  12.918  18.251  1.00  0.00     0.025 C 
HETATM   15  C6          0      36.403  13.182  19.075  1.00  0.00     0.004 C 
HETATM   16  C7          0      36.373  12.562  20.320  1.00  0.00     0.026 C 
HETATM   17  C8          0      37.447  11.811  20.787  1.00  0.00     0.112 C 
HETATM   18  C10         0      38.669  12.125  20.208  1.00  0.00     0.112 C 
HETATM   19  C12         0      38.674  12.666  18.928  1.00  0.00     0.028 C 
BRANCH  17  20
HETATM   20  O9          0      37.242  10.710  21.600  1.00  0.00    -0.357 OA
HETATM   21  H9          0      36.622  10.694  22.320  1.00  0.00     0.218 HD
ENDBRANCH  17  20
BRANCH  18  22
HETATM   22  O11         0      39.798  11.543  20.768  1.00  0.00    -0.357 OA
HETATM   23  H11         0      40.096  11.895  21.599  1.00  0.00     0.218 HD
ENDBRANCH  18  22
ENDBRANCH   4  14
BRANCH   8  24
HETATM   24  O17         0      33.206  10.047  13.900  1.00  0.00    -0.359 OA
HETATM   25  H17         0      32.822   9.830  14.741  1.00  0.00     0.218 HD
ENDBRANCH   8  24
TORSDOF 5
ENDMDL
MODEL 3
REMARK VINA RESULT:      -5.0      1.713      2.589
REMARK  5 active torsions:
REMARK  status: ('A' for Active; 'I' for Inactive)
REMARK    1  A    between atoms: C4_4  and  C5_5 
REMARK    2  A    between atoms: C8_8  and  O9_9 
REMARK    3  A    between atoms: C10_11  and  O11_12 
REMARK    4  A    between atoms: C16_18  and  O17_19 
REMARK    5  A    between atoms: C19_22  and  O20_23 
ROOT
HETATM    1  O1          0      38.941  13.418  16.917  1.00  0.00    -0.286 OA
HETATM    2  C2          0      37.818  13.156  17.430  1.00  0.00     0.201 C 
HETATM    3  C3          0      37.602  13.148  18.798  1.00  0.00     0.067 C 
HETATM    4  C4          0      36.383  12.756  19.340  1.00  0.00     0.103 C 
HETATM    5  O13         0      35.408  12.403  18.521  1.00  0.00    -0.307 OA
HETATM    6  C14         0      35.573  12.356  17.218  1.00  0.00     0.107 C 
HETATM    7  C15         0      34.723  11.625  16.400  1.00  0.00     0.049 C 
HETATM    8  C16         0      35.043  11.370  15.071  1.00  0.00     0.093 C 
HETATM    9  C18         0      35.916  12.283  14.492  1.00  0.00     0.048 C 
HETATM   10  C19         0      36.747  13.065  15.284  1.00  0.00     0.096 C 
HETATM   11  C21         0      36.694  12.947  16.646  1.00  0.00     0.084 C 
ENDROOT
BRANCH  10  12
HETATM   12  O20         0      37.887  13.631  14.721  1.00  0.00    -0.359 OA
HETATM   13  H20         0      37.805  14.045  13.871  1.00  0.00     0.218 HD
ENDBRANCH  10  12
BRANCH   4  14
HETATM   14  C5          0      36.401  12.203  20.696  1.00  0.00     0.025 C 
HETATM   15  C6          0      35.703  12.774  21.750  1.00  0.00     0.004 C 
HETATM   16  C7          0      35.101  11.916  22.664  1.00  0.00     0.026 C 
HETATM   17  C8          0      35.296  10.540  22.612  1.00  0.00     0.112 C 
HETATM   18  C10         0      36.459  10.144  21.965  1.00  0.00     0.112 C 
HETATM   19  C12         0      36.993  10.983  20.994  1.00  0.00     0.028 C 
BRANCH  17  20
HETATM   20  O9          0      34.292   9.667  22.991  1.00  0.00    -0.357 OA
HETATM   21  H9          0      33.372   9.802  22.794  1.00  0.00     0.218 HD
ENDBRANCH  17  20
BRANCH  18  22
HETATM   22  O11         0      36.798   8.801  22.048  1.00  0.00    -0.357 OA
HETATM   23  H11         0      36.790   8.408  22.913  1.00  0.00     0.218 HD
ENDBRANCH  18  22
ENDBRANCH   4  14
BRANCH   8  24
HETATM   24  O17         0      34.783  10.127  14.484  1.00  0.00    -0.359 OA
HETATM   25  H17         0      34.056   9.585  14.766  1.00  0.00     0.218 HD
ENDBRANCH   8  24
TORSDOF 5
ENDMDL
MODEL 4
REMARK VINA RESULT:      -4.9      2.856      7.597
REMARK  5 active torsions:
REMARK  status: ('A' for Active; 'I' for Inactive)
REMARK    1  A    between atoms: C4_4  and  C5_5 
REMARK    2  A    between atoms: C8_8  and  O9_9 
REMARK    3  A    between atoms: C10_11  and  O11_12 
REMARK    4  A    between atoms: C16_18  and  O17_19 
REMARK    5  A    between atoms: C19_22  and  O20_23 
ROOT
HETATM    1  O1          0      34.974  12.119  17.856  1.00  0.00    -0.286 OA
HETATM    2  C2          0      36.150  12.276  17.426  1.00  0.00     0.201 C 
HETATM    3  C3          0      36.465  12.250  16.079  1.00  0.00     0.067 C 
HETATM    4  C4          0      37.782  12.324  15.637  1.00  0.00     0.103 C 
HETATM    5  O13         0      38.746  12.442  16.533  1.00  0.00    -0.307 OA
HETATM    6  C14         0      38.504  12.434  17.826  1.00  0.00     0.107 C 
HETATM    7  C15         0      39.497  12.155  18.753  1.00  0.00     0.049 C 
HETATM    8  C16         0      39.190  11.897  20.084  1.00  0.00     0.093 C 
HETATM    9  C18         0      37.989  12.439  20.525  1.00  0.00     0.048 C 
HETATM   10  C19         0      36.991  12.773  19.619  1.00  0.00     0.096 C 
HETATM   11  C21         0      37.198  12.583  18.280  1.00  0.00     0.084 C 
ENDROOT
BRANCH  10  12
HETATM   12  O20         0      35.679  12.891  20.066  1.00  0.00    -0.359 OA
HETATM   13  H20         0      34.999  13.034  19.418  1.00  0.00     0.218 HD
ENDBRANCH  10  12
BRANCH   4  14
HETATM   14  C5          0      38.091  11.707  14.346  1.00  0.00     0.025 C 
HETATM   15  C6          0      38.990  10.659  14.209  1.00  0.00     0.004 C 
HETATM   16  C7          0      38.679   9.659  13.294  1.00  0.00     0.026 C 
HETATM   17  C8          0      37.582   9.761  12.446  1.00  0.00     0.112 C 
HETATM   18  C10         0      37.147  11.059  12.214  1.00  0.00     0.112 C 
HETATM   19  C12         0      37.397  12.022  13.185  1.00  0.00     0.028 C 
BRANCH  17  20
HETATM   20  O9          0      36.879   8.635  12.057  1.00  0.00    -0.357 OA
HETATM   21  H9          0      37.198   7.747  12.171  1.00  0.00     0.218 HD
ENDBRANCH  17  20
BRANCH  18  22
HETATM   22  O11         0      36.182  11.233  11.233  1.00  0.00    -0.357 OA
HETATM   23  H11         0      35.450  10.627  11.237  1.00  0.00     0.218 HD
ENDBRANCH  18  22
ENDBRANCH   4  14
BRANCH   8  24
HETATM   24  O17         0      39.858  10.902  20.807  1.00  0.00    -0.359 OA
HETATM   25  H17         0      39.591   9.992  20.766  1.00  0.00     0.218 HD
ENDBRANCH   8  24
TORSDOF 5
ENDMDL
MODEL 5
REMARK VINA RESULT:      -4.9      4.047      7.823
REMARK  5 active torsions:
REMARK  status: ('A' for Active; 'I' for Inactive)
REMARK    1  A    between atoms: C4_4  and  C5_5 
REMARK    2  A    between atoms: C8_8  and  O9_9 
REMARK    3  A    between atoms: C10_11  and  O11_12 
REMARK    4  A    between atoms: C16_18  and  O17_19 
REMARK    5  A    between atoms: C19_22  and  O20_23 
ROOT
HETATM    1  O1          0      37.283  13.163  13.687  1.00  0.00    -0.286 OA
HETATM    2  C2          0      36.604  12.317  14.331  1.00  0.00     0.201 C 
HETATM    3  C3          0      35.754  11.413  13.717  1.00  0.00     0.067 C 
HETATM    4  C4          0      34.940  10.561  14.455  1.00  0.00     0.103 C 
HETATM    5  O13         0      35.001  10.609  15.774  1.00  0.00    -0.307 OA
HETATM    6  C14         0      35.763  11.475  16.407  1.00  0.00     0.107 C 
HETATM    7  C15         0      35.544  11.806  17.736  1.00  0.00     0.049 C 
HETATM    8  C16         0      36.178  12.894  18.323  1.00  0.00     0.093 C 
HETATM    9  C18         0      37.374  13.269  17.723  1.00  0.00     0.048 C 
HETATM   10  C19         0      37.646  12.915  16.409  1.00  0.00     0.096 C 
HETATM   11  C21         0      36.737  12.175  15.703  1.00  0.00     0.084 C 
ENDROOT
BRANCH  10  12
HETATM   12  O20         0      38.598  13.634  15.693  1.00  0.00    -0.359 OA
HETATM   13  H20         0      39.379  13.177  15.406  1.00  0.00     0.218 HD
ENDBRANCH  10  12
BRANCH   4  14
HETATM   14  C5          0      33.700  10.105  13.823  1.00  0.00     0.025 C 
HETATM   15  C6          0      32.538   9.857  14.540  1.00  0.00     0.004 C 
HETATM   16  C7          0      31.330  10.218  13.953  1.00  0.00     0.026 C 
HETATM   17  C8          0      31.265  10.686  12.645  1.00  0.00     0.112 C 
HETATM   18  C10         0      32.330  10.304  11.839  1.00  0.00     0.112 C 
HETATM   19  C12         0      33.551  10.031  12.444  1.00  0.00     0.028 C 
BRANCH  17  20
HETATM   20  O9          0      30.319  11.625  12.273  1.00  0.00    -0.357 OA
HETATM   21  H9          0      30.325  12.079  11.438  1.00  0.00     0.218 HD
ENDBRANCH  17  20
BRANCH  18  22
HETATM   22  O11         0      32.224  10.582  10.484  1.00  0.00    -0.357 OA
HETATM   23  H11         0      32.508  11.442  10.198  1.00  0.00     0.218 HD
ENDBRANCH  18  22
ENDBRANCH   4  14
BRANCH   8  24
HETATM   24  O17         0      35.505  13.738  19.213  1.00  0.00    -0.359 OA
HETATM   25  H17         0      35.261  14.624  18.973  1.00  0.00     0.218 HD
ENDBRANCH   8  24
TORSDOF 5
ENDMDL
MODEL 6
REMARK VINA RESULT:      -4.8     12.410     13.919
REMARK  5 active torsions:
REMARK  status: ('A' for Active; 'I' for Inactive)
REMARK    1  A    between atoms: C4_4  and  C5_5 
REMARK    2  A    between atoms: C8_8  and  O9_9 
REMARK    3  A    between atoms: C10_11  and  O11_12 
REMARK    4  A    between atoms: C16_18  and  O17_19 
REMARK    5  A    between atoms: C19_22  and  O20_23 
ROOT
HETATM    1  O1          0      25.519  16.596  15.693  1.00  0.00    -0.286 OA
HETATM    2  C2          0      25.256  17.594  16.419  1.00  0.00     0.201 C 
HETATM    3  C3          0      26.016  17.941  17.523  1.00  0.00     0.067 C 
HETATM    4  C4          0      25.645  18.983  18.364  1.00  0.00     0.103 C 
HETATM    5  O13         0      24.550  19.667  18.083  1.00  0.00    -0.307 OA
HETATM    6  C14         0      23.772  19.356  17.069  1.00  0.00     0.107 C 
HETATM    7  C15         0      22.455  19.786  17.000  1.00  0.00     0.049 C 
HETATM    8  C16         0      21.570  19.252  16.070  1.00  0.00     0.093 C 
HETATM    9  C18         0      22.165  18.715  14.935  1.00  0.00     0.048 C 
HETATM   10  C19         0      23.495  18.318  14.956  1.00  0.00     0.096 C 
HETATM   11  C21         0      24.231  18.472  16.099  1.00  0.00     0.084 C 
ENDROOT
BRANCH  10  12
HETATM   12  O20         0      23.948  17.409  14.005  1.00  0.00    -0.359 OA
HETATM   13  H20         0      24.869  17.177  14.015  1.00  0.00     0.218 HD
ENDBRANCH  10  12
BRANCH   4  14
HETATM   14  C5          0      26.095  18.913  19.756  1.00  0.00     0.025 C 
HETATM   15  C6          0      25.747  17.874  20.607  1.00  0.00     0.004 C 
HETATM   16  C7          0      26.716  17.417  21.495  1.00  0.00     0.026 C 
HETATM   17  C8          0      27.943  18.058  21.629  1.00  0.00     0.112 C 
HETATM   18  C10         0      27.948  19.390  21.237  1.00  0.00     0.112 C 
HETATM   19  C12         0      27.024  19.801  20.283  1.00  0.00     0.028 C 
BRANCH  17  20
HETATM   20  O9          0      29.088  17.340  21.926  1.00  0.00    -0.357 OA
HETATM   21  H9          0      29.133  16.674  22.603  1.00  0.00     0.218 HD
ENDBRANCH  17  20
BRANCH  18  22
HETATM   22  O11         0      29.089  20.125  21.524  1.00  0.00    -0.357 OA
HETATM   23  H11         0      29.901  19.640  21.619  1.00  0.00     0.218 HD
ENDBRANCH  18  22
ENDBRANCH   4  14
BRANCH   8  24
HETATM   24  O17         0      20.240  18.976  16.405  1.00  0.00    -0.359 OA
HETATM   25  H17         0      19.523  19.188  15.819  1.00  0.00     0.218 HD
ENDBRANCH   8  24
TORSDOF 5
ENDMDL
MODEL 7
REMARK VINA RESULT:      -4.8      3.991      8.252
REMARK  5 active torsions:
REMARK  status: ('A' for Active; 'I' for Inactive)
REMARK    1  A    between atoms: C4_4  and  C5_5 
REMARK    2  A    between atoms: C8_8  and  O9_9 
REMARK    3  A    between atoms: C10_11  and  O11_12 
REMARK    4  A    between atoms: C16_18  and  O17_19 
REMARK    5  A    between atoms: C19_22  and  O20_23 
ROOT
HETATM    1  O1          0      34.802  10.473  18.090  1.00  0.00    -0.286 OA
HETATM    2  C2          0      34.858  11.056  16.973  1.00  0.00     0.201 C 
HETATM    3  C3          0      34.070  10.688  15.895  1.00  0.00     0.067 C 
HETATM    4  C4          0      34.223  11.278  14.646  1.00  0.00     0.103 C 
HETATM    5  O13         0      35.132  12.226  14.499  1.00  0.00    -0.307 OA
HETATM    6  C14         0      35.931  12.587  15.479  1.00  0.00     0.107 C 
HETATM    7  C15         0      37.118  13.265  15.242  1.00  0.00     0.049 C 
HETATM    8  C16         0      38.074  13.417  16.240  1.00  0.00     0.093 C 
HETATM    9  C18         0      37.582  13.351  17.538  1.00  0.00     0.048 C 
HETATM   10  C19         0      36.374  12.721  17.804  1.00  0.00     0.096 C 
HETATM   11  C21         0      35.653  12.175  16.778  1.00  0.00     0.084 C 
ENDROOT
BRANCH  10  12
HETATM   12  O20         0      36.107  12.280  19.096  1.00  0.00    -0.359 OA
HETATM   13  H20         0      36.480  11.450  19.369  1.00  0.00     0.218 HD
ENDBRANCH  10  12
BRANCH   4  14
HETATM   14  C5          0      33.838  10.484  13.478  1.00  0.00     0.025 C 
HETATM   15  C6          0      32.574   9.934  13.326  1.00  0.00     0.004 C 
HETATM   16  C7          0      32.020   9.934  12.050  1.00  0.00     0.026 C 
HETATM   17  C8          0      32.749  10.342  10.938  1.00  0.00     0.112 C 
HETATM   18  C10         0      34.127  10.259  11.086  1.00  0.00     0.112 C 
HETATM   19  C12         0      34.660  10.347  12.367  1.00  0.00     0.028 C 
BRANCH  17  20
HETATM   20  O9          0      32.128  10.973   9.875  1.00  0.00    -0.357 OA
HETATM   21  H9          0      32.215  11.900   9.687  1.00  0.00     0.218 HD
ENDBRANCH  17  20
BRANCH  18  22
HETATM   22  O11         0      34.895  10.472   9.951  1.00  0.00    -0.357 OA
HETATM   23  H11         0      35.814  10.233  10.001  1.00  0.00     0.218 HD
ENDBRANCH  18  22
ENDBRANCH   4  14
BRANCH   8  24
HETATM   24  O17         0      39.441  13.302  15.964  1.00  0.00    -0.359 OA
HETATM   25  H17         0      39.818  12.492  15.641  1.00  0.00     0.218 HD
ENDBRANCH   8  24
TORSDOF 5
ENDMDL
MODEL 8
REMARK VINA RESULT:      -4.8      1.947      6.708
REMARK  5 active torsions:
REMARK  status: ('A' for Active; 'I' for Inactive)
REMARK    1  A    between atoms: C4_4  and  C5_5 
REMARK    2  A    between atoms: C8_8  and  O9_9 
REMARK    3  A    between atoms: C10_11  and  O11_12 
REMARK    4  A    between atoms: C16_18  and  O17_19 
REMARK    5  A    between atoms: C19_22  and  O20_23 
ROOT
HETATM    1  O1          0      37.249   9.130  21.892  1.00  0.00    -0.286 OA
HETATM    2  C2          0      36.972  10.068  21.095  1.00  0.00     0.201 C 
HETATM    3  C3          0      37.506  10.153  19.821  1.00  0.00     0.067 C 
HETATM    4  C4          0      37.265  11.249  19.001  1.00  0.00     0.103 C 
HETATM    5  O13         0      36.489  12.219  19.451  1.00  0.00    -0.307 OA
HETATM    6  C14         0      35.987  12.206  20.667  1.00  0.00     0.107 C 
HETATM    7  C15         0      35.523  13.362  21.279  1.00  0.00     0.049 C 
HETATM    8  C16         0      35.235  13.393  22.638  1.00  0.00     0.093 C 
HETATM    9  C18         0      34.922  12.161  23.199  1.00  0.00     0.048 C 
HETATM   10  C19         0      35.329  10.983  22.588  1.00  0.00     0.096 C 
HETATM   11  C21         0      36.030  11.035  21.414  1.00  0.00     0.084 C 
ENDROOT
BRANCH  10  12
HETATM   12  O20         0      35.404   9.816  23.342  1.00  0.00    -0.359 OA
HETATM   13  H20         0      36.227   9.616  23.772  1.00  0.00     0.218 HD
ENDBRANCH  10  12
BRANCH   4  14
HETATM   14  C5          0      38.277  11.567  17.992  1.00  0.00     0.025 C 
HETATM   15  C6          0      39.052  10.597  17.374  1.00  0.00     0.004 C 
HETATM   16  C7          0      39.335  10.764  16.022  1.00  0.00     0.026 C 
HETATM   17  C8          0      38.976  11.921  15.339  1.00  0.00     0.112 C 
HETATM   18  C10         0      38.799  13.038  16.144  1.00  0.00     0.112 C 
HETATM   19  C12         0      38.432  12.845  17.470  1.00  0.00     0.028 C 
BRANCH  17  20
HETATM   20  O9          0      38.625  11.874  14.001  1.00  0.00    -0.357 OA
HETATM   21  H9          0      38.862  11.162  13.418  1.00  0.00     0.218 HD
ENDBRANCH  17  20
BRANCH  18  22
HETATM   22  O11         0      38.626  14.255  15.500  1.00  0.00    -0.357 OA
HETATM   23  H11         0      38.940  15.029  15.953  1.00  0.00     0.218 HD
ENDBRANCH  18  22
ENDBRANCH   4  14
BRANCH   8  24
HETATM   24  O17         0      35.564  14.500  23.428  1.00  0.00    -0.359 OA
HETATM   25  H17         0      35.066  15.308  23.387  1.00  0.00     0.218 HD
ENDBRANCH   8  24
TORSDOF 5
ENDMDL
MODEL 9
REMARK VINA RESULT:      -4.6      3.709      7.032
REMARK  5 active torsions:
REMARK  status: ('A' for Active; 'I' for Inactive)
REMARK    1  A    between atoms: C4_4  and  C5_5 
REMARK    2  A    between atoms: C8_8  and  O9_9 
REMARK    3  A    between atoms: C10_11  and  O11_12 
REMARK    4  A    between atoms: C16_18  and  O17_19 
REMARK    5  A    between atoms: C19_22  and  O20_23 
ROOT
HETATM    1  O1          0      36.180   9.752  19.030  1.00  0.00    -0.286 OA
HETATM    2  C2          0      35.729  10.519  18.137  1.00  0.00     0.201 C 
HETATM    3  C3          0      34.570  10.248  17.429  1.00  0.00     0.067 C 
HETATM    4  C4          0      34.151  11.058  16.380  1.00  0.00     0.103 C 
HETATM    5  O13         0      34.872  12.121  16.071  1.00  0.00    -0.307 OA
HETATM    6  C14         0      36.000  12.403  16.685  1.00  0.00     0.107 C 
HETATM    7  C15         0      36.945  13.251  16.126  1.00  0.00     0.049 C 
HETATM    8  C16         0      38.229  13.346  16.649  1.00  0.00     0.093 C 
HETATM    9  C18         0      38.344  12.999  17.990  1.00  0.00     0.048 C 
HETATM   10  C19         0      37.391  12.190  18.593  1.00  0.00     0.096 C 
HETATM   11  C21         0      36.321  11.744  17.867  1.00  0.00     0.084 C 
ENDROOT
BRANCH  10  12
HETATM   12  O20         0      37.720  11.505  19.759  1.00  0.00    -0.359 OA
HETATM   13  H20         0      37.153  11.610  20.513  1.00  0.00     0.218 HD
ENDBRANCH  10  12
BRANCH   4  14
HETATM   14  C5          0      33.333  10.434  15.338  1.00  0.00     0.025 C 
HETATM   15  C6          0      32.004  10.088  15.532  1.00  0.00     0.004 C 
HETATM   16  C7          0      31.126  10.281  14.470  1.00  0.00     0.026 C 
HETATM   17  C8          0      31.576  10.677  13.215  1.00  0.00     0.112 C 
HETATM   18  C10         0      32.908  10.383  12.957  1.00  0.00     0.112 C 
HETATM   19  C12         0      33.781  10.279  14.032  1.00  0.00     0.028 C 
BRANCH  17  20
HETATM   20  O9          0      30.796  11.483  12.404  1.00  0.00    -0.357 OA
HETATM   21  H9          0      29.881  11.677  12.575  1.00  0.00     0.218 HD
ENDBRANCH  17  20
BRANCH  18  22
HETATM   22  O11         0      33.356  10.583  11.659  1.00  0.00    -0.357 OA
HETATM   23  H11         0      34.279  10.429  11.493  1.00  0.00     0.218 HD
ENDBRANCH  18  22
ENDBRANCH   4  14
BRANCH   8  24
HETATM   24  O17         0      39.349  13.448  15.817  1.00  0.00    -0.359 OA
HETATM   25  H17         0      40.075  14.025  16.025  1.00  0.00     0.218 HD
ENDBRANCH   8  24
TORSDOF 5
ENDMDL
