MODEL 1
REMARK VINA RESULT:      -5.4      0.000      0.000
REMARK  5 active torsions:
REMARK  status: ('A' for Active; 'I' for Inactive)
REMARK    1  A    between atoms: C4_4  and  C5_5 
REMARK    2  A    between atoms: C8_8  and  O9_9 
REMARK    3  A    between atoms: C10_11  and  O11_12 
REMARK    4  A    between atoms: C16_18  and  O17_19 
REMARK    5  A    between atoms: C19_22  and  O20_23 
ROOT
HETATM    1  O1          0      11.558  58.284 -21.295  1.00  0.00    -0.286 OA
HETATM    2  C2          0      11.185  58.097 -22.486  1.00  0.00     0.201 C 
HETATM    3  C3          0      12.074  57.985 -23.542  1.00  0.00     0.067 C 
HETATM    4  C4          0      11.634  57.882 -24.856  1.00  0.00     0.103 C 
HETATM    5  O13         0      10.334  57.873 -25.092  1.00  0.00    -0.307 OA
HETATM    6  C14         0       9.448  58.015 -24.130  1.00  0.00     0.107 C 
HETATM    7  C15         0       8.142  58.403 -24.391  1.00  0.00     0.049 C 
HETATM    8  C16         0       7.288  58.796 -23.367  1.00  0.00     0.093 C 
HETATM    9  C18         0       7.602  58.288 -22.113  1.00  0.00     0.048 C 
HETATM   10  C19         0       8.889  57.847 -21.832  1.00  0.00     0.096 C 
HETATM   11  C21         0       9.851  57.897 -22.804  1.00  0.00     0.084 C 
ENDROOT
BRANCH  10  12
HETATM   12  O20         0       9.304  57.759 -20.507  1.00  0.00    -0.359 OA
HETATM   13  H20         0       9.019  58.437 -19.906  1.00  0.00     0.218 HD
ENDBRANCH  10  12
BRANCH   4  14
HETATM   14  C5          0      12.536  58.363 -25.904  1.00  0.00     0.025 C 
HETATM   15  C6          0      13.184  59.588 -25.834  1.00  0.00     0.004 C 
HETATM   16  C7          0      14.492  59.653 -26.304  1.00  0.00     0.026 C 
HETATM   17  C8          0      15.092  58.574 -26.944  1.00  0.00     0.112 C 
HETATM   18  C10         0      14.204  57.672 -27.516  1.00  0.00     0.112 C 
HETATM   19  C12         0      12.929  57.567 -26.972  1.00  0.00     0.028 C 
BRANCH  17  20
HETATM   20  O9          0      16.449  58.339 -26.818  1.00  0.00    -0.357 OA
HETATM   21  H9          0      17.080  59.007 -26.574  1.00  0.00     0.218 HD
ENDBRANCH  17  20
BRANCH  18  22
HETATM   22  O11         0      14.745  56.684 -28.325  1.00  0.00    -0.357 OA
HETATM   23  H11         0      15.029  56.946 -29.193  1.00  0.00     0.218 HD
ENDBRANCH  18  22
ENDBRANCH   4  14
BRANCH   8  24
HETATM   24  O17         0       6.406  59.871 -23.526  1.00  0.00    -0.359 OA
HETATM   25  H17         0       5.947  60.023 -24.343  1.00  0.00     0.218 HD
ENDBRANCH   8  24
TORSDOF 5
ENDMDL
MODEL 2
REMARK VINA RESULT:      -5.2      2.957      5.312
REMARK  5 active torsions:
REMARK  status: ('A' for Active; 'I' for Inactive)
REMARK    1  A    between atoms: C4_4  and  C5_5 
REMARK    2  A    between atoms: C8_8  and  O9_9 
REMARK    3  A    between atoms: C10_11  and  O11_12 
REMARK    4  A    between atoms: C16_18  and  O17_19 
REMARK    5  A    between atoms: C19_22  and  O20_23 
ROOT
HETATM    1  O1          0       5.317  57.735 -25.995  1.00  0.00    -0.286 OA
HETATM    2  C2          0       5.931  58.164 -24.980  1.00  0.00     0.201 C 
HETATM    3  C3          0       7.309  58.292 -24.936  1.00  0.00     0.067 C 
HETATM    4  C4          0       7.969  58.670 -23.771  1.00  0.00     0.103 C 
HETATM    5  O13         0       7.252  58.930 -22.692  1.00  0.00    -0.307 OA
HETATM    6  C14         0       5.945  58.788 -22.670  1.00  0.00     0.107 C 
HETATM    7  C15         0       5.243  58.666 -21.479  1.00  0.00     0.049 C 
HETATM    8  C16         0       3.913  58.265 -21.463  1.00  0.00     0.093 C 
HETATM    9  C18         0       3.211  58.512 -22.637  1.00  0.00     0.048 C 
HETATM   10  C19         0       3.885  58.685 -23.838  1.00  0.00     0.096 C 
HETATM   11  C21         0       5.252  58.629 -23.865  1.00  0.00     0.084 C 
ENDROOT
BRANCH  10  12
HETATM   12  O20         0       3.201  58.495 -25.035  1.00  0.00    -0.359 OA
HETATM   13  H20         0       3.400  59.077 -25.759  1.00  0.00     0.218 HD
ENDBRANCH  10  12
BRANCH   4  14
HETATM   14  C5          0       9.351  58.216 -23.607  1.00  0.00     0.025 C 
HETATM   15  C6          0      10.303  58.326 -24.610  1.00  0.00     0.004 C 
HETATM   16  C7          0      11.600  58.659 -24.234  1.00  0.00     0.026 C 
HETATM   17  C8          0      11.972  58.748 -22.897  1.00  0.00     0.112 C 
HETATM   18  C10         0      11.170  58.026 -22.023  1.00  0.00     0.112 C 
HETATM   19  C12         0       9.851  57.780 -22.387  1.00  0.00     0.028 C 
BRANCH  17  20
HETATM   20  O9          0      12.930  59.657 -22.486  1.00  0.00    -0.357 OA
HETATM   21  H9          0      12.726  60.516 -22.133  1.00  0.00     0.218 HD
ENDBRANCH  17  20
BRANCH  18  22
HETATM   22  O11         0      11.604  57.925 -20.709  1.00  0.00    -0.357 OA
HETATM   23  H11         0      11.629  57.054 -20.330  1.00  0.00     0.218 HD
ENDBRANCH  18  22
ENDBRANCH   4  14
BRANCH   8  24
HETATM   24  O17         0       3.428  57.388 -20.486  1.00  0.00    -0.359 OA
HETATM   25  H17         0       3.990  57.041 -19.804  1.00  0.00     0.218 HD
ENDBRANCH   8  24
TORSDOF 5
ENDMDL
MODEL 3
REMARK VINA RESULT:      -5.1      3.305      6.428
REMARK  5 active torsions:
REMARK  status: ('A' for Active; 'I' for Inactive)
REMARK    1  A    between atoms: C4_4  and  C5_5 
REMARK    2  A    between atoms: C8_8  and  O9_9 
REMARK    3  A    between atoms: C10_11  and  O11_12 
REMARK    4  A    between atoms: C16_18  and  O17_19 
REMARK    5  A    between atoms: C19_22  and  O20_23 
ROOT
HETATM    1  O1          0      12.338  59.368 -23.050  1.00  0.00    -0.286 OA
HETATM    2  C2          0      11.312  58.636 -22.987  1.00  0.00     0.201 C 
HETATM    3  C3          0      10.251  58.753 -23.868  1.00  0.00     0.067 C 
HETATM    4  C4          0       9.090  58.004 -23.713  1.00  0.00     0.103 C 
HETATM    5  O13         0       9.016  57.147 -22.709  1.00  0.00    -0.307 OA
HETATM    6  C14         0       9.980  57.024 -21.823  1.00  0.00     0.107 C 
HETATM    7  C15         0       9.760  56.450 -20.580  1.00  0.00     0.049 C 
HETATM    8  C16         0      10.701  56.551 -19.562  1.00  0.00     0.093 C 
HETATM    9  C18         0      12.007  56.755 -19.988  1.00  0.00     0.048 C 
HETATM   10  C19         0      12.264  57.284 -21.246  1.00  0.00     0.096 C 
HETATM   11  C21         0      11.223  57.592 -22.078  1.00  0.00     0.084 C 
ENDROOT
BRANCH  10  12
HETATM   12  O20         0      13.496  57.881 -21.494  1.00  0.00    -0.359 OA
HETATM   13  H20         0      13.561  58.824 -21.400  1.00  0.00     0.218 HD
ENDBRANCH  10  12
BRANCH   4  14
HETATM   14  C5          0       7.851  58.570 -24.249  1.00  0.00     0.025 C 
HETATM   15  C6          0       7.523  58.524 -25.596  1.00  0.00     0.004 C 
HETATM   16  C7          0       6.190  58.302 -25.928  1.00  0.00     0.026 C 
HETATM   17  C8          0       5.194  58.262 -24.959  1.00  0.00     0.112 C 
HETATM   18  C10         0       5.504  58.929 -23.781  1.00  0.00     0.112 C 
HETATM   19  C12         0       6.842  59.062 -23.430  1.00  0.00     0.028 C 
BRANCH  17  20
HETATM   20  O9          0       4.092  57.439 -25.108  1.00  0.00    -0.357 OA
HETATM   21  H9          0       3.449  57.288 -24.425  1.00  0.00     0.218 HD
ENDBRANCH  17  20
BRANCH  18  22
HETATM   22  O11         0       4.480  59.082 -22.857  1.00  0.00    -0.357 OA
HETATM   23  H11         0       3.962  58.311 -22.658  1.00  0.00     0.218 HD
ENDBRANCH  18  22
ENDBRANCH   4  14
BRANCH   8  24
HETATM   24  O17         0      10.318  56.769 -18.234  1.00  0.00    -0.359 OA
HETATM   25  H17         0       9.893  56.093 -17.719  1.00  0.00     0.218 HD
ENDBRANCH   8  24
TORSDOF 5
ENDMDL
MODEL 4
REMARK VINA RESULT:      -5.0      4.384      7.320
REMARK  5 active torsions:
REMARK  status: ('A' for Active; 'I' for Inactive)
REMARK    1  A    between atoms: C4_4  and  C5_5 
REMARK    2  A    between atoms: C8_8  and  O9_9 
REMARK    3  A    between atoms: C10_11  and  O11_12 
REMARK    4  A    between atoms: C16_18  and  O17_19 
REMARK    5  A    between atoms: C19_22  and  O20_23 
ROOT
HETATM    1  O1          0       4.902  55.517 -18.811  1.00  0.00    -0.286 OA
HETATM    2  C2          0       4.690  56.430 -19.655  1.00  0.00     0.201 C 
HETATM    3  C3          0       5.602  56.769 -20.640  1.00  0.00     0.067 C 
HETATM    4  C4          0       5.387  57.847 -21.492  1.00  0.00     0.103 C 
HETATM    5  O13         0       4.273  58.546 -21.364  1.00  0.00    -0.307 OA
HETATM    6  C14         0       3.392  58.290 -20.422  1.00  0.00     0.107 C 
HETATM    7  C15         0       2.450  59.229 -20.027  1.00  0.00     0.049 C 
HETATM    8  C16         0       1.697  59.054 -18.872  1.00  0.00     0.093 C 
HETATM    9  C18         0       1.544  57.734 -18.466  1.00  0.00     0.048 C 
HETATM   10  C19         0       2.441  56.760 -18.880  1.00  0.00     0.096 C 
HETATM   11  C21         0       3.475  57.098 -19.710  1.00  0.00     0.084 C 
ENDROOT
BRANCH  10  12
HETATM   12  O20         0       2.549  55.579 -18.151  1.00  0.00    -0.359 OA
HETATM   13  H20         0       2.689  55.646 -17.214  1.00  0.00     0.218 HD
ENDBRANCH  10  12
BRANCH   4  14
HETATM   14  C5          0       6.570  58.502 -22.053  1.00  0.00     0.025 C 
HETATM   15  C6          0       7.858  58.238 -21.610  1.00  0.00     0.004 C 
HETATM   16  C7          0       8.871  58.194 -22.563  1.00  0.00     0.026 C 
HETATM   17  C8          0       8.638  58.534 -23.891  1.00  0.00     0.112 C 
HETATM   18  C10         0       7.543  59.363 -24.094  1.00  0.00     0.112 C 
HETATM   19  C12         0       6.505  59.325 -23.170  1.00  0.00     0.028 C 
BRANCH  17  20
HETATM   20  O9          0       9.328  57.908 -24.914  1.00  0.00    -0.357 OA
HETATM   21  H9          0       9.135  58.035 -25.836  1.00  0.00     0.218 HD
ENDBRANCH  17  20
BRANCH  18  22
HETATM   22  O11         0       7.377  59.884 -25.369  1.00  0.00    -0.357 OA
HETATM   23  H11         0       7.312  59.261 -26.084  1.00  0.00     0.218 HD
ENDBRANCH  18  22
ENDBRANCH   4  14
BRANCH   8  24
HETATM   24  O17         0       1.413  60.125 -18.018  1.00  0.00    -0.359 OA
HETATM   25  H17         0       0.700  60.089 -17.392  1.00  0.00     0.218 HD
ENDBRANCH   8  24
TORSDOF 5
ENDMDL
MODEL 5
REMARK VINA RESULT:      -5.0      7.235     10.189
REMARK  5 active torsions:
REMARK  status: ('A' for Active; 'I' for Inactive)
REMARK    1  A    between atoms: C4_4  and  C5_5 
REMARK    2  A    between atoms: C8_8  and  O9_9 
REMARK    3  A    between atoms: C10_11  and  O11_12 
REMARK    4  A    between atoms: C16_18  and  O17_19 
REMARK    5  A    between atoms: C19_22  and  O20_23 
ROOT
HETATM    1  O1          0      10.233  56.377 -17.371  1.00  0.00    -0.286 OA
HETATM    2  C2          0      11.331  55.757 -17.360  1.00  0.00     0.201 C 
HETATM    3  C3          0      11.815  55.106 -16.237  1.00  0.00     0.067 C 
HETATM    4  C4          0      13.074  54.518 -16.222  1.00  0.00     0.103 C 
HETATM    5  O13         0      13.812  54.569 -17.316  1.00  0.00    -0.307 OA
HETATM    6  C14         0      13.417  55.206 -18.397  1.00  0.00     0.107 C 
HETATM    7  C15         0      14.312  55.606 -19.379  1.00  0.00     0.049 C 
HETATM    8  C16         0      13.936  56.491 -20.381  1.00  0.00     0.093 C 
HETATM    9  C18         0      12.575  56.519 -20.659  1.00  0.00     0.048 C 
HETATM   10  C19         0      11.653  56.083 -19.717  1.00  0.00     0.096 C 
HETATM   11  C21         0      12.090  55.606 -18.511  1.00  0.00     0.084 C 
ENDROOT
BRANCH  10  12
HETATM   12  O20         0      10.331  56.507 -19.810  1.00  0.00    -0.359 OA
HETATM   13  H20         0       9.921  56.860 -19.030  1.00  0.00     0.218 HD
ENDBRANCH  10  12
BRANCH   4  14
HETATM   14  C5          0      13.744  54.404 -14.925  1.00  0.00     0.025 C 
HETATM   15  C6          0      14.868  53.616 -14.726  1.00  0.00     0.004 C 
HETATM   16  C7          0      15.858  54.106 -13.880  1.00  0.00     0.026 C 
HETATM   17  C8          0      15.680  55.277 -13.151  1.00  0.00     0.112 C 
HETATM   18  C10         0      14.355  55.625 -12.927  1.00  0.00     0.112 C 
HETATM   19  C12         0      13.396  55.192 -13.835  1.00  0.00     0.028 C 
BRANCH  17  20
HETATM   20  O9          0      16.750  56.110 -12.875  1.00  0.00    -0.357 OA
HETATM   21  H9          0      17.641  55.935 -13.156  1.00  0.00     0.218 HD
ENDBRANCH  17  20
BRANCH  18  22
HETATM   22  O11         0      14.120  56.674 -12.049  1.00  0.00    -0.357 OA
HETATM   23  H11         0      13.458  57.307 -12.303  1.00  0.00     0.218 HD
ENDBRANCH  18  22
ENDBRANCH   4  14
BRANCH   8  24
HETATM   24  O17         0      14.798  57.500 -20.825  1.00  0.00    -0.359 OA
HETATM   25  H17         0      15.043  58.228 -20.267  1.00  0.00     0.218 HD
ENDBRANCH   8  24
TORSDOF 5
ENDMDL
MODEL 6
REMARK VINA RESULT:      -4.8      8.745     11.268
REMARK  5 active torsions:
REMARK  status: ('A' for Active; 'I' for Inactive)
REMARK    1  A    between atoms: C4_4  and  C5_5 
REMARK    2  A    between atoms: C8_8  and  O9_9 
REMARK    3  A    between atoms: C10_11  and  O11_12 
REMARK    4  A    between atoms: C16_18  and  O17_19 
REMARK    5  A    between atoms: C19_22  and  O20_23 
ROOT
HETATM    1  O1          0      12.059  52.429 -12.729  1.00  0.00    -0.286 OA
HETATM    2  C2          0      12.375  53.527 -13.264  1.00  0.00     0.201 C 
HETATM    3  C3          0      11.805  53.979 -14.442  1.00  0.00     0.067 C 
HETATM    4  C4          0      12.245  55.142 -15.064  1.00  0.00     0.103 C 
HETATM    5  O13         0      13.217  55.836 -14.499  1.00  0.00    -0.307 OA
HETATM    6  C14         0      13.818  55.431 -13.401  1.00  0.00     0.107 C 
HETATM    7  C15         0      15.065  55.913 -13.030  1.00  0.00     0.049 C 
HETATM    8  C16         0      15.802  55.305 -12.021  1.00  0.00     0.093 C 
HETATM    9  C18         0      15.052  54.592 -11.094  1.00  0.00     0.048 C 
HETATM   10  C19         0      13.781  54.136 -11.416  1.00  0.00     0.096 C 
HETATM   11  C21         0      13.256  54.404 -12.650  1.00  0.00     0.084 C 
ENDROOT
BRANCH  10  12
HETATM   12  O20         0      13.230  53.087 -10.686  1.00  0.00    -0.359 OA
HETATM   13  H20         0      13.783  52.340 -10.493  1.00  0.00     0.218 HD
ENDBRANCH  10  12
BRANCH   4  14
HETATM   14  C5          0      12.063  55.236 -16.514  1.00  0.00     0.025 C 
HETATM   15  C6          0      10.815  55.204 -17.119  1.00  0.00     0.004 C 
HETATM   16  C7          0      10.609  56.036 -18.214  1.00  0.00     0.026 C 
HETATM   17  C8          0      11.646  56.776 -18.774  1.00  0.00     0.112 C 
HETATM   18  C10         0      12.916  56.273 -18.527  1.00  0.00     0.112 C 
HETATM   19  C12         0      13.114  55.514 -17.379  1.00  0.00     0.028 C 
BRANCH  17  20
HETATM   20  O9          0      11.407  58.016 -19.340  1.00  0.00    -0.357 OA
HETATM   21  H9          0      11.459  58.189 -20.273  1.00  0.00     0.218 HD
ENDBRANCH  17  20
BRANCH  18  22
HETATM   22  O11         0      13.969  56.859 -19.215  1.00  0.00    -0.357 OA
HETATM   23  H11         0      14.672  57.227 -18.692  1.00  0.00     0.218 HD
ENDBRANCH  18  22
ENDBRANCH   4  14
BRANCH   8  24
HETATM   24  O17         0      17.188  55.142 -12.127  1.00  0.00    -0.359 OA
HETATM   25  H17         0      17.586  54.737 -12.889  1.00  0.00     0.218 HD
ENDBRANCH   8  24
TORSDOF 5
ENDMDL
MODEL 7
REMARK VINA RESULT:      -4.8      7.784     10.545
REMARK  5 active torsions:
REMARK  status: ('A' for Active; 'I' for Inactive)
REMARK    1  A    between atoms: C4_4  and  C5_5 
REMARK    2  A    between atoms: C8_8  and  O9_9 
REMARK    3  A    between atoms: C10_11  and  O11_12 
REMARK    4  A    between atoms: C16_18  and  O17_19 
REMARK    5  A    between atoms: C19_22  and  O20_23 
ROOT
HETATM    1  O1          0       9.440  53.873 -15.736  1.00  0.00    -0.286 OA
HETATM    2  C2          0      10.645  54.151 -15.987  1.00  0.00     0.201 C 
HETATM    3  C3          0      11.682  53.843 -15.123  1.00  0.00     0.067 C 
HETATM    4  C4          0      12.987  54.251 -15.377  1.00  0.00     0.103 C 
HETATM    5  O13         0      13.236  54.930 -16.482  1.00  0.00    -0.307 OA
HETATM    6  C14         0      12.283  55.281 -17.318  1.00  0.00     0.107 C 
HETATM    7  C15         0      12.457  56.304 -18.238  1.00  0.00     0.049 C 
HETATM    8  C16         0      11.380  56.838 -18.935  1.00  0.00     0.093 C 
HETATM    9  C18         0      10.289  55.989 -19.071  1.00  0.00     0.048 C 
HETATM   10  C19         0      10.109  54.926 -18.195  1.00  0.00     0.096 C 
HETATM   11  C21         0      11.023  54.703 -17.202  1.00  0.00     0.084 C 
ENDROOT
BRANCH  10  12
HETATM   12  O20         0       8.843  54.367 -18.054  1.00  0.00    -0.359 OA
HETATM   13  H20         0       8.231  54.794 -17.467  1.00  0.00     0.218 HD
ENDBRANCH  10  12
BRANCH   4  14
HETATM   14  C5          0      13.867  54.438 -14.222  1.00  0.00     0.025 C 
HETATM   15  C6          0      15.178  53.986 -14.195  1.00  0.00     0.004 C 
HETATM   16  C7          0      16.125  54.793 -13.571  1.00  0.00     0.026 C 
HETATM   17  C8          0      15.762  55.943 -12.880  1.00  0.00     0.112 C 
HETATM   18  C10         0      14.447  55.960 -12.433  1.00  0.00     0.112 C 
HETATM   19  C12         0      13.504  55.211 -13.127  1.00  0.00     0.028 C 
BRANCH  17  20
HETATM   20  O9          0      16.598  57.045 -12.847  1.00  0.00    -0.357 OA
HETATM   21  H9          0      17.366  57.108 -12.291  1.00  0.00     0.218 HD
ENDBRANCH  17  20
BRANCH  18  22
HETATM   22  O11         0      14.087  56.993 -11.580  1.00  0.00    -0.357 OA
HETATM   23  H11         0      13.173  57.038 -11.321  1.00  0.00     0.218 HD
ENDBRANCH  18  22
ENDBRANCH   4  14
BRANCH   8  24
HETATM   24  O17         0      11.276  58.213 -19.176  1.00  0.00    -0.359 OA
HETATM   25  H17         0      10.509  58.591 -19.588  1.00  0.00     0.218 HD
ENDBRANCH   8  24
TORSDOF 5
ENDMDL
MODEL 8
REMARK VINA RESULT:      -4.8      2.275      7.367
REMARK  5 active torsions:
REMARK  status: ('A' for Active; 'I' for Inactive)
REMARK    1  A    between atoms: C4_4  and  C5_5 
REMARK    2  A    between atoms: C8_8  and  O9_9 
REMARK    3  A    between atoms: C10_11  and  O11_12 
REMARK    4  A    between atoms: C16_18  and  O17_19 
REMARK    5  A    between atoms: C19_22  and  O20_23 
ROOT
HETATM    1  O1          0      11.432  57.097 -20.706  1.00  0.00    -0.286 OA
HETATM    2  C2          0      10.574  57.618 -21.470  1.00  0.00     0.201 C 
HETATM    3  C3          0       9.240  57.749 -21.122  1.00  0.00     0.067 C 
HETATM    4  C4          0       8.297  58.233 -22.021  1.00  0.00     0.103 C 
HETATM    5  O13         0       8.696  58.593 -23.228  1.00  0.00    -0.307 OA
HETATM    6  C14         0       9.943  58.455 -23.622  1.00  0.00     0.107 C 
HETATM    7  C15         0      10.288  58.445 -24.965  1.00  0.00     0.049 C 
HETATM    8  C16         0      11.553  58.047 -25.383  1.00  0.00     0.093 C 
HETATM    9  C18         0      12.555  58.184 -24.430  1.00  0.00     0.048 C 
HETATM   10  C19         0      12.242  58.245 -23.079  1.00  0.00     0.096 C 
HETATM   11  C21         0      10.933  58.185 -22.683  1.00  0.00     0.084 C 
ENDROOT
BRANCH  10  12
HETATM   12  O20         0      13.222  57.944 -22.139  1.00  0.00    -0.359 OA
HETATM   13  H20         0      12.941  57.653 -21.280  1.00  0.00     0.218 HD
ENDBRANCH  10  12
BRANCH   4  14
HETATM   14  C5          0       6.912  57.796 -21.838  1.00  0.00     0.025 C 
HETATM   15  C6          0       6.474  57.140 -20.696  1.00  0.00     0.004 C 
HETATM   16  C7          0       5.208  57.457 -20.216  1.00  0.00     0.026 C 
HETATM   17  C8          0       4.350  58.296 -20.920  1.00  0.00     0.112 C 
HETATM   18  C10         0       4.605  58.375 -22.282  1.00  0.00     0.112 C 
HETATM   19  C12         0       5.900  58.137 -22.727  1.00  0.00     0.028 C 
BRANCH  17  20
HETATM   20  O9          0       3.468  59.128 -20.253  1.00  0.00    -0.357 OA
HETATM   21  H9          0       3.144  58.959 -19.376  1.00  0.00     0.218 HD
ENDBRANCH  17  20
BRANCH  18  22
HETATM   22  O11         0       3.669  59.044 -23.058  1.00  0.00    -0.357 OA
HETATM   23  H11         0       2.791  58.682 -23.081  1.00  0.00     0.218 HD
ENDBRANCH  18  22
ENDBRANCH   4  14
BRANCH   8  24
HETATM   24  O17         0      11.730  57.266 -26.530  1.00  0.00    -0.359 OA
HETATM   25  H17         0      12.106  56.395 -26.488  1.00  0.00     0.218 HD
ENDBRANCH   8  24
TORSDOF 5
ENDMDL
MODEL 9
REMARK VINA RESULT:      -4.8      4.595      9.948
REMARK  5 active torsions:
REMARK  status: ('A' for Active; 'I' for Inactive)
REMARK    1  A    between atoms: C4_4  and  C5_5 
REMARK    2  A    between atoms: C8_8  and  O9_9 
REMARK    3  A    between atoms: C10_11  and  O11_12 
REMARK    4  A    between atoms: C16_18  and  O17_19 
REMARK    5  A    between atoms: C19_22  and  O20_23 
ROOT
HETATM    1  O1          0       6.893  55.845 -20.606  1.00  0.00    -0.286 OA
HETATM    2  C2          0       6.351  56.953 -20.871  1.00  0.00     0.201 C 
HETATM    3  C3          0       5.160  57.363 -20.296  1.00  0.00     0.067 C 
HETATM    4  C4          0       4.533  58.542 -20.682  1.00  0.00     0.103 C 
HETATM    5  O13         0       5.106  59.293 -21.606  1.00  0.00    -0.307 OA
HETATM    6  C14         0       6.216  58.932 -22.210  1.00  0.00     0.107 C 
HETATM    7  C15         0       6.601  59.484 -23.424  1.00  0.00     0.049 C 
HETATM    8  C16         0       7.627  58.927 -24.177  1.00  0.00     0.093 C 
HETATM    9  C18         0       8.550  58.183 -23.452  1.00  0.00     0.048 C 
HETATM   10  C19         0       8.214  57.655 -22.213  1.00  0.00     0.096 C 
HETATM   11  C21         0       6.969  57.883 -21.693  1.00  0.00     0.084 C 
ENDROOT
BRANCH  10  12
HETATM   12  O20         0       8.946  56.585 -21.709  1.00  0.00    -0.359 OA
HETATM   13  H20         0       9.430  56.047 -22.324  1.00  0.00     0.218 HD
ENDBRANCH  10  12
BRANCH   4  14
HETATM   14  C5          0       3.080  58.612 -20.517  1.00  0.00     0.025 C 
HETATM   15  C6          0       2.210  57.722 -21.130  1.00  0.00     0.004 C 
HETATM   16  C7          0       1.099  57.303 -20.404  1.00  0.00     0.026 C 
HETATM   17  C8          0       0.789  57.851 -19.165  1.00  0.00     0.112 C 
HETATM   18  C10         0       1.313  59.118 -18.943  1.00  0.00     0.112 C 
HETATM   19  C12         0       2.473  59.480 -19.618  1.00  0.00     0.028 C 
BRANCH  17  20
HETATM   20  O9          0       0.189  57.085 -18.181  1.00  0.00    -0.357 OA
HETATM   21  H9          0       0.425  56.183 -17.997  1.00  0.00     0.218 HD
ENDBRANCH  17  20
BRANCH  18  22
HETATM   22  O11         0       0.881  59.787 -17.807  1.00  0.00    -0.357 OA
HETATM   23  H11         0       1.461  59.774 -17.054  1.00  0.00     0.218 HD
ENDBRANCH  18  22
ENDBRANCH   4  14
BRANCH   8  24
HETATM   24  O17         0       7.543  58.839 -25.571  1.00  0.00    -0.359 OA
HETATM   25  H17         0       7.607  58.006 -26.023  1.00  0.00     0.218 HD
ENDBRANCH   8  24
TORSDOF 5
ENDMDL
