MODEL 1
REMARK VINA RESULT:      -5.6      0.000      0.000
REMARK  5 active torsions:
REMARK  status: ('A' for Active; 'I' for Inactive)
REMARK    1  A    between atoms: C4_4  and  C5_5 
REMARK    2  A    between atoms: C8_8  and  O9_9 
REMARK    3  A    between atoms: C10_11  and  O11_12 
REMARK    4  A    between atoms: C16_18  and  O17_19 
REMARK    5  A    between atoms: C19_22  and  O20_23 
ROOT
HETATM    1  O1          0      46.221  68.571 -28.675  1.00  0.00    -0.286 OA
HETATM    2  C2          0      45.865  69.104 -27.588  1.00  0.00     0.201 C 
HETATM    3  C3          0      45.546  68.367 -26.460  1.00  0.00     0.067 C 
HETATM    4  C4          0      45.059  68.974 -25.308  1.00  0.00     0.103 C 
HETATM    5  O13         0      44.919  70.287 -25.292  1.00  0.00    -0.307 OA
HETATM    6  C14         0      45.172  71.030 -26.348  1.00  0.00     0.107 C 
HETATM    7  C15         0      44.662  72.314 -26.478  1.00  0.00     0.049 C 
HETATM    8  C16         0      44.715  72.992 -27.689  1.00  0.00     0.093 C 
HETATM    9  C18         0      45.723  72.577 -28.551  1.00  0.00     0.048 C 
HETATM   10  C19         0      46.288  71.316 -28.420  1.00  0.00     0.096 C 
HETATM   11  C21         0      45.861  70.481 -27.424  1.00  0.00     0.084 C 
ENDROOT
BRANCH  10  12
HETATM   12  O20         0      46.951  70.751 -29.505  1.00  0.00    -0.359 OA
HETATM   13  H20         0      46.606  70.919 -30.374  1.00  0.00     0.218 HD
ENDBRANCH  10  12
BRANCH   4  14
HETATM   14  C5          0      44.208  68.164 -24.433  1.00  0.00     0.025 C 
HETATM   15  C6          0      44.708  67.431 -23.366  1.00  0.00     0.004 C 
HETATM   16  C7          0      43.945  67.384 -22.204  1.00  0.00     0.026 C 
HETATM   17  C8          0      42.668  67.932 -22.146  1.00  0.00     0.112 C 
HETATM   18  C10         0      42.035  68.057 -23.376  1.00  0.00     0.112 C 
HETATM   19  C12         0      42.822  68.188 -24.514  1.00  0.00     0.028 C 
BRANCH  17  20
HETATM   20  O9          0      42.189  68.491 -20.975  1.00  0.00    -0.357 OA
HETATM   21  H9          0      41.738  69.326 -20.934  1.00  0.00     0.218 HD
ENDBRANCH  17  20
BRANCH  18  22
HETATM   22  O11         0      40.695  68.419 -23.359  1.00  0.00    -0.357 OA
HETATM   23  H11         0      40.291  68.532 -22.506  1.00  0.00     0.218 HD
ENDBRANCH  18  22
ENDBRANCH   4  14
BRANCH   8  24
HETATM   24  O17         0      43.645  73.777 -28.133  1.00  0.00    -0.359 OA
HETATM   25  H17         0      42.895  73.957 -27.579  1.00  0.00     0.218 HD
ENDBRANCH   8  24
TORSDOF 5
ENDMDL
MODEL 2
REMARK VINA RESULT:      -5.3      1.885      6.444
REMARK  5 active torsions:
REMARK  status: ('A' for Active; 'I' for Inactive)
REMARK    1  A    between atoms: C4_4  and  C5_5 
REMARK    2  A    between atoms: C8_8  and  O9_9 
REMARK    3  A    between atoms: C10_11  and  O11_12 
REMARK    4  A    between atoms: C16_18  and  O17_19 
REMARK    5  A    between atoms: C19_22  and  O20_23 
ROOT
HETATM    1  O1          0      44.589  66.124 -27.062  1.00  0.00    -0.286 OA
HETATM    2  C2          0      44.401  67.193 -26.419  1.00  0.00     0.201 C 
HETATM    3  C3          0      44.510  68.446 -26.997  1.00  0.00     0.067 C 
HETATM    4  C4          0      44.399  69.609 -26.243  1.00  0.00     0.103 C 
HETATM    5  O13         0      44.163  69.505 -24.947  1.00  0.00    -0.307 OA
HETATM    6  C14         0      44.089  68.340 -24.342  1.00  0.00     0.107 C 
HETATM    7  C15         0      44.244  68.219 -22.968  1.00  0.00     0.049 C 
HETATM    8  C16         0      44.418  66.978 -22.368  1.00  0.00     0.093 C 
HETATM    9  C18         0      43.910  65.902 -23.086  1.00  0.00     0.048 C 
HETATM   10  C19         0      43.698  66.005 -24.455  1.00  0.00     0.096 C 
HETATM   11  C21         0      43.976  67.179 -25.099  1.00  0.00     0.084 C 
ENDROOT
BRANCH  10  12
HETATM   12  O20         0      43.617  64.845 -25.219  1.00  0.00    -0.359 OA
HETATM   13  H20         0      42.839  64.308 -25.133  1.00  0.00     0.218 HD
ENDBRANCH  10  12
BRANCH   4  14
HETATM   14  C5          0      45.093  70.798 -26.741  1.00  0.00     0.025 C 
HETATM   15  C6          0      46.326  70.740 -27.374  1.00  0.00     0.004 C 
HETATM   16  C7          0      46.540  71.598 -28.448  1.00  0.00     0.026 C 
HETATM   17  C8          0      45.614  72.575 -28.797  1.00  0.00     0.112 C 
HETATM   18  C10         0      44.766  72.964 -27.768  1.00  0.00     0.112 C 
HETATM   19  C12         0      44.502  72.055 -26.751  1.00  0.00     0.028 C 
BRANCH  17  20
HETATM   20  O9          0      45.440  72.948 -30.118  1.00  0.00    -0.357 OA
HETATM   21  H9          0      45.391  72.330 -30.838  1.00  0.00     0.218 HD
ENDBRANCH  17  20
BRANCH  18  22
HETATM   22  O11         0      43.953  74.063 -28.006  1.00  0.00    -0.357 OA
HETATM   23  H11         0      43.093  74.057 -27.602  1.00  0.00     0.218 HD
ENDBRANCH  18  22
ENDBRANCH   4  14
BRANCH   8  24
HETATM   24  O17         0      45.320  66.798 -21.313  1.00  0.00    -0.359 OA
HETATM   25  H17         0      45.031  66.777 -20.408  1.00  0.00     0.218 HD
ENDBRANCH   8  24
TORSDOF 5
ENDMDL
MODEL 3
REMARK VINA RESULT:      -5.2      3.930      6.395
REMARK  5 active torsions:
REMARK  status: ('A' for Active; 'I' for Inactive)
REMARK    1  A    between atoms: C4_4  and  C5_5 
REMARK    2  A    between atoms: C8_8  and  O9_9 
REMARK    3  A    between atoms: C10_11  and  O11_12 
REMARK    4  A    between atoms: C16_18  and  O17_19 
REMARK    5  A    between atoms: C19_22  and  O20_23 
ROOT
HETATM    1  O1          0      47.227  72.443 -23.833  1.00  0.00    -0.286 OA
HETATM    2  C2          0      47.204  71.530 -24.703  1.00  0.00     0.201 C 
HETATM    3  C3          0      48.027  70.418 -24.646  1.00  0.00     0.067 C 
HETATM    4  C4          0      48.055  69.479 -25.671  1.00  0.00     0.103 C 
HETATM    5  O13         0      47.258  69.650 -26.710  1.00  0.00    -0.307 OA
HETATM    6  C14         0      46.485  70.707 -26.832  1.00  0.00     0.107 C 
HETATM    7  C15         0      45.965  71.095 -28.058  1.00  0.00     0.049 C 
HETATM    8  C16         0      45.367  72.338 -28.228  1.00  0.00     0.093 C 
HETATM    9  C18         0      44.854  72.906 -27.068  1.00  0.00     0.048 C 
HETATM   10  C19         0      45.319  72.507 -25.822  1.00  0.00     0.096 C 
HETATM   11  C21         0      46.278  71.535 -25.734  1.00  0.00     0.084 C 
ENDROOT
BRANCH  10  12
HETATM   12  O20         0      45.141  73.349 -24.728  1.00  0.00    -0.359 OA
HETATM   13  H20         0      44.253  73.514 -24.433  1.00  0.00     0.218 HD
ENDBRANCH  10  12
BRANCH   4  14
HETATM   14  C5          0      49.294  68.719 -25.850  1.00  0.00     0.025 C 
HETATM   15  C6          0      49.557  67.967 -26.985  1.00  0.00     0.004 C 
HETATM   16  C7          0      50.861  67.966 -27.469  1.00  0.00     0.026 C 
HETATM   17  C8          0      51.898  68.580 -26.774  1.00  0.00     0.112 C 
HETATM   18  C10         0      51.673  68.731 -25.413  1.00  0.00     0.112 C 
HETATM   19  C12         0      50.360  68.815 -24.965  1.00  0.00     0.028 C 
BRANCH  17  20
HETATM   20  O9          0      52.952  69.169 -27.449  1.00  0.00    -0.357 OA
HETATM   21  H9          0      53.798  69.348 -27.054  1.00  0.00     0.218 HD
ENDBRANCH  17  20
BRANCH  18  22
HETATM   22  O11         0      52.744  69.163 -24.643  1.00  0.00    -0.357 OA
HETATM   23  H11         0      53.603  68.830 -24.877  1.00  0.00     0.218 HD
ENDBRANCH  18  22
ENDBRANCH   4  14
BRANCH   8  24
HETATM   24  O17         0      45.571  73.093 -29.389  1.00  0.00    -0.359 OA
HETATM   25  H17         0      44.844  73.440 -29.892  1.00  0.00     0.218 HD
ENDBRANCH   8  24
TORSDOF 5
ENDMDL
MODEL 4
REMARK VINA RESULT:      -5.1      3.545      7.321
REMARK  5 active torsions:
REMARK  status: ('A' for Active; 'I' for Inactive)
REMARK    1  A    between atoms: C4_4  and  C5_5 
REMARK    2  A    between atoms: C8_8  and  O9_9 
REMARK    3  A    between atoms: C10_11  and  O11_12 
REMARK    4  A    between atoms: C16_18  and  O17_19 
REMARK    5  A    between atoms: C19_22  and  O20_23 
ROOT
HETATM    1  O1          0      46.361  67.538 -26.867  1.00  0.00    -0.286 OA
HETATM    2  C2          0      46.751  68.590 -27.444  1.00  0.00     0.201 C 
HETATM    3  C3          0      47.896  68.639 -28.221  1.00  0.00     0.067 C 
HETATM    4  C4          0      48.360  69.833 -28.761  1.00  0.00     0.103 C 
HETATM    5  O13         0      47.672  70.939 -28.538  1.00  0.00    -0.307 OA
HETATM    6  C14         0      46.599  70.955 -27.778  1.00  0.00     0.107 C 
HETATM    7  C15         0      46.116  72.129 -27.221  1.00  0.00     0.049 C 
HETATM    8  C16         0      45.147  72.110 -26.224  1.00  0.00     0.093 C 
HETATM    9  C18         0      44.345  70.975 -26.207  1.00  0.00     0.048 C 
HETATM   10  C19         0      44.779  69.796 -26.797  1.00  0.00     0.096 C 
HETATM   11  C21         0      45.999  69.754 -27.414  1.00  0.00     0.084 C 
ENDROOT
BRANCH  10  12
HETATM   12  O20         0      44.201  68.590 -26.411  1.00  0.00    -0.359 OA
HETATM   13  H20         0      43.260  68.566 -26.291  1.00  0.00     0.218 HD
ENDBRANCH  10  12
BRANCH   4  14
HETATM   14  C5          0      49.797  69.937 -29.022  1.00  0.00     0.025 C 
HETATM   15  C6          0      50.327  69.973 -30.304  1.00  0.00     0.004 C 
HETATM   16  C7          0      51.411  70.815 -30.529  1.00  0.00     0.026 C 
HETATM   17  C8          0      52.033  71.497 -29.489  1.00  0.00     0.112 C 
HETATM   18  C10         0      51.859  70.927 -28.235  1.00  0.00     0.112 C 
HETATM   19  C12         0      50.723  70.159 -28.011  1.00  0.00     0.028 C 
BRANCH  17  20
HETATM   20  O9          0      52.587  72.749 -29.694  1.00  0.00    -0.357 OA
HETATM   21  H9          0      52.134  73.462 -30.128  1.00  0.00     0.218 HD
ENDBRANCH  17  20
BRANCH  18  22
HETATM   22  O11         0      52.610  71.456 -27.195  1.00  0.00    -0.357 OA
HETATM   23  H11         0      53.330  70.926 -26.872  1.00  0.00     0.218 HD
ENDBRANCH  18  22
ENDBRANCH   4  14
BRANCH   8  24
HETATM   24  O17         0      45.204  72.988 -25.135  1.00  0.00    -0.359 OA
HETATM   25  H17         0      44.896  72.734 -24.273  1.00  0.00     0.218 HD
ENDBRANCH   8  24
TORSDOF 5
ENDMDL
MODEL 5
REMARK VINA RESULT:      -5.1      6.462      8.303
REMARK  5 active torsions:
REMARK  status: ('A' for Active; 'I' for Inactive)
REMARK    1  A    between atoms: C4_4  and  C5_5 
REMARK    2  A    between atoms: C8_8  and  O9_9 
REMARK    3  A    between atoms: C10_11  and  O11_12 
REMARK    4  A    between atoms: C16_18  and  O17_19 
REMARK    5  A    between atoms: C19_22  and  O20_23 
ROOT
HETATM    1  O1          0      44.412  66.314 -20.383  1.00  0.00    -0.286 OA
HETATM    2  C2          0      43.319  65.719 -20.585  1.00  0.00     0.201 C 
HETATM    3  C3          0      43.209  64.339 -20.608  1.00  0.00     0.067 C 
HETATM    4  C4          0      42.013  63.709 -20.935  1.00  0.00     0.103 C 
HETATM    5  O13         0      40.957  64.454 -21.208  1.00  0.00    -0.307 OA
HETATM    6  C14         0      41.016  65.767 -21.237  1.00  0.00     0.107 C 
HETATM    7  C15         0      40.061  66.528 -21.895  1.00  0.00     0.049 C 
HETATM    8  C16         0      40.260  67.881 -22.141  1.00  0.00     0.093 C 
HETATM    9  C18         0      41.142  68.512 -21.272  1.00  0.00     0.048 C 
HETATM   10  C19         0      42.080  67.775 -20.562  1.00  0.00     0.096 C 
HETATM   11  C21         0      42.126  66.415 -20.705  1.00  0.00     0.084 C 
ENDROOT
BRANCH  10  12
HETATM   12  O20         0      43.207  68.416 -20.056  1.00  0.00    -0.359 OA
HETATM   13  H20         0      43.105  69.300 -19.724  1.00  0.00     0.218 HD
ENDBRANCH  10  12
BRANCH   4  14
HETATM   14  C5          0      42.100  62.368 -21.517  1.00  0.00     0.025 C 
HETATM   15  C6          0      41.129  61.851 -22.362  1.00  0.00     0.004 C 
HETATM   16  C7          0      41.555  61.074 -23.434  1.00  0.00     0.026 C 
HETATM   17  C8          0      42.888  60.709 -23.586  1.00  0.00     0.112 C 
HETATM   18  C10         0      43.630  60.722 -22.412  1.00  0.00     0.112 C 
HETATM   19  C12         0      43.231  61.572 -21.388  1.00  0.00     0.028 C 
BRANCH  17  20
HETATM   20  O9          0      43.444  60.561 -24.845  1.00  0.00    -0.357 OA
HETATM   21  H9          0      42.933  60.493 -25.643  1.00  0.00     0.218 HD
ENDBRANCH  17  20
BRANCH  18  22
HETATM   22  O11         0      44.910  60.188 -22.472  1.00  0.00    -0.357 OA
HETATM   23  H11         0      45.273  59.851 -21.661  1.00  0.00     0.218 HD
ENDBRANCH  18  22
ENDBRANCH   4  14
BRANCH   8  24
HETATM   24  O17         0      39.875  68.467 -23.352  1.00  0.00    -0.359 OA
HETATM   25  H17         0      40.445  69.064 -23.821  1.00  0.00     0.218 HD
ENDBRANCH   8  24
TORSDOF 5
ENDMDL
MODEL 6
REMARK VINA RESULT:      -5.1      2.401      6.779
REMARK  5 active torsions:
REMARK  status: ('A' for Active; 'I' for Inactive)
REMARK    1  A    between atoms: C4_4  and  C5_5 
REMARK    2  A    between atoms: C8_8  and  O9_9 
REMARK    3  A    between atoms: C10_11  and  O11_12 
REMARK    4  A    between atoms: C16_18  and  O17_19 
REMARK    5  A    between atoms: C19_22  and  O20_23 
ROOT
HETATM    1  O1          0      45.304  66.435 -21.409  1.00  0.00    -0.286 OA
HETATM    2  C2          0      44.646  66.964 -22.346  1.00  0.00     0.201 C 
HETATM    3  C3          0      45.247  67.594 -23.423  1.00  0.00     0.067 C 
HETATM    4  C4          0      44.499  68.257 -24.389  1.00  0.00     0.103 C 
HETATM    5  O13         0      43.182  68.264 -24.279  1.00  0.00    -0.307 OA
HETATM    6  C14         0      42.564  67.714 -23.257  1.00  0.00     0.107 C 
HETATM    7  C15         0      41.260  68.051 -22.924  1.00  0.00     0.049 C 
HETATM    8  C16         0      40.702  67.667 -21.711  1.00  0.00     0.093 C 
HETATM    9  C18         0      41.276  66.542 -21.131  1.00  0.00     0.048 C 
HETATM   10  C19         0      42.562  66.149 -21.476  1.00  0.00     0.096 C 
HETATM   11  C21         0      43.264  66.866 -22.407  1.00  0.00     0.084 C 
ENDROOT
BRANCH  10  12
HETATM   12  O20         0      43.277  65.326 -20.611  1.00  0.00    -0.359 OA
HETATM   13  H20         0      44.100  64.966 -20.918  1.00  0.00     0.218 HD
ENDBRANCH  10  12
BRANCH   4  14
HETATM   14  C5          0      45.152  69.355 -25.104  1.00  0.00     0.025 C 
HETATM   15  C6          0      44.636  69.907 -26.268  1.00  0.00     0.004 C 
HETATM   16  C7          0      44.749  71.284 -26.433  1.00  0.00     0.026 C 
HETATM   17  C8          0      45.468  72.070 -25.539  1.00  0.00     0.112 C 
HETATM   18  C10         0      46.435  71.386 -24.814  1.00  0.00     0.112 C 
HETATM   19  C12         0      46.255  70.026 -24.591  1.00  0.00     0.028 C 
BRANCH  17  20
HETATM   20  O9          0      45.080  73.370 -25.267  1.00  0.00    -0.357 OA
HETATM   21  H9          0      45.279  73.821 -24.454  1.00  0.00     0.218 HD
ENDBRANCH  17  20
BRANCH  18  22
HETATM   22  O11         0      47.305  72.150 -24.050  1.00  0.00    -0.357 OA
HETATM   23  H11         0      47.295  73.089 -24.196  1.00  0.00     0.218 HD
ENDBRANCH  18  22
ENDBRANCH   4  14
BRANCH   8  24
HETATM   24  O17         0      39.876  68.530 -20.982  1.00  0.00    -0.359 OA
HETATM   25  H17         0      39.856  68.519 -20.032  1.00  0.00     0.218 HD
ENDBRANCH   8  24
TORSDOF 5
ENDMDL
MODEL 7
REMARK VINA RESULT:      -5.0      4.637      6.855
REMARK  5 active torsions:
REMARK  status: ('A' for Active; 'I' for Inactive)
REMARK    1  A    between atoms: C4_4  and  C5_5 
REMARK    2  A    between atoms: C8_8  and  O9_9 
REMARK    3  A    between atoms: C10_11  and  O11_12 
REMARK    4  A    between atoms: C16_18  and  O17_19 
REMARK    5  A    between atoms: C19_22  and  O20_23 
ROOT
HETATM    1  O1          0      49.386  69.765 -32.611  1.00  0.00    -0.286 OA
HETATM    2  C2          0      49.732  69.846 -31.401  1.00  0.00     0.201 C 
HETATM    3  C3          0      48.893  69.500 -30.355  1.00  0.00     0.067 C 
HETATM    4  C4          0      49.262  69.696 -29.029  1.00  0.00     0.103 C 
HETATM    5  O13         0      50.452  70.208 -28.771  1.00  0.00    -0.307 OA
HETATM    6  C14         0      51.272  70.589 -29.726  1.00  0.00     0.107 C 
HETATM    7  C15         0      52.316  71.470 -29.485  1.00  0.00     0.049 C 
HETATM    8  C16         0      53.014  72.065 -30.529  1.00  0.00     0.093 C 
HETATM    9  C18         0      52.989  71.361 -31.727  1.00  0.00     0.048 C 
HETATM   10  C19         0      51.985  70.437 -31.982  1.00  0.00     0.096 C 
HETATM   11  C21         0      51.022  70.204 -31.039  1.00  0.00     0.084 C 
ENDROOT
BRANCH  10  12
HETATM   12  O20         0      51.712  70.074 -33.297  1.00  0.00    -0.359 OA
HETATM   13  H20         0      50.933  69.557 -33.464  1.00  0.00     0.218 HD
ENDBRANCH  10  12
BRANCH   4  14
HETATM   14  C5          0      48.185  69.889 -28.056  1.00  0.00     0.025 C 
HETATM   15  C6          0      48.351  69.663 -26.697  1.00  0.00     0.004 C 
HETATM   16  C7          0      47.720  70.537 -25.818  1.00  0.00     0.026 C 
HETATM   17  C8          0      46.846  71.521 -26.267  1.00  0.00     0.112 C 
HETATM   18  C10         0      46.272  71.264 -27.506  1.00  0.00     0.112 C 
HETATM   19  C12         0      46.964  70.455 -28.399  1.00  0.00     0.028 C 
BRANCH  17  20
HETATM   20  O9          0      46.747  72.735 -25.611  1.00  0.00    -0.357 OA
HETATM   21  H9          0      47.403  73.064 -25.008  1.00  0.00     0.218 HD
ENDBRANCH  17  20
BRANCH  18  22
HETATM   22  O11         0      45.255  72.114 -27.915  1.00  0.00    -0.357 OA
HETATM   23  H11         0      45.493  73.018 -28.088  1.00  0.00     0.218 HD
ENDBRANCH  18  22
ENDBRANCH   4  14
BRANCH   8  24
HETATM   24  O17         0      53.411  73.405 -30.472  1.00  0.00    -0.359 OA
HETATM   25  H17         0      54.249  73.662 -30.105  1.00  0.00     0.218 HD
ENDBRANCH   8  24
TORSDOF 5
ENDMDL
MODEL 8
REMARK VINA RESULT:      -4.9     11.912     13.129
REMARK  5 active torsions:
REMARK  status: ('A' for Active; 'I' for Inactive)
REMARK    1  A    between atoms: C4_4  and  C5_5 
REMARK    2  A    between atoms: C8_8  and  O9_9 
REMARK    3  A    between atoms: C10_11  and  O11_12 
REMARK    4  A    between atoms: C16_18  and  O17_19 
REMARK    5  A    between atoms: C19_22  and  O20_23 
ROOT
HETATM    1  O1          0      58.219  74.183 -25.298  1.00  0.00    -0.286 OA
HETATM    2  C2          0      57.587  74.199 -24.206  1.00  0.00     0.201 C 
HETATM    3  C3          0      56.421  73.480 -24.003  1.00  0.00     0.067 C 
HETATM    4  C4          0      55.690  73.595 -22.826  1.00  0.00     0.103 C 
HETATM    5  O13         0      56.137  74.399 -21.877  1.00  0.00    -0.307 OA
HETATM    6  C14         0      57.217  75.132 -22.033  1.00  0.00     0.107 C 
HETATM    7  C15         0      57.467  76.243 -21.241  1.00  0.00     0.049 C 
HETATM    8  C16         0      58.464  77.154 -21.570  1.00  0.00     0.093 C 
HETATM    9  C18         0      59.488  76.644 -22.358  1.00  0.00     0.048 C 
HETATM   10  C19         0      59.287  75.506 -23.127  1.00  0.00     0.096 C 
HETATM   11  C21         0      58.075  74.872 -23.096  1.00  0.00     0.084 C 
ENDROOT
BRANCH  10  12
HETATM   12  O20         0      60.125  75.260 -24.210  1.00  0.00    -0.359 OA
HETATM   13  H20         0      61.019  75.575 -24.162  1.00  0.00     0.218 HD
ENDBRANCH  10  12
BRANCH   4  14
HETATM   14  C5          0      54.253  73.325 -22.902  1.00  0.00     0.025 C 
HETATM   15  C6          0      53.319  74.000 -22.129  1.00  0.00     0.004 C 
HETATM   16  C7          0      52.104  74.324 -22.723  1.00  0.00     0.026 C 
HETATM   17  C8          0      51.773  73.877 -23.998  1.00  0.00     0.112 C 
HETATM   18  C10         0      52.452  72.737 -24.407  1.00  0.00     0.112 C 
HETATM   19  C12         0      53.703  72.482 -23.859  1.00  0.00     0.028 C 
BRANCH  17  20
HETATM   20  O9          0      50.990  74.649 -24.839  1.00  0.00    -0.357 OA
HETATM   21  H9          0      50.536  75.436 -24.562  1.00  0.00     0.218 HD
ENDBRANCH  17  20
BRANCH  18  22
HETATM   22  O11         0      52.027  72.142 -25.586  1.00  0.00    -0.357 OA
HETATM   23  H11         0      51.898  71.201 -25.571  1.00  0.00     0.218 HD
ENDBRANCH  18  22
ENDBRANCH   4  14
BRANCH   8  24
HETATM   24  O17         0      58.275  78.531 -21.409  1.00  0.00    -0.359 OA
HETATM   25  H17         0      58.590  79.157 -22.051  1.00  0.00     0.218 HD
ENDBRANCH   8  24
TORSDOF 5
ENDMDL
MODEL 9
REMARK VINA RESULT:      -4.9      3.272      5.217
REMARK  5 active torsions:
REMARK  status: ('A' for Active; 'I' for Inactive)
REMARK    1  A    between atoms: C4_4  and  C5_5 
REMARK    2  A    between atoms: C8_8  and  O9_9 
REMARK    3  A    between atoms: C10_11  and  O11_12 
REMARK    4  A    between atoms: C16_18  and  O17_19 
REMARK    5  A    between atoms: C19_22  and  O20_23 
ROOT
HETATM    1  O1          0      48.557  69.162 -31.154  1.00  0.00    -0.286 OA
HETATM    2  C2          0      47.771  70.087 -30.811  1.00  0.00     0.201 C 
HETATM    3  C3          0      47.441  70.340 -29.490  1.00  0.00     0.067 C 
HETATM    4  C4          0      46.493  71.297 -29.147  1.00  0.00     0.103 C 
HETATM    5  O13         0      45.914  71.992 -30.110  1.00  0.00    -0.307 OA
HETATM    6  C14         0      46.163  71.766 -31.381  1.00  0.00     0.107 C 
HETATM    7  C15         0      45.298  72.185 -32.382  1.00  0.00     0.049 C 
HETATM    8  C16         0      45.429  71.729 -33.688  1.00  0.00     0.093 C 
HETATM    9  C18         0      46.706  71.304 -34.035  1.00  0.00     0.048 C 
HETATM   10  C19         0      47.613  70.921 -33.057  1.00  0.00     0.096 C 
HETATM   11  C21         0      47.253  70.979 -31.738  1.00  0.00     0.084 C 
ENDROOT
BRANCH  10  12
HETATM   12  O20         0      48.687  70.108 -33.405  1.00  0.00    -0.359 OA
HETATM   13  H20         0      49.531  70.291 -33.009  1.00  0.00     0.218 HD
ENDBRANCH  10  12
BRANCH   4  14
HETATM   14  C5          0      45.774  71.106 -27.886  1.00  0.00     0.025 C 
HETATM   15  C6          0      45.660  69.870 -27.266  1.00  0.00     0.004 C 
HETATM   16  C7          0      45.734  69.836 -25.877  1.00  0.00     0.026 C 
HETATM   17  C8          0      45.786  71.002 -25.121  1.00  0.00     0.112 C 
HETATM   18  C10         0      45.267  72.125 -25.751  1.00  0.00     0.112 C 
HETATM   19  C12         0      45.283  72.169 -27.140  1.00  0.00     0.028 C 
BRANCH  17  20
HETATM   20  O9          0      46.494  71.046 -23.933  1.00  0.00    -0.357 OA
HETATM   21  H9          0      47.348  71.453 -23.842  1.00  0.00     0.218 HD
ENDBRANCH  17  20
BRANCH  18  22
HETATM   22  O11         0      45.121  73.268 -24.978  1.00  0.00    -0.357 OA
HETATM   23  H11         0      45.917  73.681 -24.665  1.00  0.00     0.218 HD
ENDBRANCH  18  22
ENDBRANCH   4  14
BRANCH   8  24
HETATM   24  O17         0      44.310  71.408 -34.464  1.00  0.00    -0.359 OA
HETATM   25  H17         0      43.456  71.268 -34.074  1.00  0.00     0.218 HD
ENDBRANCH   8  24
TORSDOF 5
ENDMDL
