MODEL 1
REMARK VINA RESULT:      -3.3      0.000      0.000
REMARK  5 active torsions:
REMARK  status: ('A' for Active; 'I' for Inactive)
REMARK    1  A    between atoms: C4_4  and  C5_5 
REMARK    2  A    between atoms: C8_8  and  O9_9 
REMARK    3  A    between atoms: C10_11  and  O11_12 
REMARK    4  A    between atoms: C16_18  and  O17_19 
REMARK    5  A    between atoms: C19_22  and  O20_23 
ROOT
HETATM    1  O1          0      46.713  10.721 -16.984  1.00  0.00    -0.286 OA
HETATM    2  C2          0      46.445  11.603 -16.123  1.00  0.00     0.201 C 
HETATM    3  C3          0      47.277  12.680 -15.867  1.00  0.00     0.067 C 
HETATM    4  C4          0      47.009  13.580 -14.843  1.00  0.00     0.103 C 
HETATM    5  O13         0      45.921  13.407 -14.114  1.00  0.00    -0.307 OA
HETATM    6  C14         0      45.118  12.381 -14.290  1.00  0.00     0.107 C 
HETATM    7  C15         0      44.227  11.973 -13.308  1.00  0.00     0.049 C 
HETATM    8  C16         0      43.570  10.752 -13.392  1.00  0.00     0.093 C 
HETATM    9  C18         0      43.430  10.248 -14.680  1.00  0.00     0.048 C 
HETATM   10  C19         0      44.275  10.669 -15.698  1.00  0.00     0.096 C 
HETATM   11  C21         0      45.242  11.602 -15.435  1.00  0.00     0.084 C 
ENDROOT
BRANCH  10  12
HETATM   12  O20         0      44.425   9.875 -16.830  1.00  0.00    -0.359 OA
HETATM   13  H20         0      43.647   9.473 -17.198  1.00  0.00     0.218 HD
ENDBRANCH  10  12
BRANCH   4  14
HETATM   14  C5          0      48.151  14.279 -14.250  1.00  0.00     0.025 C 
HETATM   15  C6          0      49.252  14.685 -14.990  1.00  0.00     0.004 C 
HETATM   16  C7          0      49.828  15.910 -14.669  1.00  0.00     0.026 C 
HETATM   17  C8          0      49.411  16.646 -13.565  1.00  0.00     0.112 C 
HETATM   18  C10         0      48.793  15.899 -12.571  1.00  0.00     0.112 C 
HETATM   19  C12         0      48.151  14.720 -12.933  1.00  0.00     0.028 C 
BRANCH  17  20
HETATM   20  O9          0      49.433  18.029 -13.586  1.00  0.00    -0.357 OA
HETATM   21  H9          0      49.788  18.541 -14.303  1.00  0.00     0.218 HD
ENDBRANCH  17  20
BRANCH  18  22
HETATM   22  O11         0      48.529  16.546 -11.372  1.00  0.00    -0.357 OA
HETATM   23  H11         0      49.105  17.263 -11.134  1.00  0.00     0.218 HD
ENDBRANCH  18  22
ENDBRANCH   4  14
BRANCH   8  24
HETATM   24  O17         0      43.375   9.949 -12.263  1.00  0.00    -0.359 OA
HETATM   25  H17         0      43.266  10.324 -11.397  1.00  0.00     0.218 HD
ENDBRANCH   8  24
TORSDOF 5
ENDMDL
MODEL 2
REMARK VINA RESULT:      -3.2      2.446      6.025
REMARK  5 active torsions:
REMARK  status: ('A' for Active; 'I' for Inactive)
REMARK    1  A    between atoms: C4_4  and  C5_5 
REMARK    2  A    between atoms: C8_8  and  O9_9 
REMARK    3  A    between atoms: C10_11  and  O11_12 
REMARK    4  A    between atoms: C16_18  and  O17_19 
REMARK    5  A    between atoms: C19_22  and  O20_23 
ROOT
HETATM    1  O1          0      43.638  14.372 -13.244  1.00  0.00    -0.286 OA
HETATM    2  C2          0      44.797  14.491 -13.726  1.00  0.00     0.201 C 
HETATM    3  C3          0      45.304  13.629 -14.684  1.00  0.00     0.067 C 
HETATM    4  C4          0      46.620  13.720 -15.123  1.00  0.00     0.103 C 
HETATM    5  O13         0      47.392  14.668 -14.622  1.00  0.00    -0.307 OA
HETATM    6  C14         0      46.972  15.489 -13.684  1.00  0.00     0.107 C 
HETATM    7  C15         0      47.857  16.199 -12.885  1.00  0.00     0.049 C 
HETATM    8  C16         0      47.425  16.859 -11.741  1.00  0.00     0.093 C 
HETATM    9  C18         0      46.082  17.214 -11.740  1.00  0.00     0.048 C 
HETATM   10  C19         0      45.177  16.556 -12.562  1.00  0.00     0.096 C 
HETATM   11  C21         0      45.615  15.560 -13.392  1.00  0.00     0.084 C 
ENDROOT
BRANCH  10  12
HETATM   12  O20         0      43.821  16.600 -12.254  1.00  0.00    -0.359 OA
HETATM   13  H20         0      43.571  16.561 -11.338  1.00  0.00     0.218 HD
ENDBRANCH  10  12
BRANCH   4  14
HETATM   14  C5          0      47.244  12.495 -15.626  1.00  0.00     0.025 C 
HETATM   15  C6          0      46.535  11.321 -15.837  1.00  0.00     0.004 C 
HETATM   16  C7          0      46.869  10.558 -16.951  1.00  0.00     0.026 C 
HETATM   17  C8          0      47.958  10.878 -17.754  1.00  0.00     0.112 C 
HETATM   18  C10         0      48.936  11.639 -17.129  1.00  0.00     0.112 C 
HETATM   19  C12         0      48.559  12.459 -16.072  1.00  0.00     0.028 C 
BRANCH  17  20
HETATM   20  O9          0      47.934  10.624 -19.114  1.00  0.00    -0.357 OA
HETATM   21  H9          0      48.190   9.795 -19.501  1.00  0.00     0.218 HD
ENDBRANCH  17  20
BRANCH  18  22
HETATM   22  O11         0      50.125  11.826 -17.820  1.00  0.00    -0.357 OA
HETATM   23  H11         0      50.245  11.317 -18.614  1.00  0.00     0.218 HD
ENDBRANCH  18  22
ENDBRANCH   4  14
BRANCH   8  24
HETATM   24  O17         0      48.187  16.857 -10.567  1.00  0.00    -0.359 OA
HETATM   25  H17         0      48.088  17.534  -9.907  1.00  0.00     0.218 HD
ENDBRANCH   8  24
TORSDOF 5
ENDMDL
MODEL 3
REMARK VINA RESULT:      -3.2      3.497      6.085
REMARK  5 active torsions:
REMARK  status: ('A' for Active; 'I' for Inactive)
REMARK    1  A    between atoms: C4_4  and  C5_5 
REMARK    2  A    between atoms: C8_8  and  O9_9 
REMARK    3  A    between atoms: C10_11  and  O11_12 
REMARK    4  A    between atoms: C16_18  and  O17_19 
REMARK    5  A    between atoms: C19_22  and  O20_23 
ROOT
HETATM    1  O1          0      44.722  15.706 -12.586  1.00  0.00    -0.286 OA
HETATM    2  C2          0      45.846  16.111 -12.181  1.00  0.00     0.201 C 
HETATM    3  C3          0      45.997  17.231 -11.382  1.00  0.00     0.067 C 
HETATM    4  C4          0      47.253  17.715 -11.034  1.00  0.00     0.103 C 
HETATM    5  O13         0      48.323  17.070 -11.466  1.00  0.00    -0.307 OA
HETATM    6  C14         0      48.236  16.024 -12.258  1.00  0.00     0.107 C 
HETATM    7  C15         0      49.311  15.596 -13.024  1.00  0.00     0.049 C 
HETATM    8  C16         0      49.147  14.661 -14.039  1.00  0.00     0.093 C 
HETATM    9  C18         0      48.047  13.824 -13.894  1.00  0.00     0.048 C 
HETATM   10  C19         0      46.975  14.200 -13.097  1.00  0.00     0.096 C 
HETATM   11  C21         0      47.007  15.398 -12.436  1.00  0.00     0.084 C 
ENDROOT
BRANCH  10  12
HETATM   12  O20         0      45.736  13.598 -13.295  1.00  0.00    -0.359 OA
HETATM   13  H20         0      45.674  12.658 -13.173  1.00  0.00     0.218 HD
ENDBRANCH  10  12
BRANCH   4  14
HETATM   14  C5          0      47.363  19.145 -10.740  1.00  0.00     0.025 C 
HETATM   15  C6          0      48.327  19.666  -9.890  1.00  0.00     0.004 C 
HETATM   16  C7          0      48.902  20.884 -10.237  1.00  0.00     0.026 C 
HETATM   17  C8          0      48.440  21.627 -11.319  1.00  0.00     0.112 C 
HETATM   18  C10         0      47.129  21.358 -11.689  1.00  0.00     0.112 C 
HETATM   19  C12         0      46.607  20.102 -11.406  1.00  0.00     0.028 C 
BRANCH  17  20
HETATM   20  O9          0      49.308  22.400 -12.070  1.00  0.00    -0.357 OA
HETATM   21  H9          0      49.467  22.265 -12.997  1.00  0.00     0.218 HD
ENDBRANCH  17  20
BRANCH  18  22
HETATM   22  O11         0      46.559  22.198 -12.635  1.00  0.00    -0.357 OA
HETATM   23  H11         0      47.149  22.763 -13.121  1.00  0.00     0.218 HD
ENDBRANCH  18  22
ENDBRANCH   4  14
BRANCH   8  24
HETATM   24  O17         0      49.825  14.781 -15.257  1.00  0.00    -0.359 OA
HETATM   25  H17         0      49.360  14.838 -16.084  1.00  0.00     0.218 HD
ENDBRANCH   8  24
TORSDOF 5
ENDMDL
MODEL 4
REMARK VINA RESULT:      -3.1      2.312      3.866
REMARK  5 active torsions:
REMARK  status: ('A' for Active; 'I' for Inactive)
REMARK    1  A    between atoms: C4_4  and  C5_5 
REMARK    2  A    between atoms: C8_8  and  O9_9 
REMARK    3  A    between atoms: C10_11  and  O11_12 
REMARK    4  A    between atoms: C16_18  and  O17_19 
REMARK    5  A    between atoms: C19_22  and  O20_23 
ROOT
HETATM    1  O1          0      45.328  12.428 -15.912  1.00  0.00    -0.286 OA
HETATM    2  C2          0      46.513  12.660 -15.546  1.00  0.00     0.201 C 
HETATM    3  C3          0      46.836  13.654 -14.637  1.00  0.00     0.067 C 
HETATM    4  C4          0      48.157  13.957 -14.330  1.00  0.00     0.103 C 
HETATM    5  O13         0      49.120  13.262 -14.909  1.00  0.00    -0.307 OA
HETATM    6  C14         0      48.869  12.334 -15.807  1.00  0.00     0.107 C 
HETATM    7  C15         0      49.841  11.892 -16.693  1.00  0.00     0.049 C 
HETATM    8  C16         0      49.512  11.109 -17.793  1.00  0.00     0.093 C 
HETATM    9  C18         0      48.336  10.380 -17.664  1.00  0.00     0.048 C 
HETATM   10  C19         0      47.362  10.768 -16.754  1.00  0.00     0.096 C 
HETATM   11  C21         0      47.569  11.866 -15.965  1.00  0.00     0.084 C 
ENDROOT
BRANCH  10  12
HETATM   12  O20         0      46.054  10.326 -16.928  1.00  0.00    -0.359 OA
HETATM   13  H20         0      45.789  10.052 -17.798  1.00  0.00     0.218 HD
ENDBRANCH  10  12
BRANCH   4  14
HETATM   14  C5          0      48.445  15.322 -13.883  1.00  0.00     0.025 C 
HETATM   15  C6          0      48.315  16.427 -14.712  1.00  0.00     0.004 C 
HETATM   16  C7          0      47.814  17.598 -14.152  1.00  0.00     0.026 C 
HETATM   17  C8          0      47.576  17.709 -12.786  1.00  0.00     0.112 C 
HETATM   18  C10         0      48.306  16.830 -11.997  1.00  0.00     0.112 C 
HETATM   19  C12         0      48.722  15.628 -12.557  1.00  0.00     0.028 C 
BRANCH  17  20
HETATM   20  O9          0      46.538  18.489 -12.309  1.00  0.00    -0.357 OA
HETATM   21  H9          0      45.839  18.829 -12.856  1.00  0.00     0.218 HD
ENDBRANCH  17  20
BRANCH  18  22
HETATM   22  O11         0      48.250  17.024 -10.624  1.00  0.00    -0.357 OA
HETATM   23  H11         0      48.281  16.247 -10.078  1.00  0.00     0.218 HD
ENDBRANCH  18  22
ENDBRANCH   4  14
BRANCH   8  24
HETATM   24  O17         0      50.125  11.304 -19.036  1.00  0.00    -0.359 OA
HETATM   25  H17         0      49.970  12.087 -19.551  1.00  0.00     0.218 HD
ENDBRANCH   8  24
TORSDOF 5
ENDMDL
MODEL 5
REMARK VINA RESULT:      -3.1      5.673     10.327
REMARK  5 active torsions:
REMARK  status: ('A' for Active; 'I' for Inactive)
REMARK    1  A    between atoms: C4_4  and  C5_5 
REMARK    2  A    between atoms: C8_8  and  O9_9 
REMARK    3  A    between atoms: C10_11  and  O11_12 
REMARK    4  A    between atoms: C16_18  and  O17_19 
REMARK    5  A    between atoms: C19_22  and  O20_23 
ROOT
HETATM    1  O1          0      49.771  22.347 -13.148  1.00  0.00    -0.286 OA
HETATM    2  C2          0      49.149  21.878 -12.156  1.00  0.00     0.201 C 
HETATM    3  C3          0      49.118  20.526 -11.860  1.00  0.00     0.067 C 
HETATM    4  C4          0      48.341  20.024 -10.822  1.00  0.00     0.103 C 
HETATM    5  O13         0      47.634  20.869 -10.093  1.00  0.00    -0.307 OA
HETATM    6  C14         0      47.598  22.157 -10.354  1.00  0.00     0.107 C 
HETATM    7  C15         0      46.583  22.972  -9.875  1.00  0.00     0.049 C 
HETATM    8  C16         0      46.407  24.264 -10.356  1.00  0.00     0.093 C 
HETATM    9  C18         0      47.547  24.852 -10.891  1.00  0.00     0.048 C 
HETATM   10  C19         0      48.602  24.067 -11.337  1.00  0.00     0.096 C 
HETATM   11  C21         0      48.526  22.705 -11.234  1.00  0.00     0.084 C 
ENDROOT
BRANCH  10  12
HETATM   12  O20         0      49.513  24.603 -12.242  1.00  0.00    -0.359 OA
HETATM   13  H20         0      50.401  24.754 -11.943  1.00  0.00     0.218 HD
ENDBRANCH  10  12
BRANCH   4  14
HETATM   14  C5          0      47.883  18.638 -10.938  1.00  0.00     0.025 C 
HETATM   15  C6          0      47.332  17.937  -9.875  1.00  0.00     0.004 C 
HETATM   16  C7          0      46.269  17.082 -10.149  1.00  0.00     0.026 C 
HETATM   17  C8          0      45.854  16.828 -11.452  1.00  0.00     0.112 C 
HETATM   18  C10         0      46.823  17.048 -12.422  1.00  0.00     0.112 C 
HETATM   19  C12         0      47.826  17.972 -12.155  1.00  0.00     0.028 C 
BRANCH  17  20
HETATM   20  O9          0      44.522  16.586 -11.737  1.00  0.00    -0.357 OA
HETATM   21  H9          0      43.879  17.271 -11.876  1.00  0.00     0.218 HD
ENDBRANCH  17  20
BRANCH  18  22
HETATM   22  O11         0      46.525  16.633 -13.712  1.00  0.00    -0.357 OA
HETATM   23  H11         0      46.389  15.702 -13.843  1.00  0.00     0.218 HD
ENDBRANCH  18  22
ENDBRANCH   4  14
BRANCH   8  24
HETATM   24  O17         0      45.130  24.787 -10.590  1.00  0.00    -0.359 OA
HETATM   25  H17         0      44.606  25.156  -9.889  1.00  0.00     0.218 HD
ENDBRANCH   8  24
TORSDOF 5
ENDMDL
MODEL 6
REMARK VINA RESULT:      -3.0      2.638      6.384
REMARK  5 active torsions:
REMARK  status: ('A' for Active; 'I' for Inactive)
REMARK    1  A    between atoms: C4_4  and  C5_5 
REMARK    2  A    between atoms: C8_8  and  O9_9 
REMARK    3  A    between atoms: C10_11  and  O11_12 
REMARK    4  A    between atoms: C16_18  and  O17_19 
REMARK    5  A    between atoms: C19_22  and  O20_23 
ROOT
HETATM    1  O1          0      49.324  18.412 -13.857  1.00  0.00    -0.286 OA
HETATM    2  C2          0      48.912  17.242 -13.626  1.00  0.00     0.201 C 
HETATM    3  C3          0      49.246  16.158 -14.419  1.00  0.00     0.067 C 
HETATM    4  C4          0      48.696  14.900 -14.203  1.00  0.00     0.103 C 
HETATM    5  O13         0      47.850  14.741 -13.200  1.00  0.00    -0.307 OA
HETATM    6  C14         0      47.470  15.744 -12.440  1.00  0.00     0.107 C 
HETATM    7  C15         0      46.316  15.683 -11.672  1.00  0.00     0.049 C 
HETATM    8  C16         0      45.785  16.821 -11.076  1.00  0.00     0.093 C 
HETATM    9  C18         0      46.698  17.842 -10.841  1.00  0.00     0.048 C 
HETATM   10  C19         0      47.884  17.906 -11.560  1.00  0.00     0.096 C 
HETATM   11  C21         0      48.164  16.948 -12.496  1.00  0.00     0.084 C 
ENDROOT
BRANCH  10  12
HETATM   12  O20         0      48.564  19.117 -11.643  1.00  0.00    -0.359 OA
HETATM   13  H20         0      48.167  19.818 -12.146  1.00  0.00     0.218 HD
ENDBRANCH  10  12
BRANCH   4  14
HETATM   14  C5          0      48.598  14.004 -15.357  1.00  0.00     0.025 C 
HETATM   15  C6          0      49.709  13.537 -16.043  1.00  0.00     0.004 C 
HETATM   16  C7          0      49.681  12.222 -16.496  1.00  0.00     0.026 C 
HETATM   17  C8          0      48.537  11.439 -16.391  1.00  0.00     0.112 C 
HETATM   18  C10         0      47.351  12.154 -16.294  1.00  0.00     0.112 C 
HETATM   19  C12         0      47.395  13.436 -15.758  1.00  0.00     0.028 C 
BRANCH  17  20
HETATM   20  O9          0      48.629  10.073 -16.188  1.00  0.00    -0.357 OA
HETATM   21  H9          0      48.194   9.428 -16.734  1.00  0.00     0.218 HD
ENDBRANCH  17  20
BRANCH  18  22
HETATM   22  O11         0      46.171  11.430 -16.377  1.00  0.00    -0.357 OA
HETATM   23  H11         0      45.991  10.994 -17.202  1.00  0.00     0.218 HD
ENDBRANCH  18  22
ENDBRANCH   4  14
BRANCH   8  24
HETATM   24  O17         0      44.404  17.045 -11.035  1.00  0.00    -0.359 OA
HETATM   25  H17         0      43.968  17.592 -11.677  1.00  0.00     0.218 HD
ENDBRANCH   8  24
TORSDOF 5
ENDMDL
MODEL 7
REMARK VINA RESULT:      -3.0      2.794      4.688
REMARK  5 active torsions:
REMARK  status: ('A' for Active; 'I' for Inactive)
REMARK    1  A    between atoms: C4_4  and  C5_5 
REMARK    2  A    between atoms: C8_8  and  O9_9 
REMARK    3  A    between atoms: C10_11  and  O11_12 
REMARK    4  A    between atoms: C16_18  and  O17_19 
REMARK    5  A    between atoms: C19_22  and  O20_23 
ROOT
HETATM    1  O1          0      44.420  14.651 -14.851  1.00  0.00    -0.286 OA
HETATM    2  C2          0      45.367  14.796 -14.030  1.00  0.00     0.201 C 
HETATM    3  C3          0      45.310  15.681 -12.968  1.00  0.00     0.067 C 
HETATM    4  C4          0      46.406  15.897 -12.139  1.00  0.00     0.103 C 
HETATM    5  O13         0      47.517  15.220 -12.368  1.00  0.00    -0.307 OA
HETATM    6  C14         0      47.637  14.395 -13.386  1.00  0.00     0.107 C 
HETATM    7  C15         0      48.877  14.000 -13.864  1.00  0.00     0.049 C 
HETATM    8  C16         0      49.005  13.343 -15.082  1.00  0.00     0.093 C 
HETATM    9  C18         0      47.871  12.656 -15.500  1.00  0.00     0.048 C 
HETATM   10  C19         0      46.619  12.995 -15.005  1.00  0.00     0.096 C 
HETATM   11  C21         0      46.502  14.001 -14.086  1.00  0.00     0.084 C 
ENDROOT
BRANCH  10  12
HETATM   12  O20         0      45.483  12.629 -15.721  1.00  0.00    -0.359 OA
HETATM   13  H20         0      45.052  13.295 -16.242  1.00  0.00     0.218 HD
ENDBRANCH  10  12
BRANCH   4  14
HETATM   14  C5          0      46.497  17.198 -11.474  1.00  0.00     0.025 C 
HETATM   15  C6          0      47.126  17.374 -10.250  1.00  0.00     0.004 C 
HETATM   16  C7          0      47.866  18.538 -10.067  1.00  0.00     0.026 C 
HETATM   17  C8          0      47.872  19.555 -11.016  1.00  0.00     0.112 C 
HETATM   18  C10         0      46.766  19.572 -11.854  1.00  0.00     0.112 C 
HETATM   19  C12         0      46.095  18.377 -12.087  1.00  0.00     0.028 C 
BRANCH  17  20
HETATM   20  O9          0      49.000  20.331 -11.216  1.00  0.00    -0.357 OA
HETATM   21  H9          0      49.493  20.346 -12.028  1.00  0.00     0.218 HD
ENDBRANCH  17  20
BRANCH  18  22
HETATM   22  O11         0      46.628  20.671 -12.690  1.00  0.00    -0.357 OA
HETATM   23  H11         0      45.758  21.047 -12.767  1.00  0.00     0.218 HD
ENDBRANCH  18  22
ENDBRANCH   4  14
BRANCH   8  24
HETATM   24  O17         0      50.056  13.631 -15.960  1.00  0.00    -0.359 OA
HETATM   25  H17         0      49.965  13.525 -16.899  1.00  0.00     0.218 HD
ENDBRANCH   8  24
TORSDOF 5
ENDMDL
MODEL 8
REMARK VINA RESULT:      -3.0      2.981      7.684
REMARK  5 active torsions:
REMARK  status: ('A' for Active; 'I' for Inactive)
REMARK    1  A    between atoms: C4_4  and  C5_5 
REMARK    2  A    between atoms: C8_8  and  O9_9 
REMARK    3  A    between atoms: C10_11  and  O11_12 
REMARK    4  A    between atoms: C16_18  and  O17_19 
REMARK    5  A    between atoms: C19_22  and  O20_23 
ROOT
HETATM    1  O1          0      49.071  19.465 -14.200  1.00  0.00    -0.286 OA
HETATM    2  C2          0      48.771  18.687 -13.254  1.00  0.00     0.201 C 
HETATM    3  C3          0      48.853  17.309 -13.361  1.00  0.00     0.067 C 
HETATM    4  C4          0      48.419  16.472 -12.339  1.00  0.00     0.103 C 
HETATM    5  O13         0      47.938  17.015 -11.235  1.00  0.00    -0.307 OA
HETATM    6  C14         0      47.804  18.316 -11.096  1.00  0.00     0.107 C 
HETATM    7  C15         0      46.956  18.866 -10.146  1.00  0.00     0.049 C 
HETATM    8  C16         0      46.624  20.216 -10.171  1.00  0.00     0.093 C 
HETATM    9  C18         0      47.549  21.036 -10.805  1.00  0.00     0.048 C 
HETATM   10  C19         0      48.444  20.510 -11.726  1.00  0.00     0.096 C 
HETATM   11  C21         0      48.427  19.169 -12.000  1.00  0.00     0.084 C 
ENDROOT
BRANCH  10  12
HETATM   12  O20         0      49.044  21.357 -12.653  1.00  0.00    -0.359 OA
HETATM   13  H20         0      48.807  21.258 -13.566  1.00  0.00     0.218 HD
ENDBRANCH  10  12
BRANCH   4  14
HETATM   14  C5          0      47.973  15.129 -12.717  1.00  0.00     0.025 C 
HETATM   15  C6          0      46.713  14.640 -12.404  1.00  0.00     0.004 C 
HETATM   16  C7          0      46.073  13.851 -13.355  1.00  0.00     0.026 C 
HETATM   17  C8          0      46.716  13.449 -14.521  1.00  0.00     0.112 C 
HETATM   18  C10         0      48.103  13.441 -14.445  1.00  0.00     0.112 C 
HETATM   19  C12         0      48.720  14.302 -13.545  1.00  0.00     0.028 C 
BRANCH  17  20
HETATM   20  O9          0      46.010  13.286 -15.699  1.00  0.00    -0.357 OA
HETATM   21  H9          0      45.362  13.905 -16.017  1.00  0.00     0.218 HD
ENDBRANCH  17  20
BRANCH  18  22
HETATM   22  O11         0      48.787  12.872 -15.509  1.00  0.00    -0.357 OA
HETATM   23  H11         0      49.410  13.425 -15.965  1.00  0.00     0.218 HD
ENDBRANCH  18  22
ENDBRANCH   4  14
BRANCH   8  24
HETATM   24  O17         0      45.325  20.652  -9.888  1.00  0.00    -0.359 OA
HETATM   25  H17         0      44.784  21.068 -10.549  1.00  0.00     0.218 HD
ENDBRANCH   8  24
TORSDOF 5
ENDMDL
MODEL 9
REMARK VINA RESULT:      -2.7      2.676      3.421
REMARK  5 active torsions:
REMARK  status: ('A' for Active; 'I' for Inactive)
REMARK    1  A    between atoms: C4_4  and  C5_5 
REMARK    2  A    between atoms: C8_8  and  O9_9 
REMARK    3  A    between atoms: C10_11  and  O11_12 
REMARK    4  A    between atoms: C16_18  and  O17_19 
REMARK    5  A    between atoms: C19_22  and  O20_23 
ROOT
HETATM    1  O1          0      42.359  15.231 -16.262  1.00  0.00    -0.286 OA
HETATM    2  C2          0      43.010  14.955 -15.217  1.00  0.00     0.201 C 
HETATM    3  C3          0      43.791  15.884 -14.552  1.00  0.00     0.067 C 
HETATM    4  C4          0      44.578  15.528 -13.463  1.00  0.00     0.103 C 
HETATM    5  O13         0      44.557  14.274 -13.047  1.00  0.00    -0.307 OA
HETATM    6  C14         0      43.863  13.344 -13.666  1.00  0.00     0.107 C 
HETATM    7  C15         0      44.138  11.995 -13.500  1.00  0.00     0.049 C 
HETATM    8  C16         0      43.581  11.036 -14.338  1.00  0.00     0.093 C 
HETATM    9  C18         0      42.390  11.411 -14.948  1.00  0.00     0.048 C 
HETATM   10  C19         0      42.061  12.753 -15.089  1.00  0.00     0.096 C 
HETATM   11  C21         0      42.908  13.713 -14.607  1.00  0.00     0.084 C 
ENDROOT
BRANCH  10  12
HETATM   12  O20         0      41.130  13.128 -16.053  1.00  0.00    -0.359 OA
HETATM   13  H20         0      41.278  13.939 -16.522  1.00  0.00     0.218 HD
ENDBRANCH  10  12
BRANCH   4  14
HETATM   14  C5          0      45.772  16.336 -13.207  1.00  0.00     0.025 C 
HETATM   15  C6          0      45.711  17.662 -12.803  1.00  0.00     0.004 C 
HETATM   16  C7          0      46.645  18.094 -11.866  1.00  0.00     0.026 C 
HETATM   17  C8          0      47.688  17.276 -11.446  1.00  0.00     0.112 C 
HETATM   18  C10         0      48.028  16.266 -12.336  1.00  0.00     0.112 C 
HETATM   19  C12         0      47.051  15.794 -13.204  1.00  0.00     0.028 C 
BRANCH  17  20
HETATM   20  O9          0      48.176  17.358 -10.154  1.00  0.00    -0.357 OA
HETATM   21  H9          0      47.628  17.502  -9.391  1.00  0.00     0.218 HD
ENDBRANCH  17  20
BRANCH  18  22
HETATM   22  O11         0      49.179  15.543 -12.056  1.00  0.00    -0.357 OA
HETATM   23  H11         0      49.080  14.604 -11.945  1.00  0.00     0.218 HD
ENDBRANCH  18  22
ENDBRANCH   4  14
BRANCH   8  24
HETATM   24  O17         0      44.324   9.939 -14.787  1.00  0.00    -0.359 OA
HETATM   25  H17         0      45.032  10.039 -15.413  1.00  0.00     0.218 HD
ENDBRANCH   8  24
TORSDOF 5
ENDMDL
