MODEL 1
REMARK VINA RESULT:      -6.2      0.000      0.000
REMARK  5 active torsions:
REMARK  status: ('A' for Active; 'I' for Inactive)
REMARK    1  A    between atoms: C4_4  and  C5_5 
REMARK    2  A    between atoms: C8_8  and  O9_9 
REMARK    3  A    between atoms: C10_11  and  O11_12 
REMARK    4  A    between atoms: C16_18  and  O17_19 
REMARK    5  A    between atoms: C19_22  and  O20_23 
ROOT
HETATM    1  O1          0       3.446  66.678  -1.245  1.00  0.00    -0.286 OA
HETATM    2  C2          0       4.514  67.161  -1.712  1.00  0.00     0.201 C 
HETATM    3  C3          0       5.005  66.826  -2.963  1.00  0.00     0.067 C 
HETATM    4  C4          0       6.235  67.293  -3.412  1.00  0.00     0.103 C 
HETATM    5  O13         0       6.936  68.092  -2.627  1.00  0.00    -0.307 OA
HETATM    6  C14         0       6.533  68.411  -1.416  1.00  0.00     0.107 C 
HETATM    7  C15         0       7.411  68.898  -0.459  1.00  0.00     0.049 C 
HETATM    8  C16         0       7.043  68.991   0.878  1.00  0.00     0.093 C 
HETATM    9  C18         0       5.675  69.093   1.104  1.00  0.00     0.048 C 
HETATM   10  C19         0       4.768  68.658   0.147  1.00  0.00     0.096 C 
HETATM   11  C21         0       5.223  68.141  -1.035  1.00  0.00     0.084 C 
ENDROOT
BRANCH  10  12
HETATM   12  O20         0       3.465  68.357   0.532  1.00  0.00    -0.359 OA
HETATM   13  H20         0       2.985  67.719   0.018  1.00  0.00     0.218 HD
ENDBRANCH  10  12
BRANCH   4  14
HETATM   14  C5          0       6.944  66.473  -4.396  1.00  0.00     0.025 C 
HETATM   15  C6          0       6.777  66.629  -5.764  1.00  0.00     0.004 C 
HETATM   16  C7          0       7.903  66.492  -6.571  1.00  0.00     0.026 C 
HETATM   17  C8          0       9.126  66.082  -6.052  1.00  0.00     0.112 C 
HETATM   18  C10         0       9.041  65.363  -4.867  1.00  0.00     0.112 C 
HETATM   19  C12         0       7.947  65.582  -4.038  1.00  0.00     0.028 C 
BRANCH  17  20
HETATM   20  O9          0      10.314  66.551  -6.582  1.00  0.00    -0.357 OA
HETATM   21  H9          0      10.365  67.120  -7.342  1.00  0.00     0.218 HD
ENDBRANCH  17  20
BRANCH  18  22
HETATM   22  O11         0      10.208  64.769  -4.407  1.00  0.00    -0.357 OA
HETATM   23  H11         0      10.914  65.351  -4.148  1.00  0.00     0.218 HD
ENDBRANCH  18  22
ENDBRANCH   4  14
BRANCH   8  24
HETATM   24  O17         0       7.936  68.668   1.905  1.00  0.00    -0.359 OA
HETATM   25  H17         0       8.268  69.326   2.504  1.00  0.00     0.218 HD
ENDBRANCH   8  24
TORSDOF 5
ENDMDL
MODEL 2
REMARK VINA RESULT:      -6.1      3.668      6.682
REMARK  5 active torsions:
REMARK  status: ('A' for Active; 'I' for Inactive)
REMARK    1  A    between atoms: C4_4  and  C5_5 
REMARK    2  A    between atoms: C8_8  and  O9_9 
REMARK    3  A    between atoms: C10_11  and  O11_12 
REMARK    4  A    between atoms: C16_18  and  O17_19 
REMARK    5  A    between atoms: C19_22  and  O20_23 
ROOT
HETATM    1  O1          0       7.068  66.455  -2.884  1.00  0.00    -0.286 OA
HETATM    2  C2          0       6.883  66.757  -4.095  1.00  0.00     0.201 C 
HETATM    3  C3          0       5.673  67.227  -4.575  1.00  0.00     0.067 C 
HETATM    4  C4          0       5.466  67.455  -5.931  1.00  0.00     0.103 C 
HETATM    5  O13         0       6.461  67.234  -6.771  1.00  0.00    -0.307 OA
HETATM    6  C14         0       7.618  66.753  -6.373  1.00  0.00     0.107 C 
HETATM    7  C15         0       8.503  66.152  -7.257  1.00  0.00     0.049 C 
HETATM    8  C16         0       9.596  65.424  -6.801  1.00  0.00     0.093 C 
HETATM    9  C18         0      10.042  65.769  -5.530  1.00  0.00     0.048 C 
HETATM   10  C19         0       9.197  66.413  -4.637  1.00  0.00     0.096 C 
HETATM   11  C21         0       7.920  66.727  -5.016  1.00  0.00     0.084 C 
ENDROOT
BRANCH  10  12
HETATM   12  O20         0       9.480  66.361  -3.275  1.00  0.00    -0.359 OA
HETATM   13  H20         0       8.798  66.626  -2.669  1.00  0.00     0.218 HD
ENDBRANCH  10  12
BRANCH   4  14
HETATM   14  C5          0       4.091  67.354  -6.425  1.00  0.00     0.025 C 
HETATM   15  C6          0       2.988  67.684  -5.650  1.00  0.00     0.004 C 
HETATM   16  C7          0       1.927  68.327  -6.280  1.00  0.00     0.026 C 
HETATM   17  C8          0       1.904  68.518  -7.657  1.00  0.00     0.112 C 
HETATM   18  C10         0       2.692  67.631  -8.379  1.00  0.00     0.112 C 
HETATM   19  C12         0       3.796  67.067  -7.751  1.00  0.00     0.028 C 
BRANCH  17  20
HETATM   20  O9          0       1.307  69.638  -8.208  1.00  0.00    -0.357 OA
HETATM   21  H9          0       0.518  69.610  -8.737  1.00  0.00     0.218 HD
ENDBRANCH  17  20
BRANCH  18  22
HETATM   22  O11         0       2.560  67.653  -9.760  1.00  0.00    -0.357 OA
HETATM   23  H11         0       2.433  68.503 -10.166  1.00  0.00     0.218 HD
ENDBRANCH  18  22
ENDBRANCH   4  14
BRANCH   8  24
HETATM   24  O17         0       9.988  64.232  -7.420  1.00  0.00    -0.359 OA
HETATM   25  H17         0       9.352  63.594  -7.721  1.00  0.00     0.218 HD
ENDBRANCH   8  24
TORSDOF 5
ENDMDL
MODEL 3
REMARK VINA RESULT:      -6.1      1.635      6.962
REMARK  5 active torsions:
REMARK  status: ('A' for Active; 'I' for Inactive)
REMARK    1  A    between atoms: C4_4  and  C5_5 
REMARK    2  A    between atoms: C8_8  and  O9_9 
REMARK    3  A    between atoms: C10_11  and  O11_12 
REMARK    4  A    between atoms: C16_18  and  O17_19 
REMARK    5  A    between atoms: C19_22  and  O20_23 
ROOT
HETATM    1  O1          0      10.227  65.955  -4.008  1.00  0.00    -0.286 OA
HETATM    2  C2          0       9.064  66.442  -3.962  1.00  0.00     0.201 C 
HETATM    3  C3          0       8.557  67.071  -2.838  1.00  0.00     0.067 C 
HETATM    4  C4          0       7.238  67.507  -2.779  1.00  0.00     0.103 C 
HETATM    5  O13         0       6.463  67.329  -3.834  1.00  0.00    -0.307 OA
HETATM    6  C14         0       6.883  66.704  -4.912  1.00  0.00     0.107 C 
HETATM    7  C15         0       5.999  66.167  -5.836  1.00  0.00     0.049 C 
HETATM    8  C16         0       6.433  65.296  -6.829  1.00  0.00     0.093 C 
HETATM    9  C18         0       7.774  65.418  -7.171  1.00  0.00     0.048 C 
HETATM   10  C19         0       8.678  65.994  -6.289  1.00  0.00     0.096 C 
HETATM   11  C21         0       8.242  66.460  -5.079  1.00  0.00     0.084 C 
ENDROOT
BRANCH  10  12
HETATM   12  O20         0      10.035  65.726  -6.434  1.00  0.00    -0.359 OA
HETATM   13  H20         0      10.648  66.433  -6.274  1.00  0.00     0.218 HD
ENDBRANCH  10  12
BRANCH   4  14
HETATM   14  C5          0       6.619  67.589  -1.455  1.00  0.00     0.025 C 
HETATM   15  C6          0       7.243  68.183  -0.368  1.00  0.00     0.004 C 
HETATM   16  C7          0       6.452  68.925   0.503  1.00  0.00     0.026 C 
HETATM   17  C8          0       5.067  68.966   0.376  1.00  0.00     0.112 C 
HETATM   18  C10         0       4.515  67.885  -0.297  1.00  0.00     0.112 C 
HETATM   19  C12         0       5.302  67.213  -1.225  1.00  0.00     0.028 C 
BRANCH  17  20
HETATM   20  O9          0       4.358  70.105   0.714  1.00  0.00    -0.357 OA
HETATM   21  H9          0       4.751  70.874   1.109  1.00  0.00     0.218 HD
ENDBRANCH  17  20
BRANCH  18  22
HETATM   22  O11         0       3.131  67.779  -0.288  1.00  0.00    -0.357 OA
HETATM   23  H11         0       2.733  67.422   0.498  1.00  0.00     0.218 HD
ENDBRANCH  18  22
ENDBRANCH   4  14
BRANCH   8  24
HETATM   24  O17         0       5.678  64.177  -7.198  1.00  0.00    -0.359 OA
HETATM   25  H17         0       5.834  63.322  -6.817  1.00  0.00     0.218 HD
ENDBRANCH   8  24
TORSDOF 5
ENDMDL
MODEL 4
REMARK VINA RESULT:      -5.5      5.140      7.367
REMARK  5 active torsions:
REMARK  status: ('A' for Active; 'I' for Inactive)
REMARK    1  A    between atoms: C4_4  and  C5_5 
REMARK    2  A    between atoms: C8_8  and  O9_9 
REMARK    3  A    between atoms: C10_11  and  O11_12 
REMARK    4  A    between atoms: C16_18  and  O17_19 
REMARK    5  A    between atoms: C19_22  and  O20_23 
ROOT
HETATM    1  O1          0       9.064  61.407  -2.522  1.00  0.00    -0.286 OA
HETATM    2  C2          0       9.553  62.298  -3.269  1.00  0.00     0.201 C 
HETATM    3  C3          0       8.775  63.228  -3.936  1.00  0.00     0.067 C 
HETATM    4  C4          0       9.330  64.134  -4.833  1.00  0.00     0.103 C 
HETATM    5  O13         0      10.636  64.111  -5.031  1.00  0.00    -0.307 OA
HETATM    6  C14         0      11.416  63.225  -4.452  1.00  0.00     0.107 C 
HETATM    7  C15         0      12.681  62.934  -4.940  1.00  0.00     0.049 C 
HETATM    8  C16         0      13.393  61.830  -4.488  1.00  0.00     0.093 C 
HETATM    9  C18         0      13.042  61.385  -3.219  1.00  0.00     0.048 C 
HETATM   10  C19         0      11.802  61.697  -2.680  1.00  0.00     0.096 C 
HETATM   11  C21         0      10.924  62.464  -3.397  1.00  0.00     0.084 C 
ENDROOT
BRANCH  10  12
HETATM   12  O20         0      11.293  60.917  -1.646  1.00  0.00    -0.359 OA
HETATM   13  H20         0      11.274  59.976  -1.766  1.00  0.00     0.218 HD
ENDBRANCH  10  12
BRANCH   4  14
HETATM   14  C5          0       8.464  64.634  -5.902  1.00  0.00     0.025 C 
HETATM   15  C6          0       7.414  63.895  -6.427  1.00  0.00     0.004 C 
HETATM   16  C7          0       6.246  64.577  -6.756  1.00  0.00     0.026 C 
HETATM   17  C8          0       6.169  65.964  -6.692  1.00  0.00     0.112 C 
HETATM   18  C10         0       7.392  66.617  -6.781  1.00  0.00     0.112 C 
HETATM   19  C12         0       8.533  65.942  -6.366  1.00  0.00     0.028 C 
BRANCH  17  20
HETATM   20  O9          0       4.985  66.594  -6.354  1.00  0.00    -0.357 OA
HETATM   21  H9          0       4.727  67.447  -6.684  1.00  0.00     0.218 HD
ENDBRANCH  17  20
BRANCH  18  22
HETATM   22  O11         0       7.358  67.998  -6.912  1.00  0.00    -0.357 OA
HETATM   23  H11         0       7.801  68.369  -7.667  1.00  0.00     0.218 HD
ENDBRANCH  18  22
ENDBRANCH   4  14
BRANCH   8  24
HETATM   24  O17         0      14.146  61.039  -5.363  1.00  0.00    -0.359 OA
HETATM   25  H17         0      14.213  60.098  -5.253  1.00  0.00     0.218 HD
ENDBRANCH   8  24
TORSDOF 5
ENDMDL
MODEL 5
REMARK VINA RESULT:      -5.4      2.047      2.382
REMARK  5 active torsions:
REMARK  status: ('A' for Active; 'I' for Inactive)
REMARK    1  A    between atoms: C4_4  and  C5_5 
REMARK    2  A    between atoms: C8_8  and  O9_9 
REMARK    3  A    between atoms: C10_11  and  O11_12 
REMARK    4  A    between atoms: C16_18  and  O17_19 
REMARK    5  A    between atoms: C19_22  and  O20_23 
ROOT
HETATM    1  O1          0       3.599  66.799  -2.262  1.00  0.00    -0.286 OA
HETATM    2  C2          0       4.694  67.066  -2.830  1.00  0.00     0.201 C 
HETATM    3  C3          0       4.911  66.850  -4.180  1.00  0.00     0.067 C 
HETATM    4  C4          0       6.158  67.056  -4.759  1.00  0.00     0.103 C 
HETATM    5  O13         0       7.148  67.488  -3.997  1.00  0.00    -0.307 OA
HETATM    6  C14         0       7.005  67.673  -2.703  1.00  0.00     0.107 C 
HETATM    7  C15         0       8.097  67.731  -1.848  1.00  0.00     0.049 C 
HETATM    8  C16         0       7.937  67.670  -0.469  1.00  0.00     0.093 C 
HETATM    9  C18         0       6.693  68.079  -0.004  1.00  0.00     0.048 C 
HETATM   10  C19         0       5.589  68.078  -0.845  1.00  0.00     0.096 C 
HETATM   11  C21         0       5.730  67.687  -2.149  1.00  0.00     0.084 C 
ENDROOT
BRANCH  10  12
HETATM   12  O20         0       4.313  68.060  -0.293  1.00  0.00    -0.359 OA
HETATM   13  H20         0       4.191  67.605   0.532  1.00  0.00     0.218 HD
ENDBRANCH  10  12
BRANCH   4  14
HETATM   14  C5          0       6.479  66.276  -5.955  1.00  0.00     0.025 C 
HETATM   15  C6          0       7.646  66.459  -6.683  1.00  0.00     0.004 C 
HETATM   16  C7          0       8.265  65.327  -7.203  1.00  0.00     0.026 C 
HETATM   17  C8          0       7.677  64.070  -7.119  1.00  0.00     0.112 C 
HETATM   18  C10         0       6.297  64.085  -6.965  1.00  0.00     0.112 C 
HETATM   19  C12         0       5.711  65.193  -6.365  1.00  0.00     0.028 C 
BRANCH  17  20
HETATM   20  O9          0       8.453  62.932  -6.988  1.00  0.00    -0.357 OA
HETATM   21  H9          0       8.190  62.075  -7.303  1.00  0.00     0.218 HD
ENDBRANCH  17  20
BRANCH  18  22
HETATM   22  O11         0       5.641  62.866  -7.066  1.00  0.00    -0.357 OA
HETATM   23  H11         0       4.838  62.768  -6.567  1.00  0.00     0.218 HD
ENDBRANCH  18  22
ENDBRANCH   4  14
BRANCH   8  24
HETATM   24  O17         0       8.821  66.943   0.336  1.00  0.00    -0.359 OA
HETATM   25  H17         0       9.335  67.361   1.017  1.00  0.00     0.218 HD
ENDBRANCH   8  24
TORSDOF 5
ENDMDL
MODEL 6
REMARK VINA RESULT:      -5.4      4.156      6.009
REMARK  5 active torsions:
REMARK  status: ('A' for Active; 'I' for Inactive)
REMARK    1  A    between atoms: C4_4  and  C5_5 
REMARK    2  A    between atoms: C8_8  and  O9_9 
REMARK    3  A    between atoms: C10_11  and  O11_12 
REMARK    4  A    between atoms: C16_18  and  O17_19 
REMARK    5  A    between atoms: C19_22  and  O20_23 
ROOT
HETATM    1  O1          0       5.106  68.373  -4.914  1.00  0.00    -0.286 OA
HETATM    2  C2          0       5.017  67.252  -5.485  1.00  0.00     0.201 C 
HETATM    3  C3          0       5.923  66.227  -5.273  1.00  0.00     0.067 C 
HETATM    4  C4          0       5.860  65.039  -5.992  1.00  0.00     0.103 C 
HETATM    5  O13         0       4.897  64.886  -6.884  1.00  0.00    -0.307 OA
HETATM    6  C14         0       4.034  65.842  -7.151  1.00  0.00     0.107 C 
HETATM    7  C15         0       3.296  65.853  -8.326  1.00  0.00     0.049 C 
HETATM    8  C16         0       2.584  66.979  -8.720  1.00  0.00     0.093 C 
HETATM    9  C18         0       2.219  67.834  -7.687  1.00  0.00     0.048 C 
HETATM   10  C19         0       2.906  67.816  -6.480  1.00  0.00     0.096 C 
HETATM   11  C21         0       3.940  66.938  -6.301  1.00  0.00     0.084 C 
ENDROOT
BRANCH  10  12
HETATM   12  O20         0       2.839  68.925  -5.643  1.00  0.00    -0.359 OA
HETATM   13  H20         0       1.997  69.147  -5.264  1.00  0.00     0.218 HD
ENDBRANCH  10  12
BRANCH   4  14
HETATM   14  C5          0       7.111  64.298  -6.172  1.00  0.00     0.025 C 
HETATM   15  C6          0       7.509  63.782  -7.397  1.00  0.00     0.004 C 
HETATM   16  C7          0       8.863  63.843  -7.712  1.00  0.00     0.026 C 
HETATM   17  C8          0       9.808  64.279  -6.789  1.00  0.00     0.112 C 
HETATM   18  C10         0       9.419  64.160  -5.461  1.00  0.00     0.112 C 
HETATM   19  C12         0       8.061  64.187  -5.166  1.00  0.00     0.028 C 
BRANCH  17  20
HETATM   20  O9          0      10.938  64.963  -7.201  1.00  0.00    -0.357 OA
HETATM   21  H9          0      11.511  64.666  -7.898  1.00  0.00     0.218 HD
ENDBRANCH  17  20
BRANCH  18  22
HETATM   22  O11         0      10.389  64.401  -4.499  1.00  0.00    -0.357 OA
HETATM   23  H11         0      10.182  65.044  -3.831  1.00  0.00     0.218 HD
ENDBRANCH  18  22
ENDBRANCH   4  14
BRANCH   8  24
HETATM   24  O17         0       2.540  67.383 -10.059  1.00  0.00    -0.359 OA
HETATM   25  H17         0       1.718  67.562 -10.499  1.00  0.00     0.218 HD
ENDBRANCH   8  24
TORSDOF 5
ENDMDL
MODEL 7
REMARK VINA RESULT:      -5.3      2.668      4.321
REMARK  5 active torsions:
REMARK  status: ('A' for Active; 'I' for Inactive)
REMARK    1  A    between atoms: C4_4  and  C5_5 
REMARK    2  A    between atoms: C8_8  and  O9_9 
REMARK    3  A    between atoms: C10_11  and  O11_12 
REMARK    4  A    between atoms: C16_18  and  O17_19 
REMARK    5  A    between atoms: C19_22  and  O20_23 
ROOT
HETATM    1  O1          0       5.918  65.641  -5.464  1.00  0.00    -0.286 OA
HETATM    2  C2          0       7.059  65.795  -4.948  1.00  0.00     0.201 C 
HETATM    3  C3          0       8.183  65.125  -5.399  1.00  0.00     0.067 C 
HETATM    4  C4          0       9.407  65.235  -4.748  1.00  0.00     0.103 C 
HETATM    5  O13         0       9.494  66.017  -3.687  1.00  0.00    -0.307 OA
HETATM    6  C14         0       8.449  66.646  -3.195  1.00  0.00     0.107 C 
HETATM    7  C15         0       8.431  67.128  -1.894  1.00  0.00     0.049 C 
HETATM    8  C16         0       7.251  67.559  -1.300  1.00  0.00     0.093 C 
HETATM    9  C18         0       6.266  67.977  -2.187  1.00  0.00     0.048 C 
HETATM   10  C19         0       6.280  67.552  -3.508  1.00  0.00     0.096 C 
HETATM   11  C21         0       7.281  66.728  -3.946  1.00  0.00     0.084 C 
ENDROOT
BRANCH  10  12
HETATM   12  O20         0       5.105  67.602  -4.252  1.00  0.00    -0.359 OA
HETATM   13  H20         0       5.056  67.080  -5.043  1.00  0.00     0.218 HD
ENDBRANCH  10  12
BRANCH   4  14
HETATM   14  C5          0      10.335  64.109  -4.872  1.00  0.00     0.025 C 
HETATM   15  C6          0      11.700  64.276  -5.054  1.00  0.00     0.004 C 
HETATM   16  C7          0      12.551  63.392  -4.399  1.00  0.00     0.026 C 
HETATM   17  C8          0      12.063  62.297  -3.694  1.00  0.00     0.112 C 
HETATM   18  C10         0      10.803  61.868  -4.090  1.00  0.00     0.112 C 
HETATM   19  C12         0       9.941  62.794  -4.665  1.00  0.00     0.028 C 
BRANCH  17  20
HETATM   20  O9          0      12.711  61.837  -2.561  1.00  0.00    -0.357 OA
HETATM   21  H9          0      13.198  61.022  -2.527  1.00  0.00     0.218 HD
ENDBRANCH  17  20
BRANCH  18  22
HETATM   22  O11         0      10.350  60.671  -3.554  1.00  0.00    -0.357 OA
HETATM   23  H11         0       9.551  60.310  -3.921  1.00  0.00     0.218 HD
ENDBRANCH  18  22
ENDBRANCH   4  14
BRANCH   8  24
HETATM   24  O17         0       6.962  67.274   0.039  1.00  0.00    -0.359 OA
HETATM   25  H17         0       7.278  67.824   0.746  1.00  0.00     0.218 HD
ENDBRANCH   8  24
TORSDOF 5
ENDMDL
MODEL 8
REMARK VINA RESULT:      -5.3      4.408      7.466
REMARK  5 active torsions:
REMARK  status: ('A' for Active; 'I' for Inactive)
REMARK    1  A    between atoms: C4_4  and  C5_5 
REMARK    2  A    between atoms: C8_8  and  O9_9 
REMARK    3  A    between atoms: C10_11  and  O11_12 
REMARK    4  A    between atoms: C16_18  and  O17_19 
REMARK    5  A    between atoms: C19_22  and  O20_23 
ROOT
HETATM    1  O1          0       7.940  61.621  -6.443  1.00  0.00    -0.286 OA
HETATM    2  C2          0       8.584  62.338  -5.630  1.00  0.00     0.201 C 
HETATM    3  C3          0       8.924  61.911  -4.357  1.00  0.00     0.067 C 
HETATM    4  C4          0       9.543  62.758  -3.445  1.00  0.00     0.103 C 
HETATM    5  O13         0       9.830  63.992  -3.819  1.00  0.00    -0.307 OA
HETATM    6  C14         0       9.496  64.460  -5.002  1.00  0.00     0.107 C 
HETATM    7  C15         0       9.425  65.822  -5.255  1.00  0.00     0.049 C 
HETATM    8  C16         0       8.832  66.310  -6.414  1.00  0.00     0.093 C 
HETATM    9  C18         0       8.817  65.424  -7.484  1.00  0.00     0.048 C 
HETATM   10  C19         0       8.933  64.057  -7.269  1.00  0.00     0.096 C 
HETATM   11  C21         0       9.081  63.580  -5.995  1.00  0.00     0.084 C 
ENDROOT
BRANCH  10  12
HETATM   12  O20         0       8.489  63.174  -8.249  1.00  0.00    -0.359 OA
HETATM   13  H20         0       8.186  62.318  -7.972  1.00  0.00     0.218 HD
ENDBRANCH  10  12
BRANCH   4  14
HETATM   14  C5          0       9.328  62.483  -2.023  1.00  0.00     0.025 C 
HETATM   15  C6          0      10.157  61.652  -1.284  1.00  0.00     0.004 C 
HETATM   16  C7          0      10.437  62.022   0.028  1.00  0.00     0.026 C 
HETATM   17  C8          0       9.809  63.107   0.629  1.00  0.00     0.112 C 
HETATM   18  C10         0       8.590  63.457   0.065  1.00  0.00     0.112 C 
HETATM   19  C12         0       8.370  63.152  -1.273  1.00  0.00     0.028 C 
BRANCH  17  20
HETATM   20  O9          0      10.472  63.879   1.567  1.00  0.00    -0.357 OA
HETATM   21  H9          0      10.686  64.796   1.440  1.00  0.00     0.218 HD
ENDBRANCH  17  20
BRANCH  18  22
HETATM   22  O11         0       7.835  64.406   0.739  1.00  0.00    -0.357 OA
HETATM   23  H11         0       7.313  64.997   0.208  1.00  0.00     0.218 HD
ENDBRANCH  18  22
ENDBRANCH   4  14
BRANCH   8  24
HETATM   24  O17         0       8.026  67.454  -6.394  1.00  0.00    -0.359 OA
HETATM   25  H17         0       8.393  68.325  -6.491  1.00  0.00     0.218 HD
ENDBRANCH   8  24
TORSDOF 5
ENDMDL
MODEL 9
REMARK VINA RESULT:      -5.3      7.332      9.901
REMARK  5 active torsions:
REMARK  status: ('A' for Active; 'I' for Inactive)
REMARK    1  A    between atoms: C4_4  and  C5_5 
REMARK    2  A    between atoms: C8_8  and  O9_9 
REMARK    3  A    between atoms: C10_11  and  O11_12 
REMARK    4  A    between atoms: C16_18  and  O17_19 
REMARK    5  A    between atoms: C19_22  and  O20_23 
ROOT
HETATM    1  O1          0      11.787  61.815   5.674  1.00  0.00    -0.286 OA
HETATM    2  C2          0      11.196  62.917   5.838  1.00  0.00     0.201 C 
HETATM    3  C3          0      10.086  63.292   5.100  1.00  0.00     0.067 C 
HETATM    4  C4          0       9.517  64.554   5.230  1.00  0.00     0.103 C 
HETATM    5  O13         0      10.044  65.402   6.096  1.00  0.00    -0.307 OA
HETATM    6  C14         0      11.120  65.110   6.794  1.00  0.00     0.107 C 
HETATM    7  C15         0      11.898  66.096   7.384  1.00  0.00     0.049 C 
HETATM    8  C16         0      13.157  65.811   7.897  1.00  0.00     0.093 C 
HETATM    9  C18         0      13.354  64.486   8.267  1.00  0.00     0.048 C 
HETATM   10  C19         0      12.562  63.479   7.731  1.00  0.00     0.096 C 
HETATM   11  C21         0      11.569  63.795   6.845  1.00  0.00     0.084 C 
ENDROOT
BRANCH  10  12
HETATM   12  O20         0      13.024  62.166   7.753  1.00  0.00    -0.359 OA
HETATM   13  H20         0      13.747  61.958   8.332  1.00  0.00     0.218 HD
ENDBRANCH  10  12
BRANCH   4  14
HETATM   14  C5          0       8.797  65.086   4.072  1.00  0.00     0.025 C 
HETATM   15  C6          0       7.518  65.617   4.161  1.00  0.00     0.004 C 
HETATM   16  C7          0       7.229  66.733   3.382  1.00  0.00     0.026 C 
HETATM   17  C8          0       8.133  67.225   2.447  1.00  0.00     0.112 C 
HETATM   18  C10         0       9.061  66.297   1.994  1.00  0.00     0.112 C 
HETATM   19  C12         0       9.395  65.236   2.828  1.00  0.00     0.028 C 
BRANCH  17  20
HETATM   20  O9          0       8.208  68.580   2.178  1.00  0.00    -0.357 OA
HETATM   21  H9          0       7.458  69.112   1.936  1.00  0.00     0.218 HD
ENDBRANCH  17  20
BRANCH  18  22
HETATM   22  O11         0       9.862  66.678   0.927  1.00  0.00    -0.357 OA
HETATM   23  H11         0      10.802  66.659   1.067  1.00  0.00     0.218 HD
ENDBRANCH  18  22
ENDBRANCH   4  14
BRANCH   8  24
HETATM   24  O17         0      14.229  66.696   7.734  1.00  0.00    -0.359 OA
HETATM   25  H17         0      14.390  67.138   6.909  1.00  0.00     0.218 HD
ENDBRANCH   8  24
TORSDOF 5
ENDMDL
