MODEL 1
REMARK VINA RESULT:      -7.9      0.000      0.000
REMARK  5 active torsions:
REMARK  status: ('A' for Active; 'I' for Inactive)
REMARK    1  A    between atoms: C4_4  and  C5_5 
REMARK    2  A    between atoms: C8_8  and  O9_9 
REMARK    3  A    between atoms: C10_11  and  O11_12 
REMARK    4  A    between atoms: C16_18  and  O17_19 
REMARK    5  A    between atoms: C19_22  and  O20_23 
ROOT
HETATM    1  O1          0      55.907  10.156  15.468  1.00  0.00    -0.286 OA
HETATM    2  C2          0      56.913  10.759  15.002  1.00  0.00     0.201 C 
HETATM    3  C3          0      56.826  11.678  13.971  1.00  0.00     0.067 C 
HETATM    4  C4          0      57.960  12.251  13.407  1.00  0.00     0.103 C 
HETATM    5  O13         0      59.145  11.919  13.889  1.00  0.00    -0.307 OA
HETATM    6  C14         0      59.286  11.023  14.841  1.00  0.00     0.107 C 
HETATM    7  C15         0      60.496  10.384  15.070  1.00  0.00     0.049 C 
HETATM    8  C16         0      60.578   9.268  15.895  1.00  0.00     0.093 C 
HETATM    9  C18         0      59.572   9.168  16.848  1.00  0.00     0.048 C 
HETATM   10  C19         0      58.366   9.833  16.674  1.00  0.00     0.096 C 
HETATM   11  C21         0      58.172  10.607  15.562  1.00  0.00     0.084 C 
ENDROOT
BRANCH  10  12
HETATM   12  O20         0      57.242   9.398  17.370  1.00  0.00    -0.359 OA
HETATM   13  H20         0      57.286   9.378  18.318  1.00  0.00     0.218 HD
ENDBRANCH  10  12
BRANCH   4  14
HETATM   14  C5          0      57.865  12.698  12.017  1.00  0.00     0.025 C 
HETATM   15  C6          0      56.675  12.686  11.303  1.00  0.00     0.004 C 
HETATM   16  C7          0      56.433  13.746  10.435  1.00  0.00     0.026 C 
HETATM   17  C8          0      57.397  14.717  10.183  1.00  0.00     0.112 C 
HETATM   18  C10         0      58.703  14.312  10.421  1.00  0.00     0.112 C 
HETATM   19  C12         0      58.924  13.308  11.356  1.00  0.00     0.028 C 
BRANCH  17  20
HETATM   20  O9          0      57.033  16.026   9.924  1.00  0.00    -0.357 OA
HETATM   21  H9          0      57.651  16.711   9.698  1.00  0.00     0.218 HD
ENDBRANCH  17  20
BRANCH  18  22
HETATM   22  O11         0      59.712  15.171  10.009  1.00  0.00    -0.357 OA
HETATM   23  H11         0      60.154  14.957   9.195  1.00  0.00     0.218 HD
ENDBRANCH  18  22
ENDBRANCH   4  14
BRANCH   8  24
HETATM   24  O17         0      61.395   8.180  15.570  1.00  0.00    -0.359 OA
HETATM   25  H17         0      61.466   7.857  14.680  1.00  0.00     0.218 HD
ENDBRANCH   8  24
TORSDOF 5
ENDMDL
MODEL 2
REMARK VINA RESULT:      -7.2      1.768      7.160
REMARK  5 active torsions:
REMARK  status: ('A' for Active; 'I' for Inactive)
REMARK    1  A    between atoms: C4_4  and  C5_5 
REMARK    2  A    between atoms: C8_8  and  O9_9 
REMARK    3  A    between atoms: C10_11  and  O11_12 
REMARK    4  A    between atoms: C16_18  and  O17_19 
REMARK    5  A    between atoms: C19_22  and  O20_23 
ROOT
HETATM    1  O1          0      60.402  12.301  12.675  1.00  0.00    -0.286 OA
HETATM    2  C2          0      59.304  11.999  13.218  1.00  0.00     0.201 C 
HETATM    3  C3          0      59.224  11.269  14.392  1.00  0.00     0.067 C 
HETATM    4  C4          0      58.001  10.862  14.914  1.00  0.00     0.103 C 
HETATM    5  O13         0      56.894  11.202  14.278  1.00  0.00    -0.307 OA
HETATM    6  C14         0      56.916  11.861  13.140  1.00  0.00     0.107 C 
HETATM    7  C15         0      55.828  11.872  12.280  1.00  0.00     0.049 C 
HETATM    8  C16         0      55.940  12.349  10.980  1.00  0.00     0.093 C 
HETATM    9  C18         0      56.969  13.260  10.775  1.00  0.00     0.048 C 
HETATM   10  C19         0      58.051  13.308  11.644  1.00  0.00     0.096 C 
HETATM   11  C21         0      58.097  12.463  12.719  1.00  0.00     0.084 C 
ENDROOT
BRANCH  10  12
HETATM   12  O20         0      59.244  13.882  11.213  1.00  0.00    -0.359 OA
HETATM   13  H20         0      59.234  14.800  10.970  1.00  0.00     0.218 HD
ENDBRANCH  10  12
BRANCH   4  14
HETATM   14  C5          0      57.996   9.655  15.743  1.00  0.00     0.025 C 
HETATM   15  C6          0      58.940   8.647  15.610  1.00  0.00     0.004 C 
HETATM   16  C7          0      59.394   8.031  16.772  1.00  0.00     0.026 C 
HETATM   17  C8          0      58.832   8.312  18.013  1.00  0.00     0.112 C 
HETATM   18  C10         0      57.537   8.811  17.963  1.00  0.00     0.112 C 
HETATM   19  C12         0      57.137   9.497  16.823  1.00  0.00     0.028 C 
BRANCH  17  20
HETATM   20  O9          0      59.602   8.285  19.162  1.00  0.00    -0.357 OA
HETATM   21  H9          0      60.465   8.677  19.228  1.00  0.00     0.218 HD
ENDBRANCH  17  20
BRANCH  18  22
HETATM   22  O11         0      56.863   8.929  19.170  1.00  0.00    -0.357 OA
HETATM   23  H11         0      56.923   9.767  19.616  1.00  0.00     0.218 HD
ENDBRANCH  18  22
ENDBRANCH   4  14
BRANCH   8  24
HETATM   24  O17         0      55.298  11.712   9.912  1.00  0.00    -0.359 OA
HETATM   25  H17         0      54.827  10.896  10.028  1.00  0.00     0.218 HD
ENDBRANCH   8  24
TORSDOF 5
ENDMDL
MODEL 3
REMARK VINA RESULT:      -6.8      2.673      4.723
REMARK  5 active torsions:
REMARK  status: ('A' for Active; 'I' for Inactive)
REMARK    1  A    between atoms: C4_4  and  C5_5 
REMARK    2  A    between atoms: C8_8  and  O9_9 
REMARK    3  A    between atoms: C10_11  and  O11_12 
REMARK    4  A    between atoms: C16_18  and  O17_19 
REMARK    5  A    between atoms: C19_22  and  O20_23 
ROOT
HETATM    1  O1          0      63.374   7.931  13.999  1.00  0.00    -0.286 OA
HETATM    2  C2          0      62.120   8.073  13.996  1.00  0.00     0.201 C 
HETATM    3  C3          0      61.496   9.213  13.518  1.00  0.00     0.067 C 
HETATM    4  C4          0      60.120   9.387  13.620  1.00  0.00     0.103 C 
HETATM    5  O13         0      59.398   8.427  14.170  1.00  0.00    -0.307 OA
HETATM    6  C14         0      59.945   7.342  14.674  1.00  0.00     0.107 C 
HETATM    7  C15         0      59.273   6.541  15.586  1.00  0.00     0.049 C 
HETATM    8  C16         0      59.936   5.552  16.303  1.00  0.00     0.093 C 
HETATM    9  C18         0      61.092   5.067  15.704  1.00  0.00     0.048 C 
HETATM   10  C19         0      61.763   5.823  14.752  1.00  0.00     0.096 C 
HETATM   11  C21         0      61.274   7.048  14.389  1.00  0.00     0.084 C 
ENDROOT
BRANCH  10  12
HETATM   12  O20         0      63.102   5.551  14.489  1.00  0.00    -0.359 OA
HETATM   13  H20         0      63.413   4.665  14.632  1.00  0.00     0.218 HD
ENDBRANCH  10  12
BRANCH   4  14
HETATM   14  C5          0      59.622  10.762  13.672  1.00  0.00     0.025 C 
HETATM   15  C6          0      60.343  11.843  13.185  1.00  0.00     0.004 C 
HETATM   16  C7          0      59.636  12.849  12.535  1.00  0.00     0.026 C 
HETATM   17  C8          0      58.246  12.851  12.488  1.00  0.00     0.112 C 
HETATM   18  C10         0      57.631  12.127  13.501  1.00  0.00     0.112 C 
HETATM   19  C12         0      58.328  11.070  14.075  1.00  0.00     0.028 C 
BRANCH  17  20
HETATM   20  O9          0      57.574  13.361  11.391  1.00  0.00    -0.357 OA
HETATM   21  H9          0      56.725  13.785  11.442  1.00  0.00     0.218 HD
ENDBRANCH  17  20
BRANCH  18  22
HETATM   22  O11         0      56.253  12.249  13.613  1.00  0.00    -0.357 OA
HETATM   23  H11         0      55.785  11.510  13.985  1.00  0.00     0.218 HD
ENDBRANCH  18  22
ENDBRANCH   4  14
BRANCH   8  24
HETATM   24  O17         0      59.653   5.316  17.653  1.00  0.00    -0.359 OA
HETATM   25  H17         0      58.765   5.348  17.990  1.00  0.00     0.218 HD
ENDBRANCH   8  24
TORSDOF 5
ENDMDL
MODEL 4
REMARK VINA RESULT:      -6.7      2.251      7.329
REMARK  5 active torsions:
REMARK  status: ('A' for Active; 'I' for Inactive)
REMARK    1  A    between atoms: C4_4  and  C5_5 
REMARK    2  A    between atoms: C8_8  and  O9_9 
REMARK    3  A    between atoms: C10_11  and  O11_12 
REMARK    4  A    between atoms: C16_18  and  O17_19 
REMARK    5  A    between atoms: C19_22  and  O20_23 
ROOT
HETATM    1  O1          0      61.502   9.429  13.852  1.00  0.00    -0.286 OA
HETATM    2  C2          0      60.593   9.885  14.598  1.00  0.00     0.201 C 
HETATM    3  C3          0      60.249   9.300  15.805  1.00  0.00     0.067 C 
HETATM    4  C4          0      59.175   9.761  16.558  1.00  0.00     0.103 C 
HETATM    5  O13         0      58.487  10.798  16.113  1.00  0.00    -0.307 OA
HETATM    6  C14         0      58.748  11.366  14.957  1.00  0.00     0.107 C 
HETATM    7  C15         0      57.816  12.163  14.307  1.00  0.00     0.049 C 
HETATM    8  C16         0      57.995  12.549  12.984  1.00  0.00     0.093 C 
HETATM    9  C18         0      59.315  12.565  12.550  1.00  0.00     0.048 C 
HETATM   10  C19         0      60.283  11.817  13.207  1.00  0.00     0.096 C 
HETATM   11  C21         0      59.937  11.069  14.300  1.00  0.00     0.084 C 
ENDROOT
BRANCH  10  12
HETATM   12  O20         0      61.460  11.491  12.540  1.00  0.00    -0.359 OA
HETATM   13  H20         0      61.414  10.846  11.845  1.00  0.00     0.218 HD
ENDBRANCH  10  12
BRANCH   4  14
HETATM   14  C5          0      58.510   8.798  17.437  1.00  0.00     0.025 C 
HETATM   15  C6          0      59.035   8.410  18.661  1.00  0.00     0.004 C 
HETATM   16  C7          0      58.144   8.215  19.712  1.00  0.00     0.026 C 
HETATM   17  C8          0      56.768   8.272  19.522  1.00  0.00     0.112 C 
HETATM   18  C10         0      56.353   8.031  18.219  1.00  0.00     0.112 C 
HETATM   19  C12         0      57.233   8.315  17.182  1.00  0.00     0.028 C 
BRANCH  17  20
HETATM   20  O9          0      55.933   8.742  20.520  1.00  0.00    -0.357 OA
HETATM   21  H9          0      55.886   8.364  21.390  1.00  0.00     0.218 HD
ENDBRANCH  17  20
BRANCH  18  22
HETATM   22  O11         0      54.988   7.889  18.010  1.00  0.00    -0.357 OA
HETATM   23  H11         0      54.665   7.007  17.866  1.00  0.00     0.218 HD
ENDBRANCH  18  22
ENDBRANCH   4  14
BRANCH   8  24
HETATM   24  O17         0      56.925  12.583  12.083  1.00  0.00    -0.359 OA
HETATM   25  H17         0      56.909  13.186  11.349  1.00  0.00     0.218 HD
ENDBRANCH   8  24
TORSDOF 5
ENDMDL
MODEL 5
REMARK VINA RESULT:      -6.6      2.493      7.795
REMARK  5 active torsions:
REMARK  status: ('A' for Active; 'I' for Inactive)
REMARK    1  A    between atoms: C4_4  and  C5_5 
REMARK    2  A    between atoms: C8_8  and  O9_9 
REMARK    3  A    between atoms: C10_11  and  O11_12 
REMARK    4  A    between atoms: C16_18  and  O17_19 
REMARK    5  A    between atoms: C19_22  and  O20_23 
ROOT
HETATM    1  O1          0      61.599   9.369  13.849  1.00  0.00    -0.286 OA
HETATM    2  C2          0      60.706   9.751  14.653  1.00  0.00     0.201 C 
HETATM    3  C3          0      60.441   9.100  15.846  1.00  0.00     0.067 C 
HETATM    4  C4          0      59.383   9.480  16.664  1.00  0.00     0.103 C 
HETATM    5  O13         0      58.631  10.502  16.296  1.00  0.00    -0.307 OA
HETATM    6  C14         0      58.816  11.131  15.156  1.00  0.00     0.107 C 
HETATM    7  C15         0      57.822  11.911  14.582  1.00  0.00     0.049 C 
HETATM    8  C16         0      57.925  12.361  13.271  1.00  0.00     0.093 C 
HETATM    9  C18         0      59.222  12.456  12.783  1.00  0.00     0.048 C 
HETATM   10  C19         0      60.250  11.725  13.364  1.00  0.00     0.096 C 
HETATM   11  C21         0      59.986  10.917  14.436  1.00  0.00     0.084 C 
ENDROOT
BRANCH  10  12
HETATM   12  O20         0      61.409  11.482  12.633  1.00  0.00    -0.359 OA
HETATM   13  H20         0      62.237  11.753  13.010  1.00  0.00     0.218 HD
ENDBRANCH  10  12
BRANCH   4  14
HETATM   14  C5          0      58.800   8.450  17.527  1.00  0.00     0.025 C 
HETATM   15  C6          0      58.207   7.299  17.028  1.00  0.00     0.004 C 
HETATM   16  C7          0      58.412   6.114  17.728  1.00  0.00     0.026 C 
HETATM   17  C8          0      59.071   6.094  18.952  1.00  0.00     0.112 C 
HETATM   18  C10         0      59.051   7.300  19.640  1.00  0.00     0.112 C 
HETATM   19  C12         0      58.931   8.476  18.909  1.00  0.00     0.028 C 
BRANCH  17  20
HETATM   20  O9          0      59.849   5.012  19.321  1.00  0.00    -0.357 OA
HETATM   21  H9          0      59.788   4.581  20.166  1.00  0.00     0.218 HD
ENDBRANCH  17  20
BRANCH  18  22
HETATM   22  O11         0      59.526   7.288  20.944  1.00  0.00    -0.357 OA
HETATM   23  H11         0      60.131   6.592  21.175  1.00  0.00     0.218 HD
ENDBRANCH  18  22
ENDBRANCH   4  14
BRANCH   8  24
HETATM   24  O17         0      56.815  12.386  12.420  1.00  0.00    -0.359 OA
HETATM   25  H17         0      56.446  13.202  12.104  1.00  0.00     0.218 HD
ENDBRANCH   8  24
TORSDOF 5
ENDMDL
MODEL 6
REMARK VINA RESULT:      -6.5      1.804      3.576
REMARK  5 active torsions:
REMARK  status: ('A' for Active; 'I' for Inactive)
REMARK    1  A    between atoms: C4_4  and  C5_5 
REMARK    2  A    between atoms: C8_8  and  O9_9 
REMARK    3  A    between atoms: C10_11  and  O11_12 
REMARK    4  A    between atoms: C16_18  and  O17_19 
REMARK    5  A    between atoms: C19_22  and  O20_23 
ROOT
HETATM    1  O1          0      61.259   7.830  14.718  1.00  0.00    -0.286 OA
HETATM    2  C2          0      60.145   8.412  14.821  1.00  0.00     0.201 C 
HETATM    3  C3          0      59.750   9.433  13.973  1.00  0.00     0.067 C 
HETATM    4  C4          0      58.562  10.127  14.172  1.00  0.00     0.103 C 
HETATM    5  O13         0      57.788   9.784  15.186  1.00  0.00    -0.307 OA
HETATM    6  C14         0      58.134   8.848  16.044  1.00  0.00     0.107 C 
HETATM    7  C15         0      57.552   8.757  17.300  1.00  0.00     0.049 C 
HETATM    8  C16         0      58.090   7.940  18.287  1.00  0.00     0.093 C 
HETATM    9  C18         0      58.851   6.876  17.818  1.00  0.00     0.048 C 
HETATM   10  C19         0      59.409   6.914  16.547  1.00  0.00     0.096 C 
HETATM   11  C21         0      59.195   8.001  15.744  1.00  0.00     0.084 C 
ENDROOT
BRANCH  10  12
HETATM   12  O20         0      60.491   6.090  16.254  1.00  0.00    -0.359 OA
HETATM   13  H20         0      60.362   5.150  16.304  1.00  0.00     0.218 HD
ENDBRANCH  10  12
BRANCH   4  14
HETATM   14  C5          0      58.496  11.500  13.669  1.00  0.00     0.025 C 
HETATM   15  C6          0      59.621  12.296  13.505  1.00  0.00     0.004 C 
HETATM   16  C7          0      59.664  13.131  12.394  1.00  0.00     0.026 C 
HETATM   17  C8          0      58.572  13.273  11.545  1.00  0.00     0.112 C 
HETATM   18  C10         0      57.347  12.961  12.120  1.00  0.00     0.112 C 
HETATM   19  C12         0      57.324  12.057  13.176  1.00  0.00     0.028 C 
BRANCH  17  20
HETATM   20  O9          0      58.750  13.499  10.192  1.00  0.00    -0.357 OA
HETATM   21  H9          0      59.243  14.230   9.839  1.00  0.00     0.218 HD
ENDBRANCH  17  20
BRANCH  18  22
HETATM   22  O11         0      56.211  13.264  11.382  1.00  0.00    -0.357 OA
HETATM   23  H11         0      56.269  14.004  10.789  1.00  0.00     0.218 HD
ENDBRANCH  18  22
ENDBRANCH   4  14
BRANCH   8  24
HETATM   24  O17         0      58.144   8.350  19.624  1.00  0.00    -0.359 OA
HETATM   25  H17         0      57.709   9.140  19.921  1.00  0.00     0.218 HD
ENDBRANCH   8  24
TORSDOF 5
ENDMDL
MODEL 7
REMARK VINA RESULT:      -6.3      2.435      5.253
REMARK  5 active torsions:
REMARK  status: ('A' for Active; 'I' for Inactive)
REMARK    1  A    between atoms: C4_4  and  C5_5 
REMARK    2  A    between atoms: C8_8  and  O9_9 
REMARK    3  A    between atoms: C10_11  and  O11_12 
REMARK    4  A    between atoms: C16_18  and  O17_19 
REMARK    5  A    between atoms: C19_22  and  O20_23 
ROOT
HETATM    1  O1          0      59.560  12.918  12.794  1.00  0.00    -0.286 OA
HETATM    2  C2          0      58.860  11.976  13.258  1.00  0.00     0.201 C 
HETATM    3  C3          0      57.483  12.054  13.378  1.00  0.00     0.067 C 
HETATM    4  C4          0      56.747  11.043  13.987  1.00  0.00     0.103 C 
HETATM    5  O13         0      57.384   9.978  14.440  1.00  0.00    -0.307 OA
HETATM    6  C14         0      58.694   9.871  14.385  1.00  0.00     0.107 C 
HETATM    7  C15         0      59.389   8.982  15.191  1.00  0.00     0.049 C 
HETATM    8  C16         0      60.772   9.049  15.315  1.00  0.00     0.093 C 
HETATM    9  C18         0      61.429   9.644  14.245  1.00  0.00     0.048 C 
HETATM   10  C19         0      60.751  10.503  13.390  1.00  0.00     0.096 C 
HETATM   11  C21         0      59.422  10.753  13.593  1.00  0.00     0.084 C 
ENDROOT
BRANCH  10  12
HETATM   12  O20         0      61.476  11.408  12.621  1.00  0.00    -0.359 OA
HETATM   13  H20         0      61.895  12.135  13.066  1.00  0.00     0.218 HD
ENDBRANCH  10  12
BRANCH   4  14
HETATM   14  C5          0      55.476  11.422  14.608  1.00  0.00     0.025 C 
HETATM   15  C6          0      54.354  11.773  13.871  1.00  0.00     0.004 C 
HETATM   16  C7          0      53.116  11.347  14.341  1.00  0.00     0.026 C 
HETATM   17  C8          0      52.982  10.709  15.570  1.00  0.00     0.112 C 
HETATM   18  C10         0      54.003  10.971  16.473  1.00  0.00     0.112 C 
HETATM   19  C12         0      55.255  11.313  15.975  1.00  0.00     0.028 C 
BRANCH  17  20
HETATM   20  O9          0      52.016   9.738  15.763  1.00  0.00    -0.357 OA
HETATM   21  H9          0      52.172   8.808  15.645  1.00  0.00     0.218 HD
ENDBRANCH  17  20
BRANCH  18  22
HETATM   22  O11         0      53.825  10.517  17.772  1.00  0.00    -0.357 OA
HETATM   23  H11         0      54.153   9.647  17.972  1.00  0.00     0.218 HD
ENDBRANCH  18  22
ENDBRANCH   4  14
BRANCH   8  24
HETATM   24  O17         0      61.404   8.850  16.548  1.00  0.00    -0.359 OA
HETATM   25  H17         0      61.713   9.578  17.073  1.00  0.00     0.218 HD
ENDBRANCH   8  24
TORSDOF 5
ENDMDL
MODEL 8
REMARK VINA RESULT:      -6.1      3.577      6.228
REMARK  5 active torsions:
REMARK  status: ('A' for Active; 'I' for Inactive)
REMARK    1  A    between atoms: C4_4  and  C5_5 
REMARK    2  A    between atoms: C8_8  and  O9_9 
REMARK    3  A    between atoms: C10_11  and  O11_12 
REMARK    4  A    between atoms: C16_18  and  O17_19 
REMARK    5  A    between atoms: C19_22  and  O20_23 
ROOT
HETATM    1  O1          0      53.850   8.603  12.238  1.00  0.00    -0.286 OA
HETATM    2  C2          0      54.042   9.712  12.808  1.00  0.00     0.201 C 
HETATM    3  C3          0      55.285  10.319  12.870  1.00  0.00     0.067 C 
HETATM    4  C4          0      55.489  11.489  13.593  1.00  0.00     0.103 C 
HETATM    5  O13         0      54.461  12.039  14.214  1.00  0.00    -0.307 OA
HETATM    6  C14         0      53.268  11.485  14.217  1.00  0.00     0.107 C 
HETATM    7  C15         0      52.310  11.817  15.164  1.00  0.00     0.049 C 
HETATM    8  C16         0      51.158  11.057  15.323  1.00  0.00     0.093 C 
HETATM    9  C18         0      50.773  10.334  14.201  1.00  0.00     0.048 C 
HETATM   10  C19         0      51.695  10.024  13.211  1.00  0.00     0.096 C 
HETATM   11  C21         0      52.990  10.449  13.332  1.00  0.00     0.084 C 
ENDROOT
BRANCH  10  12
HETATM   12  O20         0      51.434   8.967  12.345  1.00  0.00    -0.359 OA
HETATM   13  H20         0      51.585   8.084  12.661  1.00  0.00     0.218 HD
ENDBRANCH  10  12
BRANCH   4  14
HETATM   14  C5          0      56.837  11.729  14.112  1.00  0.00     0.025 C 
HETATM   15  C6          0      57.308  11.145  15.278  1.00  0.00     0.004 C 
HETATM   16  C7          0      58.637  10.733  15.301  1.00  0.00     0.026 C 
HETATM   17  C8          0      59.506  11.013  14.252  1.00  0.00     0.112 C 
HETATM   18  C10         0      59.140  12.101  13.470  1.00  0.00     0.112 C 
HETATM   19  C12         0      57.794  12.439  13.398  1.00  0.00     0.028 C 
BRANCH  17  20
HETATM   20  O9          0      60.518  10.132  13.916  1.00  0.00    -0.357 OA
HETATM   21  H9          0      61.307  10.012  14.433  1.00  0.00     0.218 HD
ENDBRANCH  17  20
BRANCH  18  22
HETATM   22  O11         0      60.063  12.538  12.531  1.00  0.00    -0.357 OA
HETATM   23  H11         0      60.576  11.872  12.090  1.00  0.00     0.218 HD
ENDBRANCH  18  22
ENDBRANCH   4  14
BRANCH   8  24
HETATM   24  O17         0      50.635  10.782  16.591  1.00  0.00    -0.359 OA
HETATM   25  H17         0      50.769   9.942  17.015  1.00  0.00     0.218 HD
ENDBRANCH   8  24
TORSDOF 5
ENDMDL
MODEL 9
REMARK VINA RESULT:      -6.1      3.003      5.696
REMARK  5 active torsions:
REMARK  status: ('A' for Active; 'I' for Inactive)
REMARK    1  A    between atoms: C4_4  and  C5_5 
REMARK    2  A    between atoms: C8_8  and  O9_9 
REMARK    3  A    between atoms: C10_11  and  O11_12 
REMARK    4  A    between atoms: C16_18  and  O17_19 
REMARK    5  A    between atoms: C19_22  and  O20_23 
ROOT
HETATM    1  O1          0      53.646  13.202  15.477  1.00  0.00    -0.286 OA
HETATM    2  C2          0      54.373  12.206  15.213  1.00  0.00     0.201 C 
HETATM    3  C3          0      55.701  12.123  15.598  1.00  0.00     0.067 C 
HETATM    4  C4          0      56.508  11.061  15.206  1.00  0.00     0.103 C 
HETATM    5  O13         0      55.981  10.103  14.465  1.00  0.00    -0.307 OA
HETATM    6  C14         0      54.737  10.151  14.041  1.00  0.00     0.107 C 
HETATM    7  C15         0      54.302   9.390  12.966  1.00  0.00     0.049 C 
HETATM    8  C16         0      53.072   9.629  12.364  1.00  0.00     0.093 C 
HETATM    9  C18         0      52.130  10.247  13.177  1.00  0.00     0.048 C 
HETATM   10  C19         0      52.529  10.978  14.288  1.00  0.00     0.096 C 
HETATM   11  C21         0      53.859  11.077  14.594  1.00  0.00     0.084 C 
ENDROOT
BRANCH  10  12
HETATM   12  O20         0      51.664  11.927  14.824  1.00  0.00    -0.359 OA
HETATM   13  H20         0      51.847  12.253  15.697  1.00  0.00     0.218 HD
ENDBRANCH  10  12
BRANCH   4  14
HETATM   14  C5          0      57.947  11.313  15.114  1.00  0.00     0.025 C 
HETATM   15  C6          0      58.886  10.584  15.830  1.00  0.00     0.004 C 
HETATM   16  C7          0      60.083  10.273  15.193  1.00  0.00     0.026 C 
HETATM   17  C8          0      60.395  10.782  13.937  1.00  0.00     0.112 C 
HETATM   18  C10         0      59.726  11.952  13.603  1.00  0.00     0.112 C 
HETATM   19  C12         0      58.490  12.197  14.191  1.00  0.00     0.028 C 
BRANCH  17  20
HETATM   20  O9          0      61.146  10.044  13.039  1.00  0.00    -0.357 OA
HETATM   21  H9          0      61.070  10.124  12.096  1.00  0.00     0.218 HD
ENDBRANCH  17  20
BRANCH  18  22
HETATM   22  O11         0      60.136  12.603  12.448  1.00  0.00    -0.357 OA
HETATM   23  H11         0      60.879  12.232  11.986  1.00  0.00     0.218 HD
ENDBRANCH  18  22
ENDBRANCH   4  14
BRANCH   8  24
HETATM   24  O17         0      52.916   9.564  10.975  1.00  0.00    -0.359 OA
HETATM   25  H17         0      52.795   8.737  10.524  1.00  0.00     0.218 HD
ENDBRANCH   8  24
TORSDOF 5
ENDMDL
