MODEL 1
REMARK VINA RESULT:      -5.7      0.000      0.000
REMARK  5 active torsions:
REMARK  status: ('A' for Active; 'I' for Inactive)
REMARK    1  A    between atoms: C4_4  and  C5_5 
REMARK    2  A    between atoms: C8_8  and  O9_9 
REMARK    3  A    between atoms: C10_11  and  O11_12 
REMARK    4  A    between atoms: C16_18  and  O17_19 
REMARK    5  A    between atoms: C19_22  and  O20_23 
ROOT
HETATM    1  O1          0      33.878  82.611  20.332  1.00  0.00    -0.286 OA
HETATM    2  C2          0      34.779  83.389  19.914  1.00  0.00     0.201 C 
HETATM    3  C3          0      34.504  84.529  19.177  1.00  0.00     0.067 C 
HETATM    4  C4          0      35.520  85.313  18.642  1.00  0.00     0.103 C 
HETATM    5  O13         0      36.775  84.965  18.864  1.00  0.00    -0.307 OA
HETATM    6  C14         0      37.091  83.872  19.525  1.00  0.00     0.107 C 
HETATM    7  C15         0      38.348  83.294  19.423  1.00  0.00     0.049 C 
HETATM    8  C16         0      38.596  82.017  19.912  1.00  0.00     0.093 C 
HETATM    9  C18         0      37.744  81.601  20.927  1.00  0.00     0.048 C 
HETATM   10  C19         0      36.497  82.191  21.088  1.00  0.00     0.096 C 
HETATM   11  C21         0      36.111  83.201  20.250  1.00  0.00     0.084 C 
ENDROOT
BRANCH  10  12
HETATM   12  O20         0      35.506  81.507  21.785  1.00  0.00    -0.359 OA
HETATM   13  H20         0      34.626  81.865  21.773  1.00  0.00     0.218 HD
ENDBRANCH  10  12
BRANCH   4  14
HETATM   14  C5          0      35.205  86.086  17.439  1.00  0.00     0.025 C 
HETATM   15  C6          0      33.919  86.499  17.125  1.00  0.00     0.004 C 
HETATM   16  C7          0      33.766  87.760  16.560  1.00  0.00     0.026 C 
HETATM   17  C8          0      34.863  88.533  16.193  1.00  0.00     0.112 C 
HETATM   18  C10         0      36.026  87.812  15.956  1.00  0.00     0.112 C 
HETATM   19  C12         0      36.190  86.592  16.601  1.00  0.00     0.028 C 
BRANCH  17  20
HETATM   20  O9          0      34.818  89.913  16.278  1.00  0.00    -0.357 OA
HETATM   21  H9          0      34.012  90.413  16.320  1.00  0.00     0.218 HD
ENDBRANCH  17  20
BRANCH  18  22
HETATM   22  O11         0      37.095  88.507  15.407  1.00  0.00    -0.357 OA
HETATM   23  H11         0      37.037  88.727  14.485  1.00  0.00     0.218 HD
ENDBRANCH  18  22
ENDBRANCH   4  14
BRANCH   8  24
HETATM   24  O17         0      39.405  81.113  19.214  1.00  0.00    -0.359 OA
HETATM   25  H17         0      39.159  80.782  18.359  1.00  0.00     0.218 HD
ENDBRANCH   8  24
TORSDOF 5
ENDMDL
MODEL 2
REMARK VINA RESULT:      -5.4      1.834      6.702
REMARK  5 active torsions:
REMARK  status: ('A' for Active; 'I' for Inactive)
REMARK    1  A    between atoms: C4_4  and  C5_5 
REMARK    2  A    between atoms: C8_8  and  O9_9 
REMARK    3  A    between atoms: C10_11  and  O11_12 
REMARK    4  A    between atoms: C16_18  and  O17_19 
REMARK    5  A    between atoms: C19_22  and  O20_23 
ROOT
HETATM    1  O1          0      33.196  88.742  18.697  1.00  0.00    -0.286 OA
HETATM    2  C2          0      33.950  87.916  18.113  1.00  0.00     0.201 C 
HETATM    3  C3          0      34.278  86.685  18.656  1.00  0.00     0.067 C 
HETATM    4  C4          0      35.192  85.838  18.039  1.00  0.00     0.103 C 
HETATM    5  O13         0      35.738  86.216  16.897  1.00  0.00    -0.307 OA
HETATM    6  C14         0      35.489  87.389  16.358  1.00  0.00     0.107 C 
HETATM    7  C15         0      36.332  87.951  15.409  1.00  0.00     0.049 C 
HETATM    8  C16         0      36.209  89.283  15.034  1.00  0.00     0.093 C 
HETATM    9  C18         0      34.947  89.833  15.224  1.00  0.00     0.048 C 
HETATM   10  C19         0      34.061  89.268  16.132  1.00  0.00     0.096 C 
HETATM   11  C21         0      34.427  88.151  16.832  1.00  0.00     0.084 C 
ENDROOT
BRANCH  10  12
HETATM   12  O20         0      33.016  90.038  16.632  1.00  0.00    -0.359 OA
HETATM   13  H20         0      32.770  89.918  17.541  1.00  0.00     0.218 HD
ENDBRANCH  10  12
BRANCH   4  14
HETATM   14  C5          0      35.926  84.906  18.897  1.00  0.00     0.025 C 
HETATM   15  C6          0      35.321  83.828  19.528  1.00  0.00     0.004 C 
HETATM   16  C7          0      36.042  82.641  19.608  1.00  0.00     0.026 C 
HETATM   17  C8          0      37.368  82.563  19.197  1.00  0.00     0.112 C 
HETATM   18  C10         0      38.045  83.776  19.191  1.00  0.00     0.112 C 
HETATM   19  C12         0      37.309  84.943  19.024  1.00  0.00     0.028 C 
BRANCH  17  20
HETATM   20  O9          0      37.872  81.400  18.644  1.00  0.00    -0.357 OA
HETATM   21  H9          0      37.668  80.530  18.968  1.00  0.00     0.218 HD
ENDBRANCH  17  20
BRANCH  18  22
HETATM   22  O11         0      39.415  83.729  18.973  1.00  0.00    -0.357 OA
HETATM   23  H11         0      39.728  83.095  18.339  1.00  0.00     0.218 HD
ENDBRANCH  18  22
ENDBRANCH   4  14
BRANCH   8  24
HETATM   24  O17         0      37.334  90.085  14.810  1.00  0.00    -0.359 OA
HETATM   25  H17         0      38.198  89.709  14.691  1.00  0.00     0.218 HD
ENDBRANCH   8  24
TORSDOF 5
ENDMDL
MODEL 3
REMARK VINA RESULT:      -5.3      2.792      7.477
REMARK  5 active torsions:
REMARK  status: ('A' for Active; 'I' for Inactive)
REMARK    1  A    between atoms: C4_4  and  C5_5 
REMARK    2  A    between atoms: C8_8  and  O9_9 
REMARK    3  A    between atoms: C10_11  and  O11_12 
REMARK    4  A    between atoms: C16_18  and  O17_19 
REMARK    5  A    between atoms: C19_22  and  O20_23 
ROOT
HETATM    1  O1          0      36.576  82.812  18.645  1.00  0.00    -0.286 OA
HETATM    2  C2          0      35.736  83.346  19.420  1.00  0.00     0.201 C 
HETATM    3  C3          0      35.358  82.775  20.624  1.00  0.00     0.067 C 
HETATM    4  C4          0      34.355  83.331  21.410  1.00  0.00     0.103 C 
HETATM    5  O13         0      33.770  84.443  21.000  1.00  0.00    -0.307 OA
HETATM    6  C14         0      34.066  85.005  19.849  1.00  0.00     0.107 C 
HETATM    7  C15         0      33.210  85.908  19.235  1.00  0.00     0.049 C 
HETATM    8  C16         0      33.400  86.300  17.916  1.00  0.00     0.093 C 
HETATM    9  C18         0      34.705  86.187  17.452  1.00  0.00     0.048 C 
HETATM   10  C19         0      35.602  85.327  18.072  1.00  0.00     0.096 C 
HETATM   11  C21         0      35.203  84.598  19.159  1.00  0.00     0.084 C 
ENDROOT
BRANCH  10  12
HETATM   12  O20         0      36.724  84.894  17.372  1.00  0.00    -0.359 OA
HETATM   13  H20         0      37.302  84.272  17.798  1.00  0.00     0.218 HD
ENDBRANCH  10  12
BRANCH   4  14
HETATM   14  C5          0      33.611  82.425  22.287  1.00  0.00     0.025 C 
HETATM   15  C6          0      32.718  81.479  21.806  1.00  0.00     0.004 C 
HETATM   16  C7          0      32.684  80.242  22.442  1.00  0.00     0.026 C 
HETATM   17  C8          0      33.414  79.997  23.600  1.00  0.00     0.112 C 
HETATM   18  C10         0      33.744  81.133  24.328  1.00  0.00     0.112 C 
HETATM   19  C12         0      33.855  82.342  23.651  1.00  0.00     0.028 C 
BRANCH  17  20
HETATM   20  O9          0      33.933  78.741  23.859  1.00  0.00    -0.357 OA
HETATM   21  H9          0      33.831  78.289  24.688  1.00  0.00     0.218 HD
ENDBRANCH  17  20
BRANCH  18  22
HETATM   22  O11         0      34.305  80.935  25.582  1.00  0.00    -0.357 OA
HETATM   23  H11         0      34.812  81.652  25.944  1.00  0.00     0.218 HD
ENDBRANCH  18  22
ENDBRANCH   4  14
BRANCH   8  24
HETATM   24  O17         0      32.320  86.466  17.041  1.00  0.00    -0.359 OA
HETATM   25  H17         0      31.427  86.294  17.314  1.00  0.00     0.218 HD
ENDBRANCH   8  24
TORSDOF 5
ENDMDL
MODEL 4
REMARK VINA RESULT:      -5.2      1.652      6.549
REMARK  5 active torsions:
REMARK  status: ('A' for Active; 'I' for Inactive)
REMARK    1  A    between atoms: C4_4  and  C5_5 
REMARK    2  A    between atoms: C8_8  and  O9_9 
REMARK    3  A    between atoms: C10_11  and  O11_12 
REMARK    4  A    between atoms: C16_18  and  O17_19 
REMARK    5  A    between atoms: C19_22  and  O20_23 
ROOT
HETATM    1  O1          0      32.841  86.316  18.838  1.00  0.00    -0.286 OA
HETATM    2  C2          0      33.885  85.618  18.712  1.00  0.00     0.201 C 
HETATM    3  C3          0      34.176  84.549  19.542  1.00  0.00     0.067 C 
HETATM    4  C4          0      35.381  83.861  19.448  1.00  0.00     0.103 C 
HETATM    5  O13         0      36.253  84.232  18.528  1.00  0.00    -0.307 OA
HETATM    6  C14         0      36.043  85.263  17.740  1.00  0.00     0.107 C 
HETATM    7  C15         0      37.080  85.896  17.071  1.00  0.00     0.049 C 
HETATM    8  C16         0      36.895  87.126  16.450  1.00  0.00     0.093 C 
HETATM    9  C18         0      35.585  87.406  16.081  1.00  0.00     0.048 C 
HETATM   10  C19         0      34.524  86.757  16.698  1.00  0.00     0.096 C 
HETATM   11  C21         0      34.771  85.821  17.666  1.00  0.00     0.084 C 
ENDROOT
BRANCH  10  12
HETATM   12  O20         0      33.257  87.329  16.652  1.00  0.00    -0.359 OA
HETATM   13  H20         0      33.119  88.057  16.058  1.00  0.00     0.218 HD
ENDBRANCH  10  12
BRANCH   4  14
HETATM   14  C5          0      35.871  83.201  20.659  1.00  0.00     0.025 C 
HETATM   15  C6          0      35.028  82.748  21.663  1.00  0.00     0.004 C 
HETATM   16  C7          0      35.351  81.546  22.284  1.00  0.00     0.026 C 
HETATM   17  C8          0      36.543  80.882  22.012  1.00  0.00     0.112 C 
HETATM   18  C10         0      37.557  81.691  21.516  1.00  0.00     0.112 C 
HETATM   19  C12         0      37.203  82.844  20.825  1.00  0.00     0.028 C 
BRANCH  17  20
HETATM   20  O9          0      36.607  79.500  22.041  1.00  0.00    -0.357 OA
HETATM   21  H9          0      37.110  79.009  22.681  1.00  0.00     0.218 HD
ENDBRANCH  17  20
BRANCH  18  22
HETATM   22  O11         0      38.817  81.121  21.406  1.00  0.00    -0.357 OA
HETATM   23  H11         0      38.867  80.259  21.009  1.00  0.00     0.218 HD
ENDBRANCH  18  22
ENDBRANCH   4  14
BRANCH   8  24
HETATM   24  O17         0      37.874  88.125  16.505  1.00  0.00    -0.359 OA
HETATM   25  H17         0      38.497  88.252  15.799  1.00  0.00     0.218 HD
ENDBRANCH   8  24
TORSDOF 5
ENDMDL
MODEL 5
REMARK VINA RESULT:      -5.2      1.643      6.718
REMARK  5 active torsions:
REMARK  status: ('A' for Active; 'I' for Inactive)
REMARK    1  A    between atoms: C4_4  and  C5_5 
REMARK    2  A    between atoms: C8_8  and  O9_9 
REMARK    3  A    between atoms: C10_11  and  O11_12 
REMARK    4  A    between atoms: C16_18  and  O17_19 
REMARK    5  A    between atoms: C19_22  and  O20_23 
ROOT
HETATM    1  O1          0      33.397  87.946  18.844  1.00  0.00    -0.286 OA
HETATM    2  C2          0      34.177  87.203  18.187  1.00  0.00     0.201 C 
HETATM    3  C3          0      34.600  85.967  18.645  1.00  0.00     0.067 C 
HETATM    4  C4          0      35.539  85.214  17.949  1.00  0.00     0.103 C 
HETATM    5  O13         0      36.020  85.691  16.814  1.00  0.00    -0.307 OA
HETATM    6  C14         0      35.681  86.875  16.354  1.00  0.00     0.107 C 
HETATM    7  C15         0      36.452  87.542  15.413  1.00  0.00     0.049 C 
HETATM    8  C16         0      36.235  88.883  15.122  1.00  0.00     0.093 C 
HETATM    9  C18         0      34.950  89.341  15.386  1.00  0.00     0.048 C 
HETATM   10  C19         0      34.134  88.670  16.287  1.00  0.00     0.096 C 
HETATM   11  C21         0      34.592  87.540  16.908  1.00  0.00     0.084 C 
ENDROOT
BRANCH  10  12
HETATM   12  O20         0      33.063  89.344  16.866  1.00  0.00    -0.359 OA
HETATM   13  H20         0      32.185  89.063  16.639  1.00  0.00     0.218 HD
ENDBRANCH  10  12
BRANCH   4  14
HETATM   14  C5          0      36.359  84.283  18.726  1.00  0.00     0.025 C 
HETATM   15  C6          0      37.693  84.523  19.023  1.00  0.00     0.004 C 
HETATM   16  C7          0      38.152  84.147  20.282  1.00  0.00     0.026 C 
HETATM   17  C8          0      37.350  83.436  21.167  1.00  0.00     0.112 C 
HETATM   18  C10         0      36.322  82.717  20.570  1.00  0.00     0.112 C 
HETATM   19  C12         0      35.825  83.164  19.352  1.00  0.00     0.028 C 
BRANCH  17  20
HETATM   20  O9          0      37.463  83.624  22.534  1.00  0.00    -0.357 OA
HETATM   21  H9          0      37.020  83.085  23.179  1.00  0.00     0.218 HD
ENDBRANCH  17  20
BRANCH  18  22
HETATM   22  O11         0      35.612  81.844  21.382  1.00  0.00    -0.357 OA
HETATM   23  H11         0      34.752  81.578  21.078  1.00  0.00     0.218 HD
ENDBRANCH  18  22
ENDBRANCH   4  14
BRANCH   8  24
HETATM   24  O17         0      37.301  89.765  14.908  1.00  0.00    -0.359 OA
HETATM   25  H17         0      38.081  89.744  15.449  1.00  0.00     0.218 HD
ENDBRANCH   8  24
TORSDOF 5
ENDMDL
MODEL 6
REMARK VINA RESULT:      -5.2      1.430      6.627
REMARK  5 active torsions:
REMARK  status: ('A' for Active; 'I' for Inactive)
REMARK    1  A    between atoms: C4_4  and  C5_5 
REMARK    2  A    between atoms: C8_8  and  O9_9 
REMARK    3  A    between atoms: C10_11  and  O11_12 
REMARK    4  A    between atoms: C16_18  and  O17_19 
REMARK    5  A    between atoms: C19_22  and  O20_23 
ROOT
HETATM    1  O1          0      33.525  87.562  19.438  1.00  0.00    -0.286 OA
HETATM    2  C2          0      34.327  86.804  18.826  1.00  0.00     0.201 C 
HETATM    3  C3          0      34.851  85.654  19.391  1.00  0.00     0.067 C 
HETATM    4  C4          0      35.811  84.892  18.734  1.00  0.00     0.103 C 
HETATM    5  O13         0      36.211  85.273  17.533  1.00  0.00    -0.307 OA
HETATM    6  C14         0      35.773  86.377  16.968  1.00  0.00     0.107 C 
HETATM    7  C15         0      36.458  86.986  15.926  1.00  0.00     0.049 C 
HETATM    8  C16         0      36.138  88.271  15.507  1.00  0.00     0.093 C 
HETATM    9  C18         0      34.836  88.672  15.783  1.00  0.00     0.048 C 
HETATM   10  C19         0      34.106  88.052  16.787  1.00  0.00     0.096 C 
HETATM   11  C21         0      34.665  87.027  17.500  1.00  0.00     0.084 C 
ENDROOT
BRANCH  10  12
HETATM   12  O20         0      33.016  88.715  17.344  1.00  0.00    -0.359 OA
HETATM   13  H20         0      32.225  88.214  17.504  1.00  0.00     0.218 HD
ENDBRANCH  10  12
BRANCH   4  14
HETATM   14  C5          0      36.724  84.104  19.564  1.00  0.00     0.025 C 
HETATM   15  C6          0      36.810  84.256  20.940  1.00  0.00     0.004 C 
HETATM   16  C7          0      36.990  83.108  21.705  1.00  0.00     0.026 C 
HETATM   17  C8          0      37.212  81.867  21.118  1.00  0.00     0.112 C 
HETATM   18  C10         0      37.729  81.919  19.831  1.00  0.00     0.112 C 
HETATM   19  C12         0      37.463  83.043  19.057  1.00  0.00     0.028 C 
BRANCH  17  20
HETATM   20  O9          0      36.744  80.709  21.712  1.00  0.00    -0.357 OA
HETATM   21  H9          0      35.886  80.630  22.112  1.00  0.00     0.218 HD
ENDBRANCH  17  20
BRANCH  18  22
HETATM   22  O11         0      38.145  80.719  19.271  1.00  0.00    -0.357 OA
HETATM   23  H11         0      38.597  80.767  18.437  1.00  0.00     0.218 HD
ENDBRANCH  18  22
ENDBRANCH   4  14
BRANCH   8  24
HETATM   24  O17         0      37.131  89.191  15.151  1.00  0.00    -0.359 OA
HETATM   25  H17         0      37.255  89.468  14.251  1.00  0.00     0.218 HD
ENDBRANCH   8  24
TORSDOF 5
ENDMDL
MODEL 7
REMARK VINA RESULT:      -5.2      3.259      7.058
REMARK  5 active torsions:
REMARK  status: ('A' for Active; 'I' for Inactive)
REMARK    1  A    between atoms: C4_4  and  C5_5 
REMARK    2  A    between atoms: C8_8  and  O9_9 
REMARK    3  A    between atoms: C10_11  and  O11_12 
REMARK    4  A    between atoms: C16_18  and  O17_19 
REMARK    5  A    between atoms: C19_22  and  O20_23 
ROOT
HETATM    1  O1          0      32.929  86.753  20.189  1.00  0.00    -0.286 OA
HETATM    2  C2          0      33.286  85.549  20.069  1.00  0.00     0.201 C 
HETATM    3  C3          0      32.755  84.529  20.840  1.00  0.00     0.067 C 
HETATM    4  C4          0      33.239  83.228  20.760  1.00  0.00     0.103 C 
HETATM    5  O13         0      34.216  82.965  19.909  1.00  0.00    -0.307 OA
HETATM    6  C14         0      34.780  83.904  19.181  1.00  0.00     0.107 C 
HETATM    7  C15         0      36.031  83.730  18.606  1.00  0.00     0.049 C 
HETATM    8  C16         0      36.729  84.800  18.060  1.00  0.00     0.093 C 
HETATM    9  C18         0      35.939  85.866  17.646  1.00  0.00     0.048 C 
HETATM   10  C19         0      34.665  86.043  18.167  1.00  0.00     0.096 C 
HETATM   11  C21         0      34.175  85.152  19.082  1.00  0.00     0.084 C 
ENDROOT
BRANCH  10  12
HETATM   12  O20         0      34.070  87.299  18.097  1.00  0.00    -0.359 OA
HETATM   13  H20         0      33.425  87.449  17.416  1.00  0.00     0.218 HD
ENDBRANCH  10  12
BRANCH   4  14
HETATM   14  C5          0      33.093  82.384  21.948  1.00  0.00     0.025 C 
HETATM   15  C6          0      33.097  82.895  23.238  1.00  0.00     0.004 C 
HETATM   16  C7          0      32.226  82.324  24.160  1.00  0.00     0.026 C 
HETATM   17  C8          0      31.472  81.197  23.850  1.00  0.00     0.112 C 
HETATM   18  C10         0      31.989  80.418  22.824  1.00  0.00     0.112 C 
HETATM   19  C12         0      32.789  81.032  21.867  1.00  0.00     0.028 C 
BRANCH  17  20
HETATM   20  O9          0      30.212  81.017  24.391  1.00  0.00    -0.357 OA
HETATM   21  H9          0      29.564  80.420  24.034  1.00  0.00     0.218 HD
ENDBRANCH  17  20
BRANCH  18  22
HETATM   22  O11         0      31.384  79.189  22.602  1.00  0.00    -0.357 OA
HETATM   23  H11         0      30.520  79.200  22.208  1.00  0.00     0.218 HD
ENDBRANCH  18  22
ENDBRANCH   4  14
BRANCH   8  24
HETATM   24  O17         0      38.112  84.930  18.227  1.00  0.00    -0.359 OA
HETATM   25  H17         0      38.717  84.269  17.913  1.00  0.00     0.218 HD
ENDBRANCH   8  24
TORSDOF 5
ENDMDL
MODEL 8
REMARK VINA RESULT:      -5.1      3.191      5.158
REMARK  5 active torsions:
REMARK  status: ('A' for Active; 'I' for Inactive)
REMARK    1  A    between atoms: C4_4  and  C5_5 
REMARK    2  A    between atoms: C8_8  and  O9_9 
REMARK    3  A    between atoms: C10_11  and  O11_12 
REMARK    4  A    between atoms: C16_18  and  O17_19 
REMARK    5  A    between atoms: C19_22  and  O20_23 
ROOT
HETATM    1  O1          0      36.766  81.517  22.943  1.00  0.00    -0.286 OA
HETATM    2  C2          0      35.697  81.712  22.303  1.00  0.00     0.201 C 
HETATM    3  C3          0      35.544  82.747  21.396  1.00  0.00     0.067 C 
HETATM    4  C4          0      34.323  83.002  20.781  1.00  0.00     0.103 C 
HETATM    5  O13         0      33.296  82.219  21.060  1.00  0.00    -0.307 OA
HETATM    6  C14         0      33.377  81.246  21.941  1.00  0.00     0.107 C 
HETATM    7  C15         0      32.248  80.695  22.528  1.00  0.00     0.049 C 
HETATM    8  C16         0      32.344  79.857  23.632  1.00  0.00     0.093 C 
HETATM    9  C18         0      33.561  79.200  23.767  1.00  0.00     0.048 C 
HETATM   10  C19         0      34.703  79.699  23.154  1.00  0.00     0.096 C 
HETATM   11  C21         0      34.626  80.837  22.398  1.00  0.00     0.084 C 
ENDROOT
BRANCH  10  12
HETATM   12  O20         0      35.953  79.316  23.630  1.00  0.00    -0.359 OA
HETATM   13  H20         0      35.988  78.810  24.433  1.00  0.00     0.218 HD
ENDBRANCH  10  12
BRANCH   4  14
HETATM   14  C5          0      34.065  84.377  20.350  1.00  0.00     0.025 C 
HETATM   15  C6          0      34.874  85.045  19.442  1.00  0.00     0.004 C 
HETATM   16  C7          0      34.254  85.877  18.516  1.00  0.00     0.026 C 
HETATM   17  C8          0      32.890  86.142  18.572  1.00  0.00     0.112 C 
HETATM   18  C10         0      32.315  85.963  19.824  1.00  0.00     0.112 C 
HETATM   19  C12         0      32.908  85.062  20.699  1.00  0.00     0.028 C 
BRANCH  17  20
HETATM   20  O9          0      32.160  86.354  17.415  1.00  0.00    -0.357 OA
HETATM   21  H9          0      32.500  86.811  16.654  1.00  0.00     0.218 HD
ENDBRANCH  17  20
BRANCH  18  22
HETATM   22  O11         0      31.005  86.393  19.981  1.00  0.00    -0.357 OA
HETATM   23  H11         0      30.869  87.177  20.500  1.00  0.00     0.218 HD
ENDBRANCH  18  22
ENDBRANCH   4  14
BRANCH   8  24
HETATM   24  O17         0      31.429  79.934  24.688  1.00  0.00    -0.359 OA
HETATM   25  H17         0      30.496  79.818  24.550  1.00  0.00     0.218 HD
ENDBRANCH   8  24
TORSDOF 5
ENDMDL
MODEL 9
REMARK VINA RESULT:      -5.1      3.783      5.553
REMARK  5 active torsions:
REMARK  status: ('A' for Active; 'I' for Inactive)
REMARK    1  A    between atoms: C4_4  and  C5_5 
REMARK    2  A    between atoms: C8_8  and  O9_9 
REMARK    3  A    between atoms: C10_11  and  O11_12 
REMARK    4  A    between atoms: C16_18  and  O17_19 
REMARK    5  A    between atoms: C19_22  and  O20_23 
ROOT
HETATM    1  O1          0      32.507  83.975  24.403  1.00  0.00    -0.286 OA
HETATM    2  C2          0      32.867  83.208  23.468  1.00  0.00     0.201 C 
HETATM    3  C3          0      33.635  83.637  22.399  1.00  0.00     0.067 C 
HETATM    4  C4          0      33.931  82.797  21.331  1.00  0.00     0.103 C 
HETATM    5  O13         0      33.481  81.555  21.357  1.00  0.00    -0.307 OA
HETATM    6  C14         0      32.717  81.109  22.329  1.00  0.00     0.107 C 
HETATM    7  C15         0      31.927  79.978  22.178  1.00  0.00     0.049 C 
HETATM    8  C16         0      30.940  79.658  23.102  1.00  0.00     0.093 C 
HETATM    9  C18         0      31.139  80.175  24.376  1.00  0.00     0.048 C 
HETATM   10  C19         0      31.960  81.277  24.570  1.00  0.00     0.096 C 
HETATM   11  C21         0      32.592  81.849  23.500  1.00  0.00     0.084 C 
ENDROOT
BRANCH  10  12
HETATM   12  O20         0      31.816  82.039  25.726  1.00  0.00    -0.359 OA
HETATM   13  H20         0      31.142  81.785  26.344  1.00  0.00     0.218 HD
ENDBRANCH  10  12
BRANCH   4  14
HETATM   14  C5          0      34.188  83.427  20.035  1.00  0.00     0.025 C 
HETATM   15  C6          0      33.309  84.325  19.447  1.00  0.00     0.004 C 
HETATM   16  C7          0      33.853  85.410  18.769  1.00  0.00     0.026 C 
HETATM   17  C8          0      35.223  85.530  18.564  1.00  0.00     0.112 C 
HETATM   18  C10         0      35.924  84.332  18.612  1.00  0.00     0.112 C 
HETATM   19  C12         0      35.399  83.291  19.368  1.00  0.00     0.028 C 
BRANCH  17  20
HETATM   20  O9          0      35.829  86.774  18.533  1.00  0.00    -0.357 OA
HETATM   21  H9          0      35.684  87.448  19.187  1.00  0.00     0.218 HD
ENDBRANCH  17  20
BRANCH  18  22
HETATM   22  O11         0      37.257  84.368  18.230  1.00  0.00    -0.357 OA
HETATM   23  H11         0      37.905  84.312  18.923  1.00  0.00     0.218 HD
ENDBRANCH  18  22
ENDBRANCH   4  14
BRANCH   8  24
HETATM   24  O17         0      29.699  79.154  22.698  1.00  0.00    -0.359 OA
HETATM   25  H17         0      29.553  78.223  22.578  1.00  0.00     0.218 HD
ENDBRANCH   8  24
TORSDOF 5
ENDMDL
