MODEL 1
REMARK VINA RESULT:      -1.4      0.000      0.000
REMARK  5 active torsions:
REMARK  status: ('A' for Active; 'I' for Inactive)
REMARK    1  A    between atoms: C4_4  and  C5_5 
REMARK    2  A    between atoms: C8_8  and  O9_9 
REMARK    3  A    between atoms: C10_11  and  O11_12 
REMARK    4  A    between atoms: C16_18  and  O17_19 
REMARK    5  A    between atoms: C19_22  and  O20_23 
ROOT
HETATM    1  O1          0      63.995  15.238 -20.755  1.00  0.00    -0.286 OA
HETATM    2  C2          0      64.503  14.093 -20.598  1.00  0.00     0.201 C 
HETATM    3  C3          0      65.865  13.859 -20.678  1.00  0.00     0.067 C 
HETATM    4  C4          0      66.388  12.573 -20.604  1.00  0.00     0.103 C 
HETATM    5  O13         0      65.559  11.559 -20.433  1.00  0.00    -0.307 OA
HETATM    6  C14         0      64.254  11.722 -20.388  1.00  0.00     0.107 C 
HETATM    7  C15         0      63.378  10.670 -20.610  1.00  0.00     0.049 C 
HETATM    8  C16         0      62.021  10.892 -20.814  1.00  0.00     0.093 C 
HETATM    9  C18         0      61.532  12.074 -20.272  1.00  0.00     0.048 C 
HETATM   10  C19         0      62.388  13.130 -19.993  1.00  0.00     0.096 C 
HETATM   11  C21         0      63.728  13.001 -20.239  1.00  0.00     0.084 C 
ENDROOT
BRANCH  10  12
HETATM   12  O20         0      61.868  14.415 -19.875  1.00  0.00    -0.359 OA
HETATM   13  H20         0      62.298  15.017 -19.279  1.00  0.00     0.218 HD
ENDBRANCH  10  12
BRANCH   4  14
HETATM   14  C5          0      67.668  12.331 -21.273  1.00  0.00     0.025 C 
HETATM   15  C6          0      67.848  11.326 -22.212  1.00  0.00     0.004 C 
HETATM   16  C7          0      68.660  11.605 -23.307  1.00  0.00     0.026 C 
HETATM   17  C8          0      69.377  12.793 -23.399  1.00  0.00     0.112 C 
HETATM   18  C10         0      69.632  13.412 -22.183  1.00  0.00     0.112 C 
HETATM   19  C12         0      68.755  13.183 -21.129  1.00  0.00     0.028 C 
BRANCH  17  20
HETATM   20  O9          0      69.613  13.385 -24.627  1.00  0.00    -0.357 OA
HETATM   21  H9          0      70.462  13.711 -24.902  1.00  0.00     0.218 HD
ENDBRANCH  17  20
BRANCH  18  22
HETATM   22  O11         0      70.501  14.494 -22.199  1.00  0.00    -0.357 OA
HETATM   23  H11         0      70.113  15.358 -22.124  1.00  0.00     0.218 HD
ENDBRANCH  18  22
ENDBRANCH   4  14
BRANCH   8  24
HETATM   24  O17         0      61.298  10.164 -21.766  1.00  0.00    -0.359 OA
HETATM   25  H17         0      61.184  10.481 -22.655  1.00  0.00     0.218 HD
ENDBRANCH   8  24
TORSDOF 5
ENDMDL
MODEL 2
REMARK VINA RESULT:      -1.3      4.260      7.008
REMARK  5 active torsions:
REMARK  status: ('A' for Active; 'I' for Inactive)
REMARK    1  A    between atoms: C4_4  and  C5_5 
REMARK    2  A    between atoms: C8_8  and  O9_9 
REMARK    3  A    between atoms: C10_11  and  O11_12 
REMARK    4  A    between atoms: C16_18  and  O17_19 
REMARK    5  A    between atoms: C19_22  and  O20_23 
ROOT
HETATM    1  O1          0      64.388  16.512 -23.485  1.00  0.00    -0.286 OA
HETATM    2  C2          0      63.570  16.330 -22.542  1.00  0.00     0.201 C 
HETATM    3  C3          0      63.232  15.072 -22.074  1.00  0.00     0.067 C 
HETATM    4  C4          0      62.251  14.895 -21.104  1.00  0.00     0.103 C 
HETATM    5  O13         0      61.647  15.961 -20.610  1.00  0.00    -0.307 OA
HETATM    6  C14         0      61.903  17.174 -21.047  1.00  0.00     0.107 C 
HETATM    7  C15         0      61.023  18.227 -20.840  1.00  0.00     0.049 C 
HETATM    8  C16         0      61.169  19.433 -21.513  1.00  0.00     0.093 C 
HETATM    9  C18         0      62.460  19.710 -21.947  1.00  0.00     0.048 C 
HETATM   10  C19         0      63.381  18.686 -22.120  1.00  0.00     0.096 C 
HETATM   11  C21         0      63.020  17.395 -21.845  1.00  0.00     0.084 C 
ENDROOT
BRANCH  10  12
HETATM   12  O20         0      64.483  18.894 -22.944  1.00  0.00    -0.359 OA
HETATM   13  H20         0      64.420  19.567 -23.610  1.00  0.00     0.218 HD
ENDBRANCH  10  12
BRANCH   4  14
HETATM   14  C5          0      61.541  13.615 -21.097  1.00  0.00     0.025 C 
HETATM   15  C6          0      60.609  13.267 -22.064  1.00  0.00     0.004 C 
HETATM   16  C7          0      60.590  11.944 -22.494  1.00  0.00     0.026 C 
HETATM   17  C8          0      61.376  10.969 -21.890  1.00  0.00     0.112 C 
HETATM   18  C10         0      61.761  11.260 -20.588  1.00  0.00     0.112 C 
HETATM   19  C12         0      61.854  12.594 -20.209  1.00  0.00     0.028 C 
BRANCH  17  20
HETATM   20  O9          0      61.889   9.915 -22.625  1.00  0.00    -0.357 OA
HETATM   21  H9          0      61.378   9.406 -23.244  1.00  0.00     0.218 HD
ENDBRANCH  17  20
BRANCH  18  22
HETATM   22  O11         0      62.384  10.245 -19.875  1.00  0.00    -0.357 OA
HETATM   23  H11         0      62.883  10.502 -19.108  1.00  0.00     0.218 HD
ENDBRANCH  18  22
ENDBRANCH   4  14
BRANCH   8  24
HETATM   24  O17         0      60.062  20.134 -22.004  1.00  0.00    -0.359 OA
HETATM   25  H17         0      59.591  20.762 -21.468  1.00  0.00     0.218 HD
ENDBRANCH   8  24
TORSDOF 5
ENDMDL
MODEL 3
REMARK VINA RESULT:      -1.2      3.558      4.661
REMARK  5 active torsions:
REMARK  status: ('A' for Active; 'I' for Inactive)
REMARK    1  A    between atoms: C4_4  and  C5_5 
REMARK    2  A    between atoms: C8_8  and  O9_9 
REMARK    3  A    between atoms: C10_11  and  O11_12 
REMARK    4  A    between atoms: C16_18  and  O17_19 
REMARK    5  A    between atoms: C19_22  and  O20_23 
ROOT
HETATM    1  O1          0      66.578  10.904 -21.751  1.00  0.00    -0.286 OA
HETATM    2  C2          0      65.546  10.986 -22.472  1.00  0.00     0.201 C 
HETATM    3  C3          0      65.597  11.282 -23.824  1.00  0.00     0.067 C 
HETATM    4  C4          0      64.441  11.467 -24.573  1.00  0.00     0.103 C 
HETATM    5  O13         0      63.270  11.335 -23.976  1.00  0.00    -0.307 OA
HETATM    6  C14         0      63.165  11.091 -22.688  1.00  0.00     0.107 C 
HETATM    7  C15         0      61.994  11.344 -21.989  1.00  0.00     0.049 C 
HETATM    8  C16         0      61.965  11.329 -20.599  1.00  0.00     0.093 C 
HETATM    9  C18         0      62.955  10.559 -20.000  1.00  0.00     0.048 C 
HETATM   10  C19         0      64.120  10.248 -20.688  1.00  0.00     0.096 C 
HETATM   11  C21         0      64.288  10.688 -21.973  1.00  0.00     0.084 C 
ENDROOT
BRANCH  10  12
HETATM   12  O20         0      65.253   9.875 -19.973  1.00  0.00    -0.359 OA
HETATM   13  H20         0      65.705   9.083 -20.236  1.00  0.00     0.218 HD
ENDBRANCH  10  12
BRANCH   4  14
HETATM   14  C5          0      64.537  12.330 -25.752  1.00  0.00     0.025 C 
HETATM   15  C6          0      63.873  13.544 -25.852  1.00  0.00     0.004 C 
HETATM   16  C7          0      64.540  14.595 -26.473  1.00  0.00     0.026 C 
HETATM   17  C8          0      65.771  14.412 -27.094  1.00  0.00     0.112 C 
HETATM   18  C10         0      66.033  13.106 -27.488  1.00  0.00     0.112 C 
HETATM   19  C12         0      65.418  12.071 -26.794  1.00  0.00     0.028 C 
BRANCH  17  20
HETATM   20  O9          0      66.716  15.422 -27.108  1.00  0.00    -0.357 OA
HETATM   21  H9          0      66.919  15.966 -26.355  1.00  0.00     0.218 HD
ENDBRANCH  17  20
BRANCH  18  22
HETATM   22  O11         0      67.157  12.901 -28.276  1.00  0.00    -0.357 OA
HETATM   23  H11         0      67.664  13.670 -28.511  1.00  0.00     0.218 HD
ENDBRANCH  18  22
ENDBRANCH   4  14
BRANCH   8  24
HETATM   24  O17         0      61.226  12.271 -19.875  1.00  0.00    -0.359 OA
HETATM   25  H17         0      61.488  12.550 -19.006  1.00  0.00     0.218 HD
ENDBRANCH   8  24
TORSDOF 5
ENDMDL
MODEL 4
REMARK VINA RESULT:      -1.2      2.309      6.707
REMARK  5 active torsions:
REMARK  status: ('A' for Active; 'I' for Inactive)
REMARK    1  A    between atoms: C4_4  and  C5_5 
REMARK    2  A    between atoms: C8_8  and  O9_9 
REMARK    3  A    between atoms: C10_11  and  O11_12 
REMARK    4  A    between atoms: C16_18  and  O17_19 
REMARK    5  A    between atoms: C19_22  and  O20_23 
ROOT
HETATM    1  O1          0      65.136  14.614 -25.158  1.00  0.00    -0.286 OA
HETATM    2  C2          0      65.615  13.714 -24.414  1.00  0.00     0.201 C 
HETATM    3  C3          0      64.847  12.691 -23.885  1.00  0.00     0.067 C 
HETATM    4  C4          0      65.378  11.772 -22.986  1.00  0.00     0.103 C 
HETATM    5  O13         0      66.652  11.875 -22.651  1.00  0.00    -0.307 OA
HETATM    6  C14         0      67.415  12.849 -23.096  1.00  0.00     0.107 C 
HETATM    7  C15         0      68.599  13.197 -22.462  1.00  0.00     0.049 C 
HETATM    8  C16         0      69.266  14.375 -22.776  1.00  0.00     0.093 C 
HETATM    9  C18         0      69.011  14.873 -24.048  1.00  0.00     0.048 C 
HETATM   10  C19         0      67.859  14.508 -24.730  1.00  0.00     0.096 C 
HETATM   11  C21         0      66.975  13.638 -24.153  1.00  0.00     0.084 C 
ENDROOT
BRANCH  10  12
HETATM   12  O20         0      67.398  15.313 -25.767  1.00  0.00    -0.359 OA
HETATM   13  H20         0      66.538  15.705 -25.679  1.00  0.00     0.218 HD
ENDBRANCH  10  12
BRANCH   4  14
HETATM   14  C5          0      64.450  11.145 -22.043  1.00  0.00     0.025 C 
HETATM   15  C6          0      64.629  11.192 -20.668  1.00  0.00     0.004 C 
HETATM   16  C7          0      63.496  11.344 -19.875  1.00  0.00     0.026 C 
HETATM   17  C8          0      62.216  11.316 -20.419  1.00  0.00     0.112 C 
HETATM   18  C10         0      62.117  10.651 -21.634  1.00  0.00     0.112 C 
HETATM   19  C12         0      63.243  10.588 -22.446  1.00  0.00     0.028 C 
BRANCH  17  20
HETATM   20  O9          0      61.198  12.079 -19.875  1.00  0.00    -0.357 OA
HETATM   21  H9          0      61.268  12.541 -19.048  1.00  0.00     0.218 HD
ENDBRANCH  17  20
BRANCH  18  22
HETATM   22  O11         0      60.838  10.429 -22.126  1.00  0.00    -0.357 OA
HETATM   23  H11         0      60.321   9.760 -21.693  1.00  0.00     0.218 HD
ENDBRANCH  18  22
ENDBRANCH   4  14
BRANCH   8  24
HETATM   24  O17         0      69.864  15.161 -21.784  1.00  0.00    -0.359 OA
HETATM   25  H17         0      69.867  14.896 -20.872  1.00  0.00     0.218 HD
ENDBRANCH   8  24
TORSDOF 5
ENDMDL
MODEL 5
REMARK VINA RESULT:      -1.2      4.666      6.531
REMARK  5 active torsions:
REMARK  status: ('A' for Active; 'I' for Inactive)
REMARK    1  A    between atoms: C4_4  and  C5_5 
REMARK    2  A    between atoms: C8_8  and  O9_9 
REMARK    3  A    between atoms: C10_11  and  O11_12 
REMARK    4  A    between atoms: C16_18  and  O17_19 
REMARK    5  A    between atoms: C19_22  and  O20_23 
ROOT
HETATM    1  O1          0      65.379  12.398 -23.589  1.00  0.00    -0.286 OA
HETATM    2  C2          0      64.429  11.568 -23.601  1.00  0.00     0.201 C 
HETATM    3  C3          0      64.031  10.900 -24.746  1.00  0.00     0.067 C 
HETATM    4  C4          0      62.917  10.068 -24.754  1.00  0.00     0.103 C 
HETATM    5  O13         0      62.241   9.901 -23.631  1.00  0.00    -0.307 OA
HETATM    6  C14         0      62.554  10.540 -22.526  1.00  0.00     0.107 C 
HETATM    7  C15         0      61.648  10.688 -21.485  1.00  0.00     0.049 C 
HETATM    8  C16         0      61.888  11.570 -20.439  1.00  0.00     0.093 C 
HETATM    9  C18         0      63.228  11.861 -20.212  1.00  0.00     0.048 C 
HETATM   10  C19         0      64.169  11.680 -21.217  1.00  0.00     0.096 C 
HETATM   11  C21         0      63.777  11.196 -22.435  1.00  0.00     0.084 C 
ENDROOT
BRANCH  10  12
HETATM   12  O20         0      65.381  12.360 -21.144  1.00  0.00    -0.359 OA
HETATM   13  H20         0      65.933  12.370 -21.917  1.00  0.00     0.218 HD
ENDBRANCH  10  12
BRANCH   4  14
HETATM   14  C5          0      62.218   9.896 -26.030  1.00  0.00     0.025 C 
HETATM   15  C6          0      60.835   9.882 -26.133  1.00  0.00     0.004 C 
HETATM   16  C7          0      60.265  10.502 -27.241  1.00  0.00     0.026 C 
HETATM   17  C8          0      61.045  11.002 -28.278  1.00  0.00     0.112 C 
HETATM   18  C10         0      62.302  10.423 -28.390  1.00  0.00     0.112 C 
HETATM   19  C12         0      62.885   9.886 -27.248  1.00  0.00     0.028 C 
BRANCH  17  20
HETATM   20  O9          0      60.652  12.126 -28.982  1.00  0.00    -0.357 OA
HETATM   21  H9          0      61.174  12.918 -29.048  1.00  0.00     0.218 HD
ENDBRANCH  17  20
BRANCH  18  22
HETATM   22  O11         0      63.045  10.747 -29.516  1.00  0.00    -0.357 OA
HETATM   23  H11         0      63.351  10.024 -30.052  1.00  0.00     0.218 HD
ENDBRANCH  18  22
ENDBRANCH   4  14
BRANCH   8  24
HETATM   24  O17         0      60.864  12.352 -19.894  1.00  0.00    -0.359 OA
HETATM   25  H17         0      60.971  12.813 -19.071  1.00  0.00     0.218 HD
ENDBRANCH   8  24
TORSDOF 5
ENDMDL
MODEL 6
REMARK VINA RESULT:      -1.2      4.721      6.883
REMARK  5 active torsions:
REMARK  status: ('A' for Active; 'I' for Inactive)
REMARK    1  A    between atoms: C4_4  and  C5_5 
REMARK    2  A    between atoms: C8_8  and  O9_9 
REMARK    3  A    between atoms: C10_11  and  O11_12 
REMARK    4  A    between atoms: C16_18  and  O17_19 
REMARK    5  A    between atoms: C19_22  and  O20_23 
ROOT
HETATM    1  O1          0      63.852  16.477 -25.375  1.00  0.00    -0.286 OA
HETATM    2  C2          0      62.858  15.889 -24.867  1.00  0.00     0.201 C 
HETATM    3  C3          0      62.683  15.756 -23.500  1.00  0.00     0.067 C 
HETATM    4  C4          0      61.632  15.015 -22.969  1.00  0.00     0.103 C 
HETATM    5  O13         0      60.775  14.446 -23.798  1.00  0.00    -0.307 OA
HETATM    6  C14         0      60.916  14.511 -25.104  1.00  0.00     0.107 C 
HETATM    7  C15         0      60.284  13.614 -25.953  1.00  0.00     0.049 C 
HETATM    8  C16         0      60.631  13.523 -27.295  1.00  0.00     0.093 C 
HETATM    9  C18         0      61.205  14.669 -27.832  1.00  0.00     0.048 C 
HETATM   10  C19         0      61.805  15.610 -27.007  1.00  0.00     0.096 C 
HETATM   11  C21         0      61.817  15.416 -25.652  1.00  0.00     0.084 C 
ENDROOT
BRANCH  10  12
HETATM   12  O20         0      62.731  16.497 -27.547  1.00  0.00    -0.359 OA
HETATM   13  H20         0      63.608  16.502 -27.183  1.00  0.00     0.218 HD
ENDBRANCH  10  12
BRANCH   4  14
HETATM   14  C5          0      61.833  14.423 -21.646  1.00  0.00     0.025 C 
HETATM   15  C6          0      60.781  14.089 -20.804  1.00  0.00     0.004 C 
HETATM   16  C7          0      60.899  12.921 -20.058  1.00  0.00     0.026 C 
HETATM   17  C8          0      62.075  12.180 -20.044  1.00  0.00     0.112 C 
HETATM   18  C10         0      63.216  12.897 -20.377  1.00  0.00     0.112 C 
HETATM   19  C12         0      63.080  14.012 -21.195  1.00  0.00     0.028 C 
BRANCH  17  20
HETATM   20  O9          0      62.043  10.802 -19.916  1.00  0.00    -0.357 OA
HETATM   21  H9          0      61.386  10.334 -19.413  1.00  0.00     0.218 HD
ENDBRANCH  17  20
BRANCH  18  22
HETATM   22  O11         0      64.435  12.258 -20.197  1.00  0.00    -0.357 OA
HETATM   23  H11         0      64.908  12.005 -20.981  1.00  0.00     0.218 HD
ENDBRANCH  18  22
ENDBRANCH   4  14
BRANCH   8  24
HETATM   24  O17         0      60.711  12.286 -27.945  1.00  0.00    -0.359 OA
HETATM   25  H17         0      59.973  11.690 -27.975  1.00  0.00     0.218 HD
ENDBRANCH   8  24
TORSDOF 5
ENDMDL
MODEL 7
REMARK VINA RESULT:      -1.1      3.407      6.582
REMARK  5 active torsions:
REMARK  status: ('A' for Active; 'I' for Inactive)
REMARK    1  A    between atoms: C4_4  and  C5_5 
REMARK    2  A    between atoms: C8_8  and  O9_9 
REMARK    3  A    between atoms: C10_11  and  O11_12 
REMARK    4  A    between atoms: C16_18  and  O17_19 
REMARK    5  A    between atoms: C19_22  and  O20_23 
ROOT
HETATM    1  O1          0      65.683  18.054 -20.182  1.00  0.00    -0.286 OA
HETATM    2  C2          0      64.935  17.295 -20.857  1.00  0.00     0.201 C 
HETATM    3  C3          0      63.983  16.472 -20.280  1.00  0.00     0.067 C 
HETATM    4  C4          0      63.242  15.571 -21.037  1.00  0.00     0.103 C 
HETATM    5  O13         0      63.445  15.522 -22.342  1.00  0.00    -0.307 OA
HETATM    6  C14         0      64.362  16.254 -22.935  1.00  0.00     0.107 C 
HETATM    7  C15         0      64.853  15.933 -24.192  1.00  0.00     0.049 C 
HETATM    8  C16         0      65.989  16.550 -24.703  1.00  0.00     0.093 C 
HETATM    9  C18         0      66.264  17.804 -24.172  1.00  0.00     0.048 C 
HETATM   10  C19         0      65.751  18.175 -22.937  1.00  0.00     0.096 C 
HETATM   11  C21         0      64.953  17.306 -22.244  1.00  0.00     0.084 C 
ENDROOT
BRANCH  10  12
HETATM   12  O20         0      66.360  19.207 -22.229  1.00  0.00    -0.359 OA
HETATM   13  H20         0      65.945  19.503 -21.428  1.00  0.00     0.218 HD
ENDBRANCH  10  12
BRANCH   4  14
HETATM   14  C5          0      62.742  14.376 -20.355  1.00  0.00     0.025 C 
HETATM   15  C6          0      61.389  14.099 -20.220  1.00  0.00     0.004 C 
HETATM   16  C7          0      60.989  12.772 -20.341  1.00  0.00     0.026 C 
HETATM   17  C8          0      61.912  11.739 -20.458  1.00  0.00     0.112 C 
HETATM   18  C10         0      63.174  12.029 -19.957  1.00  0.00     0.112 C 
HETATM   19  C12         0      63.582  13.357 -19.926  1.00  0.00     0.028 C 
BRANCH  17  20
HETATM   20  O9          0      61.624  10.612 -21.208  1.00  0.00    -0.357 OA
HETATM   21  H9          0      60.743  10.350 -21.450  1.00  0.00     0.218 HD
ENDBRANCH  17  20
BRANCH  18  22
HETATM   22  O11         0      64.075  10.977 -19.876  1.00  0.00    -0.357 OA
HETATM   23  H11         0      64.060  10.458 -19.080  1.00  0.00     0.218 HD
ENDBRANCH  18  22
ENDBRANCH   4  14
BRANCH   8  24
HETATM   24  O17         0      66.946  15.831 -25.426  1.00  0.00    -0.359 OA
HETATM   25  H17         0      66.859  15.683 -26.361  1.00  0.00     0.218 HD
ENDBRANCH   8  24
TORSDOF 5
ENDMDL
MODEL 8
REMARK VINA RESULT:      -1.1      5.088      6.472
REMARK  5 active torsions:
REMARK  status: ('A' for Active; 'I' for Inactive)
REMARK    1  A    between atoms: C4_4  and  C5_5 
REMARK    2  A    between atoms: C8_8  and  O9_9 
REMARK    3  A    between atoms: C10_11  and  O11_12 
REMARK    4  A    between atoms: C16_18  and  O17_19 
REMARK    5  A    between atoms: C19_22  and  O20_23 
ROOT
HETATM    1  O1          0      63.342  11.463 -21.792  1.00  0.00    -0.286 OA
HETATM    2  C2          0      62.524  12.111 -22.500  1.00  0.00     0.201 C 
HETATM    3  C3          0      62.676  12.271 -23.867  1.00  0.00     0.067 C 
HETATM    4  C4          0      61.817  13.076 -24.606  1.00  0.00     0.103 C 
HETATM    5  O13         0      60.822  13.683 -23.984  1.00  0.00    -0.307 OA
HETATM    6  C14         0      60.655  13.595 -22.682  1.00  0.00     0.107 C 
HETATM    7  C15         0      59.892  14.517 -21.980  1.00  0.00     0.049 C 
HETATM    8  C16         0      59.925  14.572 -20.591  1.00  0.00     0.093 C 
HETATM    9  C18         0      60.298  13.389 -19.965  1.00  0.00     0.048 C 
HETATM   10  C19         0      61.022  12.425 -20.653  1.00  0.00     0.096 C 
HETATM   11  C21         0      61.357  12.634 -21.963  1.00  0.00     0.084 C 
ENDROOT
BRANCH  10  12
HETATM   12  O20         0      61.750  11.481 -19.936  1.00  0.00    -0.359 OA
HETATM   13  H20         0      62.535  11.126 -20.337  1.00  0.00     0.218 HD
ENDBRANCH  10  12
BRANCH   4  14
HETATM   14  C5          0      62.348  13.671 -25.834  1.00  0.00     0.025 C 
HETATM   15  C6          0      63.139  12.967 -26.730  1.00  0.00     0.004 C 
HETATM   16  C7          0      62.945  13.205 -28.087  1.00  0.00     0.026 C 
HETATM   17  C8          0      62.089  14.204 -28.537  1.00  0.00     0.112 C 
HETATM   18  C10         0      61.857  15.224 -27.624  1.00  0.00     0.112 C 
HETATM   19  C12         0      61.976  14.937 -26.269  1.00  0.00     0.028 C 
BRANCH  17  20
HETATM   20  O9          0      61.379  14.052 -29.715  1.00  0.00    -0.357 OA
HETATM   21  H9          0      61.653  14.420 -30.547  1.00  0.00     0.218 HD
ENDBRANCH  17  20
BRANCH  18  22
HETATM   22  O11         0      61.167  16.336 -28.085  1.00  0.00    -0.357 OA
HETATM   23  H11         0      61.549  16.806 -28.817  1.00  0.00     0.218 HD
ENDBRANCH  18  22
ENDBRANCH   4  14
BRANCH   8  24
HETATM   24  O17         0      59.917  15.795 -19.910  1.00  0.00    -0.359 OA
HETATM   25  H17         0      60.466  16.521 -20.182  1.00  0.00     0.218 HD
ENDBRANCH   8  24
TORSDOF 5
ENDMDL
MODEL 9
REMARK VINA RESULT:      -1.1      1.546      2.161
REMARK  5 active torsions:
REMARK  status: ('A' for Active; 'I' for Inactive)
REMARK    1  A    between atoms: C4_4  and  C5_5 
REMARK    2  A    between atoms: C8_8  and  O9_9 
REMARK    3  A    between atoms: C10_11  and  O11_12 
REMARK    4  A    between atoms: C16_18  and  O17_19 
REMARK    5  A    between atoms: C19_22  and  O20_23 
ROOT
HETATM    1  O1          0      62.580  16.069 -21.549  1.00  0.00    -0.286 OA
HETATM    2  C2          0      63.378  15.276 -20.978  1.00  0.00     0.201 C 
HETATM    3  C3          0      64.734  15.531 -20.861  1.00  0.00     0.067 C 
HETATM    4  C4          0      65.607  14.595 -20.318  1.00  0.00     0.103 C 
HETATM    5  O13         0      65.118  13.446 -19.887  1.00  0.00    -0.307 OA
HETATM    6  C14         0      63.845  13.139 -20.008  1.00  0.00     0.107 C 
HETATM    7  C15         0      63.399  11.827 -19.937  1.00  0.00     0.049 C 
HETATM    8  C16         0      62.107  11.482 -20.315  1.00  0.00     0.093 C 
HETATM    9  C18         0      61.179  12.513 -20.242  1.00  0.00     0.048 C 
HETATM   10  C19         0      61.594  13.838 -20.263  1.00  0.00     0.096 C 
HETATM   11  C21         0      62.928  14.131 -20.339  1.00  0.00     0.084 C 
ENDROOT
BRANCH  10  12
HETATM   12  O20         0      60.687  14.829 -20.625  1.00  0.00    -0.359 OA
HETATM   13  H20         0      59.797  14.566 -20.828  1.00  0.00     0.218 HD
ENDBRANCH  10  12
BRANCH   4  14
HETATM   14  C5          0      67.002  14.645 -20.759  1.00  0.00     0.025 C 
HETATM   15  C6          0      68.067  14.744 -19.875  1.00  0.00     0.004 C 
HETATM   16  C7          0      69.220  14.025 -20.173  1.00  0.00     0.026 C 
HETATM   17  C8          0      69.363  13.339 -21.374  1.00  0.00     0.112 C 
HETATM   18  C10         0      68.563  13.807 -22.408  1.00  0.00     0.112 C 
HETATM   19  C12         0      67.373  14.448 -22.083  1.00  0.00     0.028 C 
BRANCH  17  20
HETATM   20  O9          0      70.088  12.162 -21.437  1.00  0.00    -0.357 OA
HETATM   21  H9          0      70.172  11.554 -20.711  1.00  0.00     0.218 HD
ENDBRANCH  17  20
BRANCH  18  22
HETATM   22  O11         0      68.800  13.286 -23.672  1.00  0.00    -0.357 OA
HETATM   23  H11         0      69.692  13.331 -23.995  1.00  0.00     0.218 HD
ENDBRANCH  18  22
ENDBRANCH   4  14
BRANCH   8  24
HETATM   24  O17         0      61.845  10.305 -21.026  1.00  0.00    -0.359 OA
HETATM   25  H17         0      61.172  10.266 -21.695  1.00  0.00     0.218 HD
ENDBRANCH   8  24
TORSDOF 5
ENDMDL
