MODEL 1
REMARK VINA RESULT:      -3.8      0.000      0.000
REMARK  5 active torsions:
REMARK  status: ('A' for Active; 'I' for Inactive)
REMARK    1  A    between atoms: C4_4  and  C5_5 
REMARK    2  A    between atoms: C8_8  and  O9_9 
REMARK    3  A    between atoms: C10_11  and  O11_12 
REMARK    4  A    between atoms: C16_18  and  O17_19 
REMARK    5  A    between atoms: C19_22  and  O20_23 
ROOT
HETATM    1  O1          0      58.980   7.255 -23.279  1.00  0.00    -0.286 OA
HETATM    2  C2          0      60.167   7.054 -22.901  1.00  0.00     0.201 C 
HETATM    3  C3          0      60.712   5.787 -22.782  1.00  0.00     0.067 C 
HETATM    4  C4          0      61.987   5.588 -22.266  1.00  0.00     0.103 C 
HETATM    5  O13         0      62.696   6.643 -21.902  1.00  0.00    -0.307 OA
HETATM    6  C14         0      62.212   7.864 -21.959  1.00  0.00     0.107 C 
HETATM    7  C15         0      62.766   8.905 -21.228  1.00  0.00     0.049 C 
HETATM    8  C16         0      62.108  10.121 -21.091  1.00  0.00     0.093 C 
HETATM    9  C18         0      61.203  10.416 -22.104  1.00  0.00     0.048 C 
HETATM   10  C19         0      60.664   9.403 -22.885  1.00  0.00     0.096 C 
HETATM   11  C21         0      61.040   8.105 -22.668  1.00  0.00     0.084 C 
ENDROOT
BRANCH  10  12
HETATM   12  O20         0      59.475   9.632 -23.570  1.00  0.00    -0.359 OA
HETATM   13  H20         0      59.297   9.106 -24.341  1.00  0.00     0.218 HD
ENDBRANCH  10  12
BRANCH   4  14
HETATM   14  C5          0      62.256   4.302 -21.621  1.00  0.00     0.025 C 
HETATM   15  C6          0      62.059   4.085 -20.265  1.00  0.00     0.004 C 
HETATM   16  C7          0      61.551   2.849 -19.877  1.00  0.00     0.026 C 
HETATM   17  C8          0      61.370   1.815 -20.790  1.00  0.00     0.112 C 
HETATM   18  C10         0      62.159   1.904 -21.929  1.00  0.00     0.112 C 
HETATM   19  C12         0      62.583   3.161 -22.343  1.00  0.00     0.028 C 
BRANCH  17  20
HETATM   20  O9          0      60.333   0.912 -20.641  1.00  0.00    -0.357 OA
HETATM   21  H9          0      59.620   1.023 -20.023  1.00  0.00     0.218 HD
ENDBRANCH  17  20
BRANCH  18  22
HETATM   22  O11         0      62.158   0.808 -22.780  1.00  0.00    -0.357 OA
HETATM   23  H11         0      62.505   0.943 -23.655  1.00  0.00     0.218 HD
ENDBRANCH  18  22
ENDBRANCH   4  14
BRANCH   8  24
HETATM   24  O17         0      62.107  10.817 -19.877  1.00  0.00    -0.359 OA
HETATM   25  H17         0      62.894  11.221 -19.532  1.00  0.00     0.218 HD
ENDBRANCH   8  24
TORSDOF 5
ENDMDL
MODEL 2
REMARK VINA RESULT:      -3.8      2.107      6.265
REMARK  5 active torsions:
REMARK  status: ('A' for Active; 'I' for Inactive)
REMARK    1  A    between atoms: C4_4  and  C5_5 
REMARK    2  A    between atoms: C8_8  and  O9_9 
REMARK    3  A    between atoms: C10_11  and  O11_12 
REMARK    4  A    between atoms: C16_18  and  O17_19 
REMARK    5  A    between atoms: C19_22  and  O20_23 
ROOT
HETATM    1  O1          0      61.371   2.820 -20.281  1.00  0.00    -0.286 OA
HETATM    2  C2          0      61.792   3.812 -20.936  1.00  0.00     0.201 C 
HETATM    3  C3          0      62.719   4.707 -20.430  1.00  0.00     0.067 C 
HETATM    4  C4          0      63.089   5.848 -21.133  1.00  0.00     0.103 C 
HETATM    5  O13         0      62.553   6.064 -22.321  1.00  0.00    -0.307 OA
HETATM    6  C14         0      61.642   5.265 -22.832  1.00  0.00     0.107 C 
HETATM    7  C15         0      60.801   5.677 -23.856  1.00  0.00     0.049 C 
HETATM    8  C16         0      59.684   4.932 -24.215  1.00  0.00     0.093 C 
HETATM    9  C18         0      59.754   3.580 -23.903  1.00  0.00     0.048 C 
HETATM   10  C19         0      60.619   3.128 -22.916  1.00  0.00     0.096 C 
HETATM   11  C21         0      61.421   4.019 -22.256  1.00  0.00     0.084 C 
ENDROOT
BRANCH  10  12
HETATM   12  O20         0      60.382   1.895 -22.317  1.00  0.00    -0.359 OA
HETATM   13  H20         0      60.168   1.160 -22.879  1.00  0.00     0.218 HD
ENDBRANCH  10  12
BRANCH   4  14
HETATM   14  C5          0      63.553   6.996 -20.350  1.00  0.00     0.025 C 
HETATM   15  C6          0      64.891   7.214 -20.057  1.00  0.00     0.004 C 
HETATM   16  C7          0      65.350   8.527 -20.077  1.00  0.00     0.026 C 
HETATM   17  C8          0      64.483   9.600 -20.250  1.00  0.00     0.112 C 
HETATM   18  C10         0      63.164   9.341 -19.902  1.00  0.00     0.112 C 
HETATM   19  C12         0      62.707   8.030 -19.973  1.00  0.00     0.028 C 
BRANCH  17  20
HETATM   20  O9          0      64.892  10.742 -20.916  1.00  0.00    -0.357 OA
HETATM   21  H9          0      64.299  11.327 -21.374  1.00  0.00     0.218 HD
ENDBRANCH  17  20
BRANCH  18  22
HETATM   22  O11         0      62.297  10.424 -19.876  1.00  0.00    -0.357 OA
HETATM   23  H11         0      61.769  10.572 -20.652  1.00  0.00     0.218 HD
ENDBRANCH  18  22
ENDBRANCH   4  14
BRANCH   8  24
HETATM   24  O17         0      58.471   5.549 -24.545  1.00  0.00    -0.359 OA
HETATM   25  H17         0      58.053   5.410 -25.386  1.00  0.00     0.218 HD
ENDBRANCH   8  24
TORSDOF 5
ENDMDL
MODEL 3
REMARK VINA RESULT:      -3.6      2.920      6.192
REMARK  5 active torsions:
REMARK  status: ('A' for Active; 'I' for Inactive)
REMARK    1  A    between atoms: C4_4  and  C5_5 
REMARK    2  A    between atoms: C8_8  and  O9_9 
REMARK    3  A    between atoms: C10_11  and  O11_12 
REMARK    4  A    between atoms: C16_18  and  O17_19 
REMARK    5  A    between atoms: C19_22  and  O20_23 
ROOT
HETATM    1  O1          0      61.159   7.741 -21.775  1.00  0.00    -0.286 OA
HETATM    2  C2          0      60.881   6.729 -22.475  1.00  0.00     0.201 C 
HETATM    3  C3          0      60.075   6.792 -23.599  1.00  0.00     0.067 C 
HETATM    4  C4          0      59.701   5.647 -24.293  1.00  0.00     0.103 C 
HETATM    5  O13         0      60.147   4.476 -23.873  1.00  0.00    -0.307 OA
HETATM    6  C14         0      60.884   4.356 -22.790  1.00  0.00     0.107 C 
HETATM    7  C15         0      61.017   3.145 -22.127  1.00  0.00     0.049 C 
HETATM    8  C16         0      61.579   3.075 -20.857  1.00  0.00     0.093 C 
HETATM    9  C18         0      62.443   4.116 -20.539  1.00  0.00     0.048 C 
HETATM   10  C19         0      62.368   5.326 -21.215  1.00  0.00     0.096 C 
HETATM   11  C21         0      61.447   5.490 -22.214  1.00  0.00     0.084 C 
ENDROOT
BRANCH  10  12
HETATM   12  O20         0      62.902   6.468 -20.627  1.00  0.00    -0.359 OA
HETATM   13  H20         0      63.190   6.411 -19.724  1.00  0.00     0.218 HD
ENDBRANCH  10  12
BRANCH   4  14
HETATM   14  C5          0      58.440   5.695 -25.035  1.00  0.00     0.025 C 
HETATM   15  C6          0      57.718   4.558 -25.365  1.00  0.00     0.004 C 
HETATM   16  C7          0      56.330   4.633 -25.299  1.00  0.00     0.026 C 
HETATM   17  C8          0      55.677   5.834 -25.044  1.00  0.00     0.112 C 
HETATM   18  C10         0      56.410   6.971 -25.357  1.00  0.00     0.112 C 
HETATM   19  C12         0      57.797   6.890 -25.333  1.00  0.00     0.028 C 
BRANCH  17  20
HETATM   20  O9          0      54.486   5.858 -24.340  1.00  0.00    -0.357 OA
HETATM   21  H9          0      54.125   5.104 -23.889  1.00  0.00     0.218 HD
ENDBRANCH  17  20
BRANCH  18  22
HETATM   22  O11         0      55.741   8.185 -25.301  1.00  0.00    -0.357 OA
HETATM   23  H11         0      55.795   8.669 -24.485  1.00  0.00     0.218 HD
ENDBRANCH  18  22
ENDBRANCH   4  14
BRANCH   8  24
HETATM   24  O17         0      61.057   2.226 -19.875  1.00  0.00    -0.359 OA
HETATM   25  H17         0      61.547   1.481 -19.548  1.00  0.00     0.218 HD
ENDBRANCH   8  24
TORSDOF 5
ENDMDL
MODEL 4
REMARK VINA RESULT:      -3.5      1.567      2.082
REMARK  5 active torsions:
REMARK  status: ('A' for Active; 'I' for Inactive)
REMARK    1  A    between atoms: C4_4  and  C5_5 
REMARK    2  A    between atoms: C8_8  and  O9_9 
REMARK    3  A    between atoms: C10_11  and  O11_12 
REMARK    4  A    between atoms: C16_18  and  O17_19 
REMARK    5  A    between atoms: C19_22  and  O20_23 
ROOT
HETATM    1  O1          0      58.148   8.938 -23.417  1.00  0.00    -0.286 OA
HETATM    2  C2          0      59.384   8.789 -23.213  1.00  0.00     0.201 C 
HETATM    3  C3          0      60.027   7.571 -23.357  1.00  0.00     0.067 C 
HETATM    4  C4          0      61.368   7.411 -23.027  1.00  0.00     0.103 C 
HETATM    5  O13         0      62.042   8.458 -22.585  1.00  0.00    -0.307 OA
HETATM    6  C14         0      61.471   9.627 -22.394  1.00  0.00     0.107 C 
HETATM    7  C15         0      62.039  10.593 -21.577  1.00  0.00     0.049 C 
HETATM    8  C16         0      61.321  11.714 -21.176  1.00  0.00     0.093 C 
HETATM    9  C18         0      60.277  12.074 -22.020  1.00  0.00     0.048 C 
HETATM   10  C19         0      59.716  11.144 -22.885  1.00  0.00     0.096 C 
HETATM   11  C21         0      60.205   9.866 -22.919  1.00  0.00     0.084 C 
ENDROOT
BRANCH  10  12
HETATM   12  O20         0      58.437  11.366 -23.386  1.00  0.00    -0.359 OA
HETATM   13  H20         0      57.774  10.705 -23.223  1.00  0.00     0.218 HD
ENDBRANCH  10  12
BRANCH   4  14
HETATM   14  C5          0      61.804   6.072 -22.627  1.00  0.00     0.025 C 
HETATM   15  C6          0      62.706   5.851 -21.596  1.00  0.00     0.004 C 
HETATM   16  C7          0      62.485   4.754 -20.771  1.00  0.00     0.026 C 
HETATM   17  C8          0      61.481   3.829 -21.039  1.00  0.00     0.112 C 
HETATM   18  C10         0      61.080   3.777 -22.367  1.00  0.00     0.112 C 
HETATM   19  C12         0      61.234   4.917 -23.148  1.00  0.00     0.028 C 
BRANCH  17  20
HETATM   20  O9          0      60.815   3.188 -20.010  1.00  0.00    -0.357 OA
HETATM   21  H9          0      61.202   2.504 -19.476  1.00  0.00     0.218 HD
ENDBRANCH  17  20
BRANCH  18  22
HETATM   22  O11         0      60.222   2.748 -22.725  1.00  0.00    -0.357 OA
HETATM   23  H11         0      59.290   2.931 -22.685  1.00  0.00     0.218 HD
ENDBRANCH  18  22
ENDBRANCH   4  14
BRANCH   8  24
HETATM   24  O17         0      61.423  12.219 -19.876  1.00  0.00    -0.359 OA
HETATM   25  H17         0      60.666  12.549 -19.407  1.00  0.00     0.218 HD
ENDBRANCH   8  24
TORSDOF 5
ENDMDL
MODEL 5
REMARK VINA RESULT:      -3.5      1.934      3.191
REMARK  5 active torsions:
REMARK  status: ('A' for Active; 'I' for Inactive)
REMARK    1  A    between atoms: C4_4  and  C5_5 
REMARK    2  A    between atoms: C8_8  and  O9_9 
REMARK    3  A    between atoms: C10_11  and  O11_12 
REMARK    4  A    between atoms: C16_18  and  O17_19 
REMARK    5  A    between atoms: C19_22  and  O20_23 
ROOT
HETATM    1  O1          0      64.263   7.077 -20.738  1.00  0.00    -0.286 OA
HETATM    2  C2          0      63.094   6.946 -21.193  1.00  0.00     0.201 C 
HETATM    3  C3          0      62.551   5.716 -21.522  1.00  0.00     0.067 C 
HETATM    4  C4          0      61.299   5.608 -22.117  1.00  0.00     0.103 C 
HETATM    5  O13         0      60.610   6.711 -22.350  1.00  0.00    -0.307 OA
HETATM    6  C14         0      61.094   7.905 -22.091  1.00  0.00     0.107 C 
HETATM    7  C15         0      60.576   9.048 -22.683  1.00  0.00     0.049 C 
HETATM    8  C16         0      61.242  10.265 -22.609  1.00  0.00     0.093 C 
HETATM    9  C18         0      62.103  10.398 -21.526  1.00  0.00     0.048 C 
HETATM   10  C19         0      62.604   9.275 -20.881  1.00  0.00     0.096 C 
HETATM   11  C21         0      62.234   8.028 -21.304  1.00  0.00     0.084 C 
ENDROOT
BRANCH  10  12
HETATM   12  O20         0      63.763   9.389 -20.119  1.00  0.00    -0.359 OA
HETATM   13  H20         0      63.999   8.660 -19.558  1.00  0.00     0.218 HD
ENDBRANCH  10  12
BRANCH   4  14
HETATM   14  C5          0      61.055   4.433 -22.956  1.00  0.00     0.025 C 
HETATM   15  C6          0      61.754   3.244 -22.807  1.00  0.00     0.004 C 
HETATM   16  C7          0      61.048   2.057 -22.971  1.00  0.00     0.026 C 
HETATM   17  C8          0      59.725   2.047 -23.399  1.00  0.00     0.112 C 
HETATM   18  C10         0      59.338   3.177 -24.108  1.00  0.00     0.112 C 
HETATM   19  C12         0      60.005   4.371 -23.863  1.00  0.00     0.028 C 
BRANCH  17  20
HETATM   20  O9          0      58.843   1.079 -22.955  1.00  0.00    -0.357 OA
HETATM   21  H9          0      59.093   0.180 -22.773  1.00  0.00     0.218 HD
ENDBRANCH  17  20
BRANCH  18  22
HETATM   22  O11         0      58.092   3.139 -24.718  1.00  0.00    -0.357 OA
HETATM   23  H11         0      57.503   2.443 -24.450  1.00  0.00     0.218 HD
ENDBRANCH  18  22
ENDBRANCH   4  14
BRANCH   8  24
HETATM   24  O17         0      61.300  11.133 -23.705  1.00  0.00    -0.359 OA
HETATM   25  H17         0      60.935  10.896 -24.549  1.00  0.00     0.218 HD
ENDBRANCH   8  24
TORSDOF 5
ENDMDL
MODEL 6
REMARK VINA RESULT:      -3.4      1.673      2.946
REMARK  5 active torsions:
REMARK  status: ('A' for Active; 'I' for Inactive)
REMARK    1  A    between atoms: C4_4  and  C5_5 
REMARK    2  A    between atoms: C8_8  and  O9_9 
REMARK    3  A    between atoms: C10_11  and  O11_12 
REMARK    4  A    between atoms: C16_18  and  O17_19 
REMARK    5  A    between atoms: C19_22  and  O20_23 
ROOT
HETATM    1  O1          0      63.978   8.474 -21.826  1.00  0.00    -0.286 OA
HETATM    2  C2          0      62.839   7.950 -21.968  1.00  0.00     0.201 C 
HETATM    3  C3          0      62.642   6.580 -21.995  1.00  0.00     0.067 C 
HETATM    4  C4          0      61.392   6.029 -22.255  1.00  0.00     0.103 C 
HETATM    5  O13         0      60.371   6.841 -22.461  1.00  0.00    -0.307 OA
HETATM    6  C14         0      60.511   8.148 -22.484  1.00  0.00     0.107 C 
HETATM    7  C15         0      59.569   8.974 -23.080  1.00  0.00     0.049 C 
HETATM    8  C16         0      59.838  10.315 -23.328  1.00  0.00     0.093 C 
HETATM    9  C18         0      60.807  10.880 -22.508  1.00  0.00     0.048 C 
HETATM   10  C19         0      61.736  10.079 -21.859  1.00  0.00     0.096 C 
HETATM   11  C21         0      61.688   8.721 -22.014  1.00  0.00     0.084 C 
ENDROOT
BRANCH  10  12
HETATM   12  O20         0      62.929  10.643 -21.415  1.00  0.00    -0.359 OA
HETATM   13  H20         0      63.742  10.283 -21.747  1.00  0.00     0.218 HD
ENDBRANCH  10  12
BRANCH   4  14
HETATM   14  C5          0      61.361   4.692 -22.850  1.00  0.00     0.025 C 
HETATM   15  C6          0      62.294   3.711 -22.547  1.00  0.00     0.004 C 
HETATM   16  C7          0      61.840   2.400 -22.441  1.00  0.00     0.026 C 
HETATM   17  C8          0      60.531   2.054 -22.757  1.00  0.00     0.112 C 
HETATM   18  C10         0      59.892   2.931 -23.623  1.00  0.00     0.112 C 
HETATM   19  C12         0      60.310   4.256 -23.647  1.00  0.00     0.028 C 
BRANCH  17  20
HETATM   20  O9          0      59.884   1.035 -22.080  1.00  0.00    -0.357 OA
HETATM   21  H9          0      59.127   0.572 -22.421  1.00  0.00     0.218 HD
ENDBRANCH  17  20
BRANCH  18  22
HETATM   22  O11         0      58.657   2.537 -24.119  1.00  0.00    -0.357 OA
HETATM   23  H11         0      58.154   1.931 -23.588  1.00  0.00     0.218 HD
ENDBRANCH  18  22
ENDBRANCH   4  14
BRANCH   8  24
HETATM   24  O17         0      59.421  10.936 -24.511  1.00  0.00    -0.359 OA
HETATM   25  H17         0      58.839  10.503 -25.124  1.00  0.00     0.218 HD
ENDBRANCH   8  24
TORSDOF 5
ENDMDL
MODEL 7
REMARK VINA RESULT:      -3.3      3.724      5.801
REMARK  5 active torsions:
REMARK  status: ('A' for Active; 'I' for Inactive)
REMARK    1  A    between atoms: C4_4  and  C5_5 
REMARK    2  A    between atoms: C8_8  and  O9_9 
REMARK    3  A    between atoms: C10_11  and  O11_12 
REMARK    4  A    between atoms: C16_18  and  O17_19 
REMARK    5  A    between atoms: C19_22  and  O20_23 
ROOT
HETATM    1  O1          0      55.585   5.332 -23.775  1.00  0.00    -0.286 OA
HETATM    2  C2          0      56.467   6.047 -24.325  1.00  0.00     0.201 C 
HETATM    3  C3          0      57.816   5.738 -24.284  1.00  0.00     0.067 C 
HETATM    4  C4          0      58.776   6.596 -24.809  1.00  0.00     0.103 C 
HETATM    5  O13         0      58.379   7.721 -25.377  1.00  0.00    -0.307 OA
HETATM    6  C14         0      57.115   8.080 -25.410  1.00  0.00     0.107 C 
HETATM    7  C15         0      56.734   9.395 -25.629  1.00  0.00     0.049 C 
HETATM    8  C16         0      55.426   9.814 -25.411  1.00  0.00     0.093 C 
HETATM    9  C18         0      54.468   8.812 -25.495  1.00  0.00     0.048 C 
HETATM   10  C19         0      54.822   7.480 -25.328  1.00  0.00     0.096 C 
HETATM   11  C21         0      56.130   7.150 -25.094  1.00  0.00     0.084 C 
ENDROOT
BRANCH  10  12
HETATM   12  O20         0      53.844   6.554 -24.981  1.00  0.00    -0.359 OA
HETATM   13  H20         0      54.071   5.632 -25.015  1.00  0.00     0.218 HD
ENDBRANCH  10  12
BRANCH   4  14
HETATM   14  C5          0      60.118   6.535 -24.227  1.00  0.00     0.025 C 
HETATM   15  C6          0      61.045   7.558 -24.367  1.00  0.00     0.004 C 
HETATM   16  C7          0      61.854   7.848 -23.273  1.00  0.00     0.026 C 
HETATM   17  C8          0      61.837   7.064 -22.125  1.00  0.00     0.112 C 
HETATM   18  C10         0      61.387   5.764 -22.317  1.00  0.00     0.112 C 
HETATM   19  C12         0      60.512   5.517 -23.368  1.00  0.00     0.028 C 
BRANCH  17  20
HETATM   20  O9          0      62.053   7.626 -20.879  1.00  0.00    -0.357 OA
HETATM   21  H9          0      61.986   7.143 -20.063  1.00  0.00     0.218 HD
ENDBRANCH  17  20
BRANCH  18  22
HETATM   22  O11         0      61.527   4.887 -21.251  1.00  0.00    -0.357 OA
HETATM   23  H11         0      60.750   4.410 -20.982  1.00  0.00     0.218 HD
ENDBRANCH  18  22
ENDBRANCH   4  14
BRANCH   8  24
HETATM   24  O17         0      55.145  11.054 -24.826  1.00  0.00    -0.359 OA
HETATM   25  H17         0      55.357  11.871 -25.263  1.00  0.00     0.218 HD
ENDBRANCH   8  24
TORSDOF 5
ENDMDL
MODEL 8
REMARK VINA RESULT:      -3.2      3.146      5.276
REMARK  5 active torsions:
REMARK  status: ('A' for Active; 'I' for Inactive)
REMARK    1  A    between atoms: C4_4  and  C5_5 
REMARK    2  A    between atoms: C8_8  and  O9_9 
REMARK    3  A    between atoms: C10_11  and  O11_12 
REMARK    4  A    between atoms: C16_18  and  O17_19 
REMARK    5  A    between atoms: C19_22  and  O20_23 
ROOT
HETATM    1  O1          0      59.251   1.601 -24.528  1.00  0.00    -0.286 OA
HETATM    2  C2          0      59.583   2.777 -24.214  1.00  0.00     0.201 C 
HETATM    3  C3          0      60.647   3.057 -23.373  1.00  0.00     0.067 C 
HETATM    4  C4          0      60.928   4.355 -22.962  1.00  0.00     0.103 C 
HETATM    5  O13         0      60.168   5.340 -23.405  1.00  0.00    -0.307 OA
HETATM    6  C14         0      59.123   5.125 -24.175  1.00  0.00     0.107 C 
HETATM    7  C15         0      58.111   6.064 -24.313  1.00  0.00     0.049 C 
HETATM    8  C16         0      56.901   5.738 -24.914  1.00  0.00     0.093 C 
HETATM    9  C18         0      56.956   4.670 -25.802  1.00  0.00     0.048 C 
HETATM   10  C19         0      57.981   3.738 -25.722  1.00  0.00     0.096 C 
HETATM   11  C21         0      58.955   3.880 -24.771  1.00  0.00     0.084 C 
ENDROOT
BRANCH  10  12
HETATM   12  O20         0      57.803   2.480 -26.290  1.00  0.00    -0.359 OA
HETATM   13  H20         0      57.069   2.359 -26.880  1.00  0.00     0.218 HD
ENDBRANCH  10  12
BRANCH   4  14
HETATM   14  C5          0      61.614   4.517 -21.678  1.00  0.00     0.025 C 
HETATM   15  C6          0      61.490   3.606 -20.640  1.00  0.00     0.004 C 
HETATM   16  C7          0      62.626   3.331 -19.884  1.00  0.00     0.026 C 
HETATM   17  C8          0      63.811   4.036 -20.066  1.00  0.00     0.112 C 
HETATM   18  C10         0      63.656   5.292 -20.638  1.00  0.00     0.112 C 
HETATM   19  C12         0      62.556   5.513 -21.458  1.00  0.00     0.028 C 
BRANCH  17  20
HETATM   20  O9          0      65.037   3.422 -19.881  1.00  0.00    -0.357 OA
HETATM   21  H9          0      65.267   2.579 -20.254  1.00  0.00     0.218 HD
ENDBRANCH  17  20
BRANCH  18  22
HETATM   22  O11         0      64.776   6.111 -20.669  1.00  0.00    -0.357 OA
HETATM   23  H11         0      64.800   6.831 -20.049  1.00  0.00     0.218 HD
ENDBRANCH  18  22
ENDBRANCH   4  14
BRANCH   8  24
HETATM   24  O17         0      55.686   6.217 -24.413  1.00  0.00    -0.359 OA
HETATM   25  H17         0      55.545   6.345 -23.482  1.00  0.00     0.218 HD
ENDBRANCH   8  24
TORSDOF 5
ENDMDL
MODEL 9
REMARK VINA RESULT:      -3.2      2.342      3.229
REMARK  5 active torsions:
REMARK  status: ('A' for Active; 'I' for Inactive)
REMARK    1  A    between atoms: C4_4  and  C5_5 
REMARK    2  A    between atoms: C8_8  and  O9_9 
REMARK    3  A    between atoms: C10_11  and  O11_12 
REMARK    4  A    between atoms: C16_18  and  O17_19 
REMARK    5  A    between atoms: C19_22  and  O20_23 
ROOT
HETATM    1  O1          0      58.760   3.813 -24.591  1.00  0.00    -0.286 OA
HETATM    2  C2          0      59.626   4.478 -23.958  1.00  0.00     0.201 C 
HETATM    3  C3          0      60.574   3.888 -23.139  1.00  0.00     0.067 C 
HETATM    4  C4          0      61.450   4.648 -22.373  1.00  0.00     0.103 C 
HETATM    5  O13         0      61.381   5.966 -22.450  1.00  0.00    -0.307 OA
HETATM    6  C14         0      60.475   6.576 -23.183  1.00  0.00     0.107 C 
HETATM    7  C15         0      60.136   7.904 -22.968  1.00  0.00     0.049 C 
HETATM    8  C16         0      59.013   8.468 -23.563  1.00  0.00     0.093 C 
HETATM    9  C18         0      58.595   7.846 -24.733  1.00  0.00     0.048 C 
HETATM   10  C19         0      58.956   6.533 -25.002  1.00  0.00     0.096 C 
HETATM   11  C21         0      59.743   5.850 -24.116  1.00  0.00     0.084 C 
ENDROOT
BRANCH  10  12
HETATM   12  O20         0      58.205   5.794 -25.912  1.00  0.00    -0.359 OA
HETATM   13  H20         0      58.343   5.955 -26.837  1.00  0.00     0.218 HD
ENDBRANCH  10  12
BRANCH   4  14
HETATM   14  C5          0      61.967   4.040 -21.146  1.00  0.00     0.025 C 
HETATM   15  C6          0      61.276   3.067 -20.439  1.00  0.00     0.004 C 
HETATM   16  C7          0      62.015   2.033 -19.875  1.00  0.00     0.026 C 
HETATM   17  C8          0      63.406   2.034 -19.897  1.00  0.00     0.112 C 
HETATM   18  C10         0      63.982   3.289 -20.037  1.00  0.00     0.112 C 
HETATM   19  C12         0      63.253   4.282 -20.680  1.00  0.00     0.028 C 
BRANCH  17  20
HETATM   20  O9          0      64.115   0.849 -19.984  1.00  0.00    -0.357 OA
HETATM   21  H9          0      64.517   0.533 -20.785  1.00  0.00     0.218 HD
ENDBRANCH  17  20
BRANCH  18  22
HETATM   22  O11         0      65.358   3.371 -19.875  1.00  0.00    -0.357 OA
HETATM   23  H11         0      65.894   2.915 -20.514  1.00  0.00     0.218 HD
ENDBRANCH  18  22
ENDBRANCH   4  14
BRANCH   8  24
HETATM   24  O17         0      58.187   9.357 -22.866  1.00  0.00    -0.359 OA
HETATM   25  H17         0      58.523   9.908 -22.169  1.00  0.00     0.218 HD
ENDBRANCH   8  24
TORSDOF 5
ENDMDL
