MODEL 1
REMARK VINA RESULT:      -4.9      0.000      0.000
REMARK  5 active torsions:
REMARK  status: ('A' for Active; 'I' for Inactive)
REMARK    1  A    between atoms: C4_4  and  C5_5 
REMARK    2  A    between atoms: C8_8  and  O9_9 
REMARK    3  A    between atoms: C10_11  and  O11_12 
REMARK    4  A    between atoms: C16_18  and  O17_19 
REMARK    5  A    between atoms: C19_22  and  O20_23 
ROOT
HETATM    1  O1          0      34.479  78.529  23.943  1.00  0.00    -0.286 OA
HETATM    2  C2          0      33.562  79.351  23.669  1.00  0.00     0.201 C 
HETATM    3  C3          0      32.222  79.080  23.888  1.00  0.00     0.067 C 
HETATM    4  C4          0      31.225  79.961  23.482  1.00  0.00     0.103 C 
HETATM    5  O13         0      31.577  81.090  22.893  1.00  0.00    -0.307 OA
HETATM    6  C14         0      32.833  81.378  22.628  1.00  0.00     0.107 C 
HETATM    7  C15         0      33.180  82.332  21.681  1.00  0.00     0.049 C 
HETATM    8  C16         0      34.486  82.452  21.224  1.00  0.00     0.093 C 
HETATM    9  C18         0      35.460  81.985  22.098  1.00  0.00     0.048 C 
HETATM   10  C19         0      35.138  81.066  23.088  1.00  0.00     0.096 C 
HETATM   11  C21         0      33.847  80.629  23.213  1.00  0.00     0.084 C 
ENDROOT
BRANCH  10  12
HETATM   12  O20         0      36.147  80.293  23.652  1.00  0.00    -0.359 OA
HETATM   13  H20         0      36.739  80.712  24.265  1.00  0.00     0.218 HD
ENDBRANCH  10  12
BRANCH   4  14
HETATM   14  C5          0      29.909  79.392  23.187  1.00  0.00     0.025 C 
HETATM   15  C6          0      29.742  78.185  22.525  1.00  0.00     0.004 C 
HETATM   16  C7          0      28.712  77.353  22.951  1.00  0.00     0.026 C 
HETATM   17  C8          0      27.794  77.762  23.912  1.00  0.00     0.112 C 
HETATM   18  C10         0      27.656  79.139  24.032  1.00  0.00     0.112 C 
HETATM   19  C12         0      28.733  79.944  23.679  1.00  0.00     0.028 C 
BRANCH  17  20
HETATM   20  O9          0      27.243  76.855  24.799  1.00  0.00    -0.357 OA
HETATM   21  H9          0      26.365  76.930  25.154  1.00  0.00     0.218 HD
ENDBRANCH  17  20
BRANCH  18  22
HETATM   22  O11         0      26.623  79.599  24.837  1.00  0.00    -0.357 OA
HETATM   23  H11         0      26.009  78.950  25.161  1.00  0.00     0.218 HD
ENDBRANCH  18  22
ENDBRANCH   4  14
BRANCH   8  24
HETATM   24  O17         0      34.767  82.701  19.875  1.00  0.00    -0.359 OA
HETATM   25  H17         0      35.535  82.339  19.451  1.00  0.00     0.218 HD
ENDBRANCH   8  24
TORSDOF 5
ENDMDL
MODEL 2
REMARK VINA RESULT:      -4.7      1.538      6.510
REMARK  5 active torsions:
REMARK  status: ('A' for Active; 'I' for Inactive)
REMARK    1  A    between atoms: C4_4  and  C5_5 
REMARK    2  A    between atoms: C8_8  and  O9_9 
REMARK    3  A    between atoms: C10_11  and  O11_12 
REMARK    4  A    between atoms: C16_18  and  O17_19 
REMARK    5  A    between atoms: C19_22  and  O20_23 
ROOT
HETATM    1  O1          0      32.603  77.435  25.694  1.00  0.00    -0.286 OA
HETATM    2  C2          0      32.283  78.051  24.641  1.00  0.00     0.201 C 
HETATM    3  C3          0      33.143  78.917  23.987  1.00  0.00     0.067 C 
HETATM    4  C4          0      32.731  79.661  22.888  1.00  0.00     0.103 C 
HETATM    5  O13         0      31.492  79.517  22.452  1.00  0.00    -0.307 OA
HETATM    6  C14         0      30.624  78.738  23.059  1.00  0.00     0.107 C 
HETATM    7  C15         0      29.257  78.880  22.869  1.00  0.00     0.049 C 
HETATM    8  C16         0      28.343  78.235  23.694  1.00  0.00     0.093 C 
HETATM    9  C18         0      28.822  77.089  24.318  1.00  0.00     0.048 C 
HETATM   10  C19         0      30.186  76.893  24.482  1.00  0.00     0.096 C 
HETATM   11  C21         0      31.068  77.828  24.012  1.00  0.00     0.084 C 
ENDROOT
BRANCH  10  12
HETATM   12  O20         0      30.633  76.007  25.457  1.00  0.00    -0.359 OA
HETATM   13  H20         0      30.753  76.338  26.339  1.00  0.00     0.218 HD
ENDBRANCH  10  12
BRANCH   4  14
HETATM   14  C5          0      33.423  80.927  22.639  1.00  0.00     0.025 C 
HETATM   15  C6          0      34.737  81.154  23.023  1.00  0.00     0.004 C 
HETATM   16  C7          0      35.543  81.890  22.159  1.00  0.00     0.026 C 
HETATM   17  C8          0      35.028  82.494  21.018  1.00  0.00     0.112 C 
HETATM   18  C10         0      33.663  82.746  21.061  1.00  0.00     0.112 C 
HETATM   19  C12         0      32.868  81.940  21.868  1.00  0.00     0.028 C 
BRANCH  17  20
HETATM   20  O9          0      35.797  82.623  19.875  1.00  0.00    -0.357 OA
HETATM   21  H9          0      36.709  82.888  19.880  1.00  0.00     0.218 HD
ENDBRANCH  17  20
BRANCH  18  22
HETATM   22  O11         0      33.133  83.514  20.034  1.00  0.00    -0.357 OA
HETATM   23  H11         0      32.582  84.246  20.285  1.00  0.00     0.218 HD
ENDBRANCH  18  22
ENDBRANCH   4  14
BRANCH   8  24
HETATM   24  O17         0      27.172  78.871  24.121  1.00  0.00    -0.359 OA
HETATM   25  H17         0      27.191  79.723  24.540  1.00  0.00     0.218 HD
ENDBRANCH   8  24
TORSDOF 5
ENDMDL
MODEL 3
REMARK VINA RESULT:      -4.6      1.502      2.788
REMARK  5 active torsions:
REMARK  status: ('A' for Active; 'I' for Inactive)
REMARK    1  A    between atoms: C4_4  and  C5_5 
REMARK    2  A    between atoms: C8_8  and  O9_9 
REMARK    3  A    between atoms: C10_11  and  O11_12 
REMARK    4  A    between atoms: C16_18  and  O17_19 
REMARK    5  A    between atoms: C19_22  and  O20_23 
ROOT
HETATM    1  O1          0      33.119  81.544  21.358  1.00  0.00    -0.286 OA
HETATM    2  C2          0      32.737  80.576  22.072  1.00  0.00     0.201 C 
HETATM    3  C3          0      31.496  79.979  21.924  1.00  0.00     0.067 C 
HETATM    4  C4          0      31.060  78.983  22.790  1.00  0.00     0.103 C 
HETATM    5  O13         0      31.864  78.589  23.762  1.00  0.00    -0.307 OA
HETATM    6  C14         0      33.035  79.149  23.969  1.00  0.00     0.107 C 
HETATM    7  C15         0      33.695  79.036  25.185  1.00  0.00     0.049 C 
HETATM    8  C16         0      34.796  79.828  25.486  1.00  0.00     0.093 C 
HETATM    9  C18         0      35.493  80.307  24.383  1.00  0.00     0.048 C 
HETATM   10  C19         0      34.878  80.390  23.141  1.00  0.00     0.096 C 
HETATM   11  C21         0      33.580  79.981  22.997  1.00  0.00     0.084 C 
ENDROOT
BRANCH  10  12
HETATM   12  O20         0      35.403  81.246  22.178  1.00  0.00    -0.359 OA
HETATM   13  H20         0      35.311  82.181  22.316  1.00  0.00     0.218 HD
ENDBRANCH  10  12
BRANCH   4  14
HETATM   14  C5          0      29.614  78.837  22.968  1.00  0.00     0.025 C 
HETATM   15  C6          0      28.938  77.655  22.701  1.00  0.00     0.004 C 
HETATM   16  C7          0      27.902  77.297  23.557  1.00  0.00     0.026 C 
HETATM   17  C8          0      27.462  78.148  24.565  1.00  0.00     0.112 C 
HETATM   18  C10         0      27.740  79.492  24.353  1.00  0.00     0.112 C 
HETATM   19  C12         0      28.834  79.822  23.561  1.00  0.00     0.028 C 
BRANCH  17  20
HETATM   20  O9          0      26.983  77.642  25.761  1.00  0.00    -0.357 OA
HETATM   21  H9          0      26.621  76.769  25.857  1.00  0.00     0.218 HD
ENDBRANCH  17  20
BRANCH  18  22
HETATM   22  O11         0      27.162  80.399  25.228  1.00  0.00    -0.357 OA
HETATM   23  H11         0      27.618  80.559  26.046  1.00  0.00     0.218 HD
ENDBRANCH  18  22
ENDBRANCH   4  14
BRANCH   8  24
HETATM   24  O17         0      34.977  80.371  26.763  1.00  0.00    -0.359 OA
HETATM   25  H17         0      34.240  80.621  27.308  1.00  0.00     0.218 HD
ENDBRANCH   8  24
TORSDOF 5
ENDMDL
MODEL 4
REMARK VINA RESULT:      -4.5      2.957      6.976
REMARK  5 active torsions:
REMARK  status: ('A' for Active; 'I' for Inactive)
REMARK    1  A    between atoms: C4_4  and  C5_5 
REMARK    2  A    between atoms: C8_8  and  O9_9 
REMARK    3  A    between atoms: C10_11  and  O11_12 
REMARK    4  A    between atoms: C16_18  and  O17_19 
REMARK    5  A    between atoms: C19_22  and  O20_23 
ROOT
HETATM    1  O1          0      31.227  79.439  22.663  1.00  0.00    -0.286 OA
HETATM    2  C2          0      32.348  80.013  22.733  1.00  0.00     0.201 C 
HETATM    3  C3          0      32.621  81.209  22.092  1.00  0.00     0.067 C 
HETATM    4  C4          0      33.894  81.767  22.101  1.00  0.00     0.103 C 
HETATM    5  O13         0      34.856  81.144  22.759  1.00  0.00    -0.307 OA
HETATM    6  C14         0      34.660  79.987  23.353  1.00  0.00     0.107 C 
HETATM    7  C15         0      35.714  79.149  23.687  1.00  0.00     0.049 C 
HETATM    8  C16         0      35.495  77.833  24.076  1.00  0.00     0.093 C 
HETATM    9  C18         0      34.238  77.581  24.612  1.00  0.00     0.048 C 
HETATM   10  C19         0      33.171  78.426  24.336  1.00  0.00     0.096 C 
HETATM   11  C21         0      33.362  79.524  23.543  1.00  0.00     0.084 C 
ENDROOT
BRANCH  10  12
HETATM   12  O20         0      31.871  77.955  24.496  1.00  0.00    -0.359 OA
HETATM   13  H20         0      31.528  77.886  25.378  1.00  0.00     0.218 HD
ENDBRANCH  10  12
BRANCH   4  14
HETATM   14  C5          0      34.255  82.631  20.976  1.00  0.00     0.025 C 
HETATM   15  C6          0      33.326  83.400  20.290  1.00  0.00     0.004 C 
HETATM   16  C7          0      33.720  84.669  19.876  1.00  0.00     0.026 C 
HETATM   17  C8          0      35.031  85.108  20.018  1.00  0.00     0.112 C 
HETATM   18  C10         0      35.976  84.095  20.109  1.00  0.00     0.112 C 
HETATM   19  C12         0      35.574  82.861  20.607  1.00  0.00     0.028 C 
BRANCH  17  20
HETATM   20  O9          0      35.309  86.442  20.260  1.00  0.00    -0.357 OA
HETATM   21  H9          0      34.677  87.142  20.146  1.00  0.00     0.218 HD
ENDBRANCH  17  20
BRANCH  18  22
HETATM   22  O11         0      37.310  84.473  20.063  1.00  0.00    -0.357 OA
HETATM   23  H11         0      37.494  85.369  19.804  1.00  0.00     0.218 HD
ENDBRANCH  18  22
ENDBRANCH   4  14
BRANCH   8  24
HETATM   24  O17         0      36.334  76.797  23.651  1.00  0.00    -0.359 OA
HETATM   25  H17         0      37.272  76.919  23.565  1.00  0.00     0.218 HD
ENDBRANCH   8  24
TORSDOF 5
ENDMDL
MODEL 5
REMARK VINA RESULT:      -4.4      1.375      6.896
REMARK  5 active torsions:
REMARK  status: ('A' for Active; 'I' for Inactive)
REMARK    1  A    between atoms: C4_4  and  C5_5 
REMARK    2  A    between atoms: C8_8  and  O9_9 
REMARK    3  A    between atoms: C10_11  and  O11_12 
REMARK    4  A    between atoms: C16_18  and  O17_19 
REMARK    5  A    between atoms: C19_22  and  O20_23 
ROOT
HETATM    1  O1          0      30.023  75.976  24.040  1.00  0.00    -0.286 OA
HETATM    2  C2          0      29.904  77.198  23.749  1.00  0.00     0.201 C 
HETATM    3  C3          0      30.965  77.973  23.313  1.00  0.00     0.067 C 
HETATM    4  C4          0      30.829  79.339  23.097  1.00  0.00     0.103 C 
HETATM    5  O13         0      29.649  79.899  23.297  1.00  0.00    -0.307 OA
HETATM    6  C14         0      28.619  79.217  23.747  1.00  0.00     0.107 C 
HETATM    7  C15         0      27.526  79.842  24.330  1.00  0.00     0.049 C 
HETATM    8  C16         0      26.567  79.117  25.027  1.00  0.00     0.093 C 
HETATM    9  C18         0      26.464  77.780  24.665  1.00  0.00     0.048 C 
HETATM   10  C19         0      27.521  77.135  24.037  1.00  0.00     0.096 C 
HETATM   11  C21         0      28.668  77.827  23.758  1.00  0.00     0.084 C 
ENDROOT
BRANCH  10  12
HETATM   12  O20         0      27.590  75.746  24.074  1.00  0.00    -0.359 OA
HETATM   13  H20         0      27.226  75.263  23.342  1.00  0.00     0.218 HD
ENDBRANCH  10  12
BRANCH   4  14
HETATM   14  C5          0      32.032  80.162  23.236  1.00  0.00     0.025 C 
HETATM   15  C6          0      32.975  79.954  24.232  1.00  0.00     0.004 C 
HETATM   16  C7          0      34.315  80.122  23.896  1.00  0.00     0.026 C 
HETATM   17  C8          0      34.699  80.612  22.652  1.00  0.00     0.112 C 
HETATM   18  C10         0      33.731  81.363  22.001  1.00  0.00     0.112 C 
HETATM   19  C12         0      32.395  81.115  22.293  1.00  0.00     0.028 C 
BRANCH  17  20
HETATM   20  O9          0      35.873  80.187  22.055  1.00  0.00    -0.357 OA
HETATM   21  H9          0      36.717  80.597  22.200  1.00  0.00     0.218 HD
ENDBRANCH  17  20
BRANCH  18  22
HETATM   22  O11         0      34.123  82.030  20.849  1.00  0.00    -0.357 OA
HETATM   23  H11         0      34.113  81.533  20.039  1.00  0.00     0.218 HD
ENDBRANCH  18  22
ENDBRANCH   4  14
BRANCH   8  24
HETATM   24  O17         0      26.004  79.604  26.213  1.00  0.00    -0.359 OA
HETATM   25  H17         0      26.313  79.321  27.065  1.00  0.00     0.218 HD
ENDBRANCH   8  24
TORSDOF 5
ENDMDL
MODEL 6
REMARK VINA RESULT:      -4.4      1.556      3.011
REMARK  5 active torsions:
REMARK  status: ('A' for Active; 'I' for Inactive)
REMARK    1  A    between atoms: C4_4  and  C5_5 
REMARK    2  A    between atoms: C8_8  and  O9_9 
REMARK    3  A    between atoms: C10_11  and  O11_12 
REMARK    4  A    between atoms: C16_18  and  O17_19 
REMARK    5  A    between atoms: C19_22  and  O20_23 
ROOT
HETATM    1  O1          0      32.699  81.614  21.330  1.00  0.00    -0.286 OA
HETATM    2  C2          0      32.747  80.650  22.141  1.00  0.00     0.201 C 
HETATM    3  C3          0      31.661  79.830  22.399  1.00  0.00     0.067 C 
HETATM    4  C4          0      31.711  78.840  23.373  1.00  0.00     0.103 C 
HETATM    5  O13         0      32.833  78.670  24.050  1.00  0.00    -0.307 OA
HETATM    6  C14         0      33.881  79.445  23.871  1.00  0.00     0.107 C 
HETATM    7  C15         0      34.888  79.543  24.820  1.00  0.00     0.049 C 
HETATM    8  C16         0      35.853  80.540  24.748  1.00  0.00     0.093 C 
HETATM    9  C18         0      36.074  81.052  23.475  1.00  0.00     0.048 C 
HETATM   10  C19         0      35.106  80.930  22.488  1.00  0.00     0.096 C 
HETATM   11  C21         0      33.931  80.286  22.765  1.00  0.00     0.084 C 
ENDROOT
BRANCH  10  12
HETATM   12  O20         0      35.136  81.792  21.396  1.00  0.00    -0.359 OA
HETATM   13  H20         0      34.632  82.595  21.449  1.00  0.00     0.218 HD
ENDBRANCH  10  12
BRANCH   4  14
HETATM   14  C5          0      30.446  78.451  23.998  1.00  0.00     0.025 C 
HETATM   15  C6          0      29.309  79.244  23.951  1.00  0.00     0.004 C 
HETATM   16  C7          0      28.083  78.605  23.797  1.00  0.00     0.026 C 
HETATM   17  C8          0      27.974  77.219  23.824  1.00  0.00     0.112 C 
HETATM   18  C10         0      29.005  76.570  24.489  1.00  0.00     0.112 C 
HETATM   19  C12         0      30.245  77.194  24.555  1.00  0.00     0.028 C 
BRANCH  17  20
HETATM   20  O9          0      27.023  76.567  23.059  1.00  0.00    -0.357 OA
HETATM   21  H9          0      26.100  76.796  23.058  1.00  0.00     0.218 HD
ENDBRANCH  17  20
BRANCH  18  22
HETATM   22  O11         0      28.852  75.208  24.709  1.00  0.00    -0.357 OA
HETATM   23  H11         0      29.510  74.635  24.333  1.00  0.00     0.218 HD
ENDBRANCH  18  22
ENDBRANCH   4  14
BRANCH   8  24
HETATM   24  O17         0      36.307  81.200  25.896  1.00  0.00    -0.359 OA
HETATM   25  H17         0      35.737  81.355  26.640  1.00  0.00     0.218 HD
ENDBRANCH   8  24
TORSDOF 5
ENDMDL
MODEL 7
REMARK VINA RESULT:      -4.4      1.821      2.407
REMARK  5 active torsions:
REMARK  status: ('A' for Active; 'I' for Inactive)
REMARK    1  A    between atoms: C4_4  and  C5_5 
REMARK    2  A    between atoms: C8_8  and  O9_9 
REMARK    3  A    between atoms: C10_11  and  O11_12 
REMARK    4  A    between atoms: C16_18  and  O17_19 
REMARK    5  A    between atoms: C19_22  and  O20_23 
ROOT
HETATM    1  O1          0      34.117  76.184  25.059  1.00  0.00    -0.286 OA
HETATM    2  C2          0      33.709  77.315  24.677  1.00  0.00     0.201 C 
HETATM    3  C3          0      32.366  77.645  24.608  1.00  0.00     0.067 C 
HETATM    4  C4          0      31.941  78.861  24.087  1.00  0.00     0.103 C 
HETATM    5  O13         0      32.849  79.726  23.669  1.00  0.00    -0.307 OA
HETATM    6  C14         0      34.134  79.448  23.678  1.00  0.00     0.107 C 
HETATM    7  C15         0      35.039  80.151  22.895  1.00  0.00     0.049 C 
HETATM    8  C16         0      36.340  79.697  22.712  1.00  0.00     0.093 C 
HETATM    9  C18         0      36.820  78.871  23.721  1.00  0.00     0.048 C 
HETATM   10  C19         0      35.942  78.188  24.552  1.00  0.00     0.096 C 
HETATM   11  C21         0      34.593  78.344  24.388  1.00  0.00     0.084 C 
ENDROOT
BRANCH  10  12
HETATM   12  O20         0      36.391  77.065  25.240  1.00  0.00    -0.359 OA
HETATM   13  H20         0      37.112  77.174  25.848  1.00  0.00     0.218 HD
ENDBRANCH  10  12
BRANCH   4  14
HETATM   14  C5          0      30.602  78.905  23.496  1.00  0.00     0.025 C 
HETATM   15  C6          0      29.989  77.793  22.937  1.00  0.00     0.004 C 
HETATM   16  C7          0      28.622  77.639  23.142  1.00  0.00     0.026 C 
HETATM   17  C8          0      27.862  78.623  23.765  1.00  0.00     0.112 C 
HETATM   18  C10         0      28.405  79.899  23.706  1.00  0.00     0.112 C 
HETATM   19  C12         0      29.784  80.025  23.587  1.00  0.00     0.028 C 
BRANCH  17  20
HETATM   20  O9          0      26.774  78.287  24.550  1.00  0.00    -0.357 OA
HETATM   21  H9          0      26.742  78.415  25.491  1.00  0.00     0.218 HD
ENDBRANCH  17  20
BRANCH  18  22
HETATM   22  O11         0      27.604  80.944  24.143  1.00  0.00    -0.357 OA
HETATM   23  H11         0      26.760  81.045  23.719  1.00  0.00     0.218 HD
ENDBRANCH  18  22
ENDBRANCH   4  14
BRANCH   8  24
HETATM   24  O17         0      36.975  79.787  21.469  1.00  0.00    -0.359 OA
HETATM   25  H17         0      37.819  80.211  21.369  1.00  0.00     0.218 HD
ENDBRANCH   8  24
TORSDOF 5
ENDMDL
MODEL 8
REMARK VINA RESULT:      -4.3      4.106      7.055
REMARK  5 active torsions:
REMARK  status: ('A' for Active; 'I' for Inactive)
REMARK    1  A    between atoms: C4_4  and  C5_5 
REMARK    2  A    between atoms: C8_8  and  O9_9 
REMARK    3  A    between atoms: C10_11  and  O11_12 
REMARK    4  A    between atoms: C16_18  and  O17_19 
REMARK    5  A    between atoms: C19_22  and  O20_23 
ROOT
HETATM    1  O1          0      27.468  76.082  25.667  1.00  0.00    -0.286 OA
HETATM    2  C2          0      28.494  76.048  24.933  1.00  0.00     0.201 C 
HETATM    3  C3          0      29.349  74.960  24.889  1.00  0.00     0.067 C 
HETATM    4  C4          0      30.526  74.988  24.150  1.00  0.00     0.103 C 
HETATM    5  O13         0      30.817  76.077  23.460  1.00  0.00    -0.307 OA
HETATM    6  C14         0      30.059  77.151  23.497  1.00  0.00     0.107 C 
HETATM    7  C15         0      30.538  78.397  23.121  1.00  0.00     0.049 C 
HETATM    8  C16         0      29.826  79.558  23.399  1.00  0.00     0.093 C 
HETATM    9  C18         0      28.457  79.383  23.560  1.00  0.00     0.048 C 
HETATM   10  C19         0      27.939  78.138  23.891  1.00  0.00     0.096 C 
HETATM   11  C21         0      28.782  77.071  24.043  1.00  0.00     0.084 C 
ENDROOT
BRANCH  10  12
HETATM   12  O20         0      26.675  78.058  24.467  1.00  0.00    -0.359 OA
HETATM   13  H20         0      26.528  77.393  25.128  1.00  0.00     0.218 HD
ENDBRANCH  10  12
BRANCH   4  14
HETATM   14  C5          0      31.621  74.127  24.601  1.00  0.00     0.025 C 
HETATM   15  C6          0      31.420  73.016  25.408  1.00  0.00     0.004 C 
HETATM   16  C7          0      32.192  71.887  25.155  1.00  0.00     0.026 C 
HETATM   17  C8          0      33.222  71.902  24.220  1.00  0.00     0.112 C 
HETATM   18  C10         0      33.742  73.161  23.951  1.00  0.00     0.112 C 
HETATM   19  C12         0      32.921  74.267  24.132  1.00  0.00     0.028 C 
BRANCH  17  20
HETATM   20  O9          0      33.529  70.771  23.485  1.00  0.00    -0.357 OA
HETATM   21  H9          0      33.387  70.695  22.548  1.00  0.00     0.218 HD
ENDBRANCH  17  20
BRANCH  18  22
HETATM   22  O11         0      34.890  73.213  23.173  1.00  0.00    -0.357 OA
HETATM   23  H11         0      35.522  73.891  23.384  1.00  0.00     0.218 HD
ENDBRANCH  18  22
ENDBRANCH   4  14
BRANCH   8  24
HETATM   24  O17         0      30.473  80.728  23.815  1.00  0.00    -0.359 OA
HETATM   25  H17         0      30.154  81.240  24.549  1.00  0.00     0.218 HD
ENDBRANCH   8  24
TORSDOF 5
ENDMDL
MODEL 9
REMARK VINA RESULT:      -4.1      4.236      6.510
REMARK  5 active torsions:
REMARK  status: ('A' for Active; 'I' for Inactive)
REMARK    1  A    between atoms: C4_4  and  C5_5 
REMARK    2  A    between atoms: C8_8  and  O9_9 
REMARK    3  A    between atoms: C10_11  and  O11_12 
REMARK    4  A    between atoms: C16_18  and  O17_19 
REMARK    5  A    between atoms: C19_22  and  O20_23 
ROOT
HETATM    1  O1          0      29.823  73.209  25.239  1.00  0.00    -0.286 OA
HETATM    2  C2          0      30.681  74.119  25.076  1.00  0.00     0.201 C 
HETATM    3  C3          0      30.338  75.439  24.837  1.00  0.00     0.067 C 
HETATM    4  C4          0      31.300  76.403  24.559  1.00  0.00     0.103 C 
HETATM    5  O13         0      32.572  76.045  24.546  1.00  0.00    -0.307 OA
HETATM    6  C14         0      32.949  74.799  24.729  1.00  0.00     0.107 C 
HETATM    7  C15         0      34.198  74.346  24.329  1.00  0.00     0.049 C 
HETATM    8  C16         0      34.496  72.990  24.290  1.00  0.00     0.093 C 
HETATM    9  C18         0      33.732  72.196  25.137  1.00  0.00     0.048 C 
HETATM   10  C19         0      32.497  72.638  25.594  1.00  0.00     0.096 C 
HETATM   11  C21         0      32.037  73.871  25.221  1.00  0.00     0.084 C 
ENDROOT
BRANCH  10  12
HETATM   12  O20         0      31.571  71.708  26.057  1.00  0.00    -0.359 OA
HETATM   13  H20         0      31.714  70.794  25.844  1.00  0.00     0.218 HD
ENDBRANCH  10  12
BRANCH   4  14
HETATM   14  C5          0      30.883  77.554  23.755  1.00  0.00     0.025 C 
HETATM   15  C6          0      30.001  77.446  22.690  1.00  0.00     0.004 C 
HETATM   16  C7          0      29.075  78.469  22.515  1.00  0.00     0.026 C 
HETATM   17  C8          0      29.109  79.625  23.289  1.00  0.00     0.112 C 
HETATM   18  C10         0      30.346  79.911  23.849  1.00  0.00     0.112 C 
HETATM   19  C12         0      31.221  78.858  24.092  1.00  0.00     0.028 C 
BRANCH  17  20
HETATM   20  O9          0      27.942  80.288  23.624  1.00  0.00    -0.357 OA
HETATM   21  H9          0      27.167  79.854  23.964  1.00  0.00     0.218 HD
ENDBRANCH  17  20
BRANCH  18  22
HETATM   22  O11         0      30.485  81.144  24.470  1.00  0.00    -0.357 OA
HETATM   23  H11         0      29.685  81.600  24.704  1.00  0.00     0.218 HD
ENDBRANCH  18  22
ENDBRANCH   4  14
BRANCH   8  24
HETATM   24  O17         0      35.253  72.439  23.250  1.00  0.00    -0.359 OA
HETATM   25  H17         0      35.719  72.985  22.628  1.00  0.00     0.218 HD
ENDBRANCH   8  24
TORSDOF 5
ENDMDL
