MODEL 1
REMARK VINA RESULT:      -7.0      0.000      0.000
REMARK  5 active torsions:
REMARK  status: ('A' for Active; 'I' for Inactive)
REMARK    1  A    between atoms: C4_4  and  C5_5 
REMARK    2  A    between atoms: C8_8  and  O9_9 
REMARK    3  A    between atoms: C10_11  and  O11_12 
REMARK    4  A    between atoms: C16_18  and  O17_19 
REMARK    5  A    between atoms: C19_22  and  O20_23 
ROOT
HETATM    1  O1          0      62.738  59.729  18.188  1.00  0.00    -0.286 OA
HETATM    2  C2          0      62.725  58.467  18.189  1.00  0.00     0.201 C 
HETATM    3  C3          0      63.814  57.706  18.578  1.00  0.00     0.067 C 
HETATM    4  C4          0      63.809  56.319  18.472  1.00  0.00     0.103 C 
HETATM    5  O13         0      62.726  55.722  18.006  1.00  0.00    -0.307 OA
HETATM    6  C14         0      61.680  56.400  17.588  1.00  0.00     0.107 C 
HETATM    7  C15         0      60.731  55.834  16.748  1.00  0.00     0.049 C 
HETATM    8  C16         0      59.776  56.616  16.108  1.00  0.00     0.093 C 
HETATM    9  C18         0      59.487  57.821  16.736  1.00  0.00     0.048 C 
HETATM   10  C19         0      60.394  58.392  17.619  1.00  0.00     0.096 C 
HETATM   11  C21         0      61.575  57.754  17.885  1.00  0.00     0.084 C 
ENDROOT
BRANCH  10  12
HETATM   12  O20         0      60.312  59.753  17.893  1.00  0.00    -0.359 OA
HETATM   13  H20         0      61.095  60.194  18.200  1.00  0.00     0.218 HD
ENDBRANCH  10  12
BRANCH   4  14
HETATM   14  C5          0      65.104  55.655  18.313  1.00  0.00     0.025 C 
HETATM   15  C6          0      65.423  54.467  18.954  1.00  0.00     0.004 C 
HETATM   16  C7          0      66.173  53.533  18.246  1.00  0.00     0.026 C 
HETATM   17  C8          0      66.703  53.823  16.993  1.00  0.00     0.112 C 
HETATM   18  C10         0      66.874  55.176  16.735  1.00  0.00     0.112 C 
HETATM   19  C12         0      66.052  56.083  17.394  1.00  0.00     0.028 C 
BRANCH  17  20
HETATM   20  O9          0      66.834  52.835  16.033  1.00  0.00    -0.357 OA
HETATM   21  H9          0      67.163  51.962  16.216  1.00  0.00     0.218 HD
ENDBRANCH  17  20
BRANCH  18  22
HETATM   22  O11         0      67.570  55.513  15.583  1.00  0.00    -0.357 OA
HETATM   23  H11         0      68.101  56.300  15.616  1.00  0.00     0.218 HD
ENDBRANCH  18  22
ENDBRANCH   4  14
BRANCH   8  24
HETATM   24  O17         0      59.399  56.367  14.783  1.00  0.00    -0.359 OA
HETATM   25  H17         0      59.146  57.070  14.196  1.00  0.00     0.218 HD
ENDBRANCH   8  24
TORSDOF 5
ENDMDL
MODEL 2
REMARK VINA RESULT:      -6.7      1.239      1.808
REMARK  5 active torsions:
REMARK  status: ('A' for Active; 'I' for Inactive)
REMARK    1  A    between atoms: C4_4  and  C5_5 
REMARK    2  A    between atoms: C8_8  and  O9_9 
REMARK    3  A    between atoms: C10_11  and  O11_12 
REMARK    4  A    between atoms: C16_18  and  O17_19 
REMARK    5  A    between atoms: C19_22  and  O20_23 
ROOT
HETATM    1  O1          0      65.037  59.319  17.885  1.00  0.00    -0.286 OA
HETATM    2  C2          0      64.781  58.102  18.099  1.00  0.00     0.201 C 
HETATM    3  C3          0      65.769  57.143  18.245  1.00  0.00     0.067 C 
HETATM    4  C4          0      65.460  55.794  18.377  1.00  0.00     0.103 C 
HETATM    5  O13         0      64.189  55.431  18.383  1.00  0.00    -0.307 OA
HETATM    6  C14         0      63.214  56.297  18.210  1.00  0.00     0.107 C 
HETATM    7  C15         0      61.944  55.898  17.819  1.00  0.00     0.049 C 
HETATM    8  C16         0      60.997  56.822  17.394  1.00  0.00     0.093 C 
HETATM    9  C18         0      61.181  58.114  17.872  1.00  0.00     0.048 C 
HETATM   10  C19         0      62.429  58.531  18.315  1.00  0.00     0.096 C 
HETATM   11  C21         0      63.483  57.658  18.297  1.00  0.00     0.084 C 
ENDROOT
BRANCH  10  12
HETATM   12  O20         0      62.711  59.893  18.372  1.00  0.00    -0.359 OA
HETATM   13  H20         0      62.050  60.497  18.058  1.00  0.00     0.218 HD
ENDBRANCH  10  12
BRANCH   4  14
HETATM   14  C5          0      66.466  54.829  17.930  1.00  0.00     0.025 C 
HETATM   15  C6          0      66.611  53.574  18.502  1.00  0.00     0.004 C 
HETATM   16  C7          0      66.908  52.510  17.656  1.00  0.00     0.026 C 
HETATM   17  C8          0      67.185  52.706  16.307  1.00  0.00     0.112 C 
HETATM   18  C10         0      67.632  53.981  15.986  1.00  0.00     0.112 C 
HETATM   19  C12         0      67.249  55.039  16.802  1.00  0.00     0.028 C 
BRANCH  17  20
HETATM   20  O9          0      66.830  51.757  15.366  1.00  0.00    -0.357 OA
HETATM   21  H9          0      66.123  51.133  15.486  1.00  0.00     0.218 HD
ENDBRANCH  17  20
BRANCH  18  22
HETATM   22  O11         0      68.100  54.176  14.695  1.00  0.00    -0.357 OA
HETATM   23  H11         0      67.738  53.617  14.017  1.00  0.00     0.218 HD
ENDBRANCH  18  22
ENDBRANCH   4  14
BRANCH   8  24
HETATM   24  O17         0      60.146  56.551  16.317  1.00  0.00    -0.359 OA
HETATM   25  H17         0      59.201  56.595  16.404  1.00  0.00     0.218 HD
ENDBRANCH   8  24
TORSDOF 5
ENDMDL
MODEL 3
REMARK VINA RESULT:      -6.6      1.635      6.518
REMARK  5 active torsions:
REMARK  status: ('A' for Active; 'I' for Inactive)
REMARK    1  A    between atoms: C4_4  and  C5_5 
REMARK    2  A    between atoms: C8_8  and  O9_9 
REMARK    3  A    between atoms: C10_11  and  O11_12 
REMARK    4  A    between atoms: C16_18  and  O17_19 
REMARK    5  A    between atoms: C19_22  and  O20_23 
ROOT
HETATM    1  O1          0      65.924  53.501  18.246  1.00  0.00    -0.286 OA
HETATM    2  C2          0      65.610  54.721  18.174  1.00  0.00     0.201 C 
HETATM    3  C3          0      64.391  55.209  18.613  1.00  0.00     0.067 C 
HETATM    4  C4          0      64.028  56.538  18.427  1.00  0.00     0.103 C 
HETATM    5  O13         0      64.884  57.352  17.835  1.00  0.00    -0.307 OA
HETATM    6  C14         0      66.038  56.932  17.366  1.00  0.00     0.107 C 
HETATM    7  C15         0      66.747  57.653  16.415  1.00  0.00     0.049 C 
HETATM    8  C16         0      67.824  57.092  15.740  1.00  0.00     0.093 C 
HETATM    9  C18         0      68.459  56.053  16.409  1.00  0.00     0.048 C 
HETATM   10  C19         0      67.795  55.341  17.398  1.00  0.00     0.096 C 
HETATM   11  C21         0      66.511  55.676  17.730  1.00  0.00     0.084 C 
ENDROOT
BRANCH  10  12
HETATM   12  O20         0      68.248  54.071  17.743  1.00  0.00    -0.359 OA
HETATM   13  H20         0      68.763  53.981  18.535  1.00  0.00     0.218 HD
ENDBRANCH  10  12
BRANCH   4  14
HETATM   14  C5          0      62.598  56.837  18.344  1.00  0.00     0.025 C 
HETATM   15  C6          0      62.090  58.123  18.460  1.00  0.00     0.004 C 
HETATM   16  C7          0      61.019  58.470  17.643  1.00  0.00     0.026 C 
HETATM   17  C8          0      60.386  57.532  16.834  1.00  0.00     0.112 C 
HETATM   18  C10         0      60.532  56.216  17.249  1.00  0.00     0.112 C 
HETATM   19  C12         0      61.656  55.878  17.994  1.00  0.00     0.028 C 
BRANCH  17  20
HETATM   20  O9          0      59.849  57.898  15.613  1.00  0.00    -0.357 OA
HETATM   21  H9          0      60.330  58.373  14.945  1.00  0.00     0.218 HD
ENDBRANCH  17  20
BRANCH  18  22
HETATM   22  O11         0      59.769  55.261  16.592  1.00  0.00    -0.357 OA
HETATM   23  H11         0      60.113  54.924  15.773  1.00  0.00     0.218 HD
ENDBRANCH  18  22
ENDBRANCH   4  14
BRANCH   8  24
HETATM   24  O17         0      68.031  57.324  14.375  1.00  0.00    -0.359 OA
HETATM   25  H17         0      67.841  58.166  13.978  1.00  0.00     0.218 HD
ENDBRANCH   8  24
TORSDOF 5
ENDMDL
MODEL 4
REMARK VINA RESULT:      -6.5      1.775      6.802
REMARK  5 active torsions:
REMARK  status: ('A' for Active; 'I' for Inactive)
REMARK    1  A    between atoms: C4_4  and  C5_5 
REMARK    2  A    between atoms: C8_8  and  O9_9 
REMARK    3  A    between atoms: C10_11  and  O11_12 
REMARK    4  A    between atoms: C16_18  and  O17_19 
REMARK    5  A    between atoms: C19_22  and  O20_23 
ROOT
HETATM    1  O1          0      66.547  52.297  18.229  1.00  0.00    -0.286 OA
HETATM    2  C2          0      66.467  53.528  17.967  1.00  0.00     0.201 C 
HETATM    3  C3          0      65.617  54.386  18.644  1.00  0.00     0.067 C 
HETATM    4  C4          0      65.473  55.717  18.266  1.00  0.00     0.103 C 
HETATM    5  O13         0      66.185  56.169  17.249  1.00  0.00    -0.307 OA
HETATM    6  C14         0      66.978  55.387  16.549  1.00  0.00     0.107 C 
HETATM    7  C15         0      67.404  55.732  15.274  1.00  0.00     0.049 C 
HETATM    8  C16         0      68.024  54.804  14.445  1.00  0.00     0.093 C 
HETATM    9  C18         0      68.651  53.755  15.105  1.00  0.00     0.048 C 
HETATM   10  C19         0      68.282  53.413  16.399  1.00  0.00     0.096 C 
HETATM   11  C21         0      67.303  54.126  17.036  1.00  0.00     0.084 C 
ENDROOT
BRANCH  10  12
HETATM   12  O20         0      68.578  52.140  16.877  1.00  0.00    -0.359 OA
HETATM   13  H20         0      68.077  51.409  16.537  1.00  0.00     0.218 HD
ENDBRANCH  10  12
BRANCH   4  14
HETATM   14  C5          0      64.200  56.368  18.581  1.00  0.00     0.025 C 
HETATM   15  C6          0      63.931  57.689  18.254  1.00  0.00     0.004 C 
HETATM   16  C7          0      62.644  57.997  17.825  1.00  0.00     0.026 C 
HETATM   17  C8          0      61.622  57.054  17.847  1.00  0.00     0.112 C 
HETATM   18  C10         0      61.813  56.014  18.747  1.00  0.00     0.112 C 
HETATM   19  C12         0      63.114  55.671  19.094  1.00  0.00     0.028 C 
BRANCH  17  20
HETATM   20  O9          0      60.624  57.068  16.889  1.00  0.00    -0.357 OA
HETATM   21  H9          0      60.481  56.366  16.265  1.00  0.00     0.218 HD
ENDBRANCH  17  20
BRANCH  18  22
HETATM   22  O11         0      60.744  55.151  18.945  1.00  0.00    -0.357 OA
HETATM   23  H11         0      60.471  55.004  19.844  1.00  0.00     0.218 HD
ENDBRANCH  18  22
ENDBRANCH   4  14
BRANCH   8  24
HETATM   24  O17         0      67.747  54.752  13.075  1.00  0.00    -0.359 OA
HETATM   25  H17         0      67.427  55.510  12.600  1.00  0.00     0.218 HD
ENDBRANCH   8  24
TORSDOF 5
ENDMDL
MODEL 5
REMARK VINA RESULT:      -6.0      3.170      8.070
REMARK  5 active torsions:
REMARK  status: ('A' for Active; 'I' for Inactive)
REMARK    1  A    between atoms: C4_4  and  C5_5 
REMARK    2  A    between atoms: C8_8  and  O9_9 
REMARK    3  A    between atoms: C10_11  and  O11_12 
REMARK    4  A    between atoms: C16_18  and  O17_19 
REMARK    5  A    between atoms: C19_22  and  O20_23 
ROOT
HETATM    1  O1          0      59.375  57.437  15.671  1.00  0.00    -0.286 OA
HETATM    2  C2          0      59.527  57.741  16.886  1.00  0.00     0.201 C 
HETATM    3  C3          0      58.689  58.620  17.550  1.00  0.00     0.067 C 
HETATM    4  C4          0      58.939  59.017  18.858  1.00  0.00     0.103 C 
HETATM    5  O13         0      59.994  58.523  19.481  1.00  0.00    -0.307 OA
HETATM    6  C14         0      60.843  57.716  18.885  1.00  0.00     0.107 C 
HETATM    7  C15         0      62.128  57.517  19.370  1.00  0.00     0.049 C 
HETATM    8  C16         0      63.095  56.873  18.609  1.00  0.00     0.093 C 
HETATM    9  C18         0      62.600  56.009  17.639  1.00  0.00     0.048 C 
HETATM   10  C19         0      61.303  56.150  17.165  1.00  0.00     0.096 C 
HETATM   11  C21         0      60.500  57.137  17.668  1.00  0.00     0.084 C 
ENDROOT
BRANCH  10  12
HETATM   12  O20         0      60.966  55.599  15.932  1.00  0.00    -0.359 OA
HETATM   13  H20         0      61.647  55.532  15.273  1.00  0.00     0.218 HD
ENDBRANCH  10  12
BRANCH   4  14
HETATM   14  C5          0      58.425  60.325  19.271  1.00  0.00     0.025 C 
HETATM   15  C6          0      59.251  61.407  19.538  1.00  0.00     0.004 C 
HETATM   16  C7          0      58.814  62.666  19.136  1.00  0.00     0.026 C 
HETATM   17  C8          0      57.542  62.862  18.608  1.00  0.00     0.112 C 
HETATM   18  C10         0      56.611  61.896  18.965  1.00  0.00     0.112 C 
HETATM   19  C12         0      57.068  60.622  19.280  1.00  0.00     0.028 C 
BRANCH  17  20
HETATM   20  O9          0      57.317  63.827  17.643  1.00  0.00    -0.357 OA
HETATM   21  H9          0      56.812  64.618  17.794  1.00  0.00     0.218 HD
ENDBRANCH  17  20
BRANCH  18  22
HETATM   22  O11         0      55.288  62.143  18.624  1.00  0.00    -0.357 OA
HETATM   23  H11         0      55.094  62.245  17.700  1.00  0.00     0.218 HD
ENDBRANCH  18  22
ENDBRANCH   4  14
BRANCH   8  24
HETATM   24  O17         0      64.423  57.314  18.593  1.00  0.00    -0.359 OA
HETATM   25  H17         0      65.098  56.848  18.113  1.00  0.00     0.218 HD
ENDBRANCH   8  24
TORSDOF 5
ENDMDL
MODEL 6
REMARK VINA RESULT:      -5.9      2.250      6.387
REMARK  5 active torsions:
REMARK  status: ('A' for Active; 'I' for Inactive)
REMARK    1  A    between atoms: C4_4  and  C5_5 
REMARK    2  A    between atoms: C8_8  and  O9_9 
REMARK    3  A    between atoms: C10_11  and  O11_12 
REMARK    4  A    between atoms: C16_18  and  O17_19 
REMARK    5  A    between atoms: C19_22  and  O20_23 
ROOT
HETATM    1  O1          0      66.356  55.444  17.425  1.00  0.00    -0.286 OA
HETATM    2  C2          0      65.670  56.448  17.761  1.00  0.00     0.201 C 
HETATM    3  C3          0      64.357  56.349  18.191  1.00  0.00     0.067 C 
HETATM    4  C4          0      63.591  57.479  18.457  1.00  0.00     0.103 C 
HETATM    5  O13         0      64.145  58.670  18.313  1.00  0.00    -0.307 OA
HETATM    6  C14         0      65.375  58.820  17.872  1.00  0.00     0.107 C 
HETATM    7  C15         0      65.820  60.024  17.345  1.00  0.00     0.049 C 
HETATM    8  C16         0      67.023  60.108  16.653  1.00  0.00     0.093 C 
HETATM    9  C18         0      67.953  59.126  16.973  1.00  0.00     0.048 C 
HETATM   10  C19         0      67.547  57.929  17.545  1.00  0.00     0.096 C 
HETATM   11  C21         0      66.222  57.719  17.812  1.00  0.00     0.084 C 
ENDROOT
BRANCH  10  12
HETATM   12  O20         0      68.379  56.817  17.458  1.00  0.00    -0.359 OA
HETATM   13  H20         0      68.655  56.533  16.595  1.00  0.00     0.218 HD
ENDBRANCH  10  12
BRANCH   4  14
HETATM   14  C5          0      62.140  57.354  18.310  1.00  0.00     0.025 C 
HETATM   15  C6          0      61.278  58.436  18.409  1.00  0.00     0.004 C 
HETATM   16  C7          0      60.189  58.474  17.545  1.00  0.00     0.026 C 
HETATM   17  C8          0      59.889  57.409  16.702  1.00  0.00     0.112 C 
HETATM   18  C10         0      60.391  56.183  17.116  1.00  0.00     0.112 C 
HETATM   19  C12         0      61.532  56.171  17.910  1.00  0.00     0.028 C 
BRANCH  17  20
HETATM   20  O9          0      59.321  57.627  15.460  1.00  0.00    -0.357 OA
HETATM   21  H9          0      59.722  58.159  14.782  1.00  0.00     0.218 HD
ENDBRANCH  17  20
BRANCH  18  22
HETATM   22  O11         0      59.965  55.061  16.419  1.00  0.00    -0.357 OA
HETATM   23  H11         0      59.476  54.411  16.909  1.00  0.00     0.218 HD
ENDBRANCH  18  22
ENDBRANCH   4  14
BRANCH   8  24
HETATM   24  O17         0      67.149  60.895  15.503  1.00  0.00    -0.359 OA
HETATM   25  H17         0      67.778  61.606  15.452  1.00  0.00     0.218 HD
ENDBRANCH   8  24
TORSDOF 5
ENDMDL
MODEL 7
REMARK VINA RESULT:      -5.3      3.234      6.211
REMARK  5 active torsions:
REMARK  status: ('A' for Active; 'I' for Inactive)
REMARK    1  A    between atoms: C4_4  and  C5_5 
REMARK    2  A    between atoms: C8_8  and  O9_9 
REMARK    3  A    between atoms: C10_11  and  O11_12 
REMARK    4  A    between atoms: C16_18  and  O17_19 
REMARK    5  A    between atoms: C19_22  and  O20_23 
ROOT
HETATM    1  O1          0      66.840  58.228  17.776  1.00  0.00    -0.286 OA
HETATM    2  C2          0      65.803  58.930  17.935  1.00  0.00     0.201 C 
HETATM    3  C3          0      64.640  58.434  18.497  1.00  0.00     0.067 C 
HETATM    4  C4          0      63.480  59.199  18.566  1.00  0.00     0.103 C 
HETATM    5  O13         0      63.506  60.434  18.099  1.00  0.00    -0.307 OA
HETATM    6  C14         0      64.573  60.941  17.522  1.00  0.00     0.107 C 
HETATM    7  C15         0      64.498  62.050  16.691  1.00  0.00     0.049 C 
HETATM    8  C16         0      65.569  62.425  15.888  1.00  0.00     0.093 C 
HETATM    9  C18         0      66.814  62.002  16.337  1.00  0.00     0.048 C 
HETATM   10  C19         0      66.923  60.925  17.206  1.00  0.00     0.096 C 
HETATM   11  C21         0      65.794  60.285  17.638  1.00  0.00     0.084 C 
ENDROOT
BRANCH  10  12
HETATM   12  O20         0      68.134  60.247  17.301  1.00  0.00    -0.359 OA
HETATM   13  H20         0      68.547  59.959  16.496  1.00  0.00     0.218 HD
ENDBRANCH  10  12
BRANCH   4  14
HETATM   14  C5          0      62.205  58.480  18.589  1.00  0.00     0.025 C 
HETATM   15  C6          0      61.159  58.778  17.728  1.00  0.00     0.004 C 
HETATM   16  C7          0      60.412  57.715  17.229  1.00  0.00     0.026 C 
HETATM   17  C8          0      60.611  56.413  17.672  1.00  0.00     0.112 C 
HETATM   18  C10         0      61.190  56.311  18.930  1.00  0.00     0.112 C 
HETATM   19  C12         0      62.001  57.350  19.370  1.00  0.00     0.028 C 
BRANCH  17  20
HETATM   20  O9          0      60.433  55.338  16.819  1.00  0.00    -0.357 OA
HETATM   21  H9          0      60.683  54.447  17.033  1.00  0.00     0.218 HD
ENDBRANCH  17  20
BRANCH  18  22
HETATM   22  O11         0      61.237  55.046  19.500  1.00  0.00    -0.357 OA
HETATM   23  H11         0      60.984  54.316  18.947  1.00  0.00     0.218 HD
ENDBRANCH  18  22
ENDBRANCH   4  14
BRANCH   8  24
HETATM   24  O17         0      65.375  62.885  14.581  1.00  0.00    -0.359 OA
HETATM   25  H17         0      64.535  63.219  14.289  1.00  0.00     0.218 HD
ENDBRANCH   8  24
TORSDOF 5
ENDMDL
MODEL 8
REMARK VINA RESULT:      -5.3     13.089     14.926
REMARK  5 active torsions:
REMARK  status: ('A' for Active; 'I' for Inactive)
REMARK    1  A    between atoms: C4_4  and  C5_5 
REMARK    2  A    between atoms: C8_8  and  O9_9 
REMARK    3  A    between atoms: C10_11  and  O11_12 
REMARK    4  A    between atoms: C16_18  and  O17_19 
REMARK    5  A    between atoms: C19_22  and  O20_23 
ROOT
HETATM    1  O1          0      60.797  63.679   2.938  1.00  0.00    -0.286 OA
HETATM    2  C2          0      61.682  63.560   3.829  1.00  0.00     0.201 C 
HETATM    3  C3          0      61.382  63.469   5.178  1.00  0.00     0.067 C 
HETATM    4  C4          0      62.380  63.441   6.146  1.00  0.00     0.103 C 
HETATM    5  O13         0      63.642  63.484   5.758  1.00  0.00    -0.307 OA
HETATM    6  C14         0      63.981  63.608   4.493  1.00  0.00     0.107 C 
HETATM    7  C15         0      65.241  64.049   4.114  1.00  0.00     0.049 C 
HETATM    8  C16         0      65.511  64.420   2.803  1.00  0.00     0.093 C 
HETATM    9  C18         0      64.682  63.845   1.847  1.00  0.00     0.048 C 
HETATM   10  C19         0      63.434  63.351   2.201  1.00  0.00     0.096 C 
HETATM   11  C21         0      63.023  63.417   3.504  1.00  0.00     0.084 C 
ENDROOT
BRANCH  10  12
HETATM   12  O20         0      62.463  63.189   1.217  1.00  0.00    -0.359 OA
HETATM   13  H20         0      62.025  62.348   1.159  1.00  0.00     0.218 HD
ENDBRANCH  10  12
BRANCH   4  14
HETATM   14  C5          0      62.034  63.942   7.477  1.00  0.00     0.025 C 
HETATM   15  C6          0      60.932  64.750   7.714  1.00  0.00     0.004 C 
HETATM   16  C7          0      60.217  64.536   8.889  1.00  0.00     0.026 C 
HETATM   17  C8          0      60.658  63.644   9.859  1.00  0.00     0.112 C 
HETATM   18  C10         0      62.022  63.385   9.832  1.00  0.00     0.112 C 
HETATM   19  C12         0      62.697  63.525   8.625  1.00  0.00     0.028 C 
BRANCH  17  20
HETATM   20  O9          0      59.757  62.931  10.629  1.00  0.00    -0.357 OA
HETATM   21  H9          0      59.309  62.148  10.329  1.00  0.00     0.218 HD
ENDBRANCH  17  20
BRANCH  18  22
HETATM   22  O11         0      62.545  62.654  10.889  1.00  0.00    -0.357 OA
HETATM   23  H11         0      63.360  62.965  11.266  1.00  0.00     0.218 HD
ENDBRANCH  18  22
ENDBRANCH   4  14
BRANCH   8  24
HETATM   24  O17         0      66.314  65.528   2.509  1.00  0.00    -0.359 OA
HETATM   25  H17         0      66.582  66.143   3.182  1.00  0.00     0.218 HD
ENDBRANCH   8  24
TORSDOF 5
ENDMDL
MODEL 9
REMARK VINA RESULT:      -5.2     10.533     12.818
REMARK  5 active torsions:
REMARK  status: ('A' for Active; 'I' for Inactive)
REMARK    1  A    between atoms: C4_4  and  C5_5 
REMARK    2  A    between atoms: C8_8  and  O9_9 
REMARK    3  A    between atoms: C10_11  and  O11_12 
REMARK    4  A    between atoms: C16_18  and  O17_19 
REMARK    5  A    between atoms: C19_22  and  O20_23 
ROOT
HETATM    1  O1          0      64.814  63.209   9.120  1.00  0.00    -0.286 OA
HETATM    2  C2          0      63.692  63.782   9.047  1.00  0.00     0.201 C 
HETATM    3  C3          0      62.988  64.196  10.165  1.00  0.00     0.067 C 
HETATM    4  C4          0      61.709  64.731  10.063  1.00  0.00     0.103 C 
HETATM    5  O13         0      61.169  64.862   8.864  1.00  0.00    -0.307 OA
HETATM    6  C14         0      61.780  64.451   7.774  1.00  0.00     0.107 C 
HETATM    7  C15         0      61.088  64.214   6.595  1.00  0.00     0.049 C 
HETATM    8  C16         0      61.683  63.543   5.532  1.00  0.00     0.093 C 
HETATM    9  C18         0      63.070  63.610   5.499  1.00  0.00     0.048 C 
HETATM   10  C19         0      63.791  63.891   6.651  1.00  0.00     0.096 C 
HETATM   11  C21         0      63.130  64.121   7.827  1.00  0.00     0.084 C 
ENDROOT
BRANCH  10  12
HETATM   12  O20         0      65.134  63.533   6.718  1.00  0.00    -0.359 OA
HETATM   13  H20         0      65.533  63.460   7.576  1.00  0.00     0.218 HD
ENDBRANCH  10  12
BRANCH   4  14
HETATM   14  C5          0      60.825  64.580  11.221  1.00  0.00     0.025 C 
HETATM   15  C6          0      60.879  65.422  12.322  1.00  0.00     0.004 C 
HETATM   16  C7          0      59.674  65.777  12.921  1.00  0.00     0.026 C 
HETATM   17  C8          0      58.468  65.210  12.525  1.00  0.00     0.112 C 
HETATM   18  C10         0      58.584  63.974  11.903  1.00  0.00     0.112 C 
HETATM   19  C12         0      59.769  63.678  11.238  1.00  0.00     0.028 C 
BRANCH  17  20
HETATM   20  O9          0      57.293  65.939  12.570  1.00  0.00    -0.357 OA
HETATM   21  H9          0      57.054  66.595  11.925  1.00  0.00     0.218 HD
ENDBRANCH  17  20
BRANCH  18  22
HETATM   22  O11         0      57.408  63.280  11.658  1.00  0.00    -0.357 OA
HETATM   23  H11         0      57.459  62.546  11.057  1.00  0.00     0.218 HD
ENDBRANCH  18  22
ENDBRANCH   4  14
BRANCH   8  24
HETATM   24  O17         0      60.972  62.609   4.771  1.00  0.00    -0.359 OA
HETATM   25  H17         0      60.108  62.800   4.425  1.00  0.00     0.218 HD
ENDBRANCH   8  24
TORSDOF 5
ENDMDL
