MODEL 1
REMARK VINA RESULT:      -0.0      0.000      0.000
REMARK  5 active torsions:
REMARK  status: ('A' for Active; 'I' for Inactive)
REMARK    1  A    between atoms: C4_4  and  C5_5 
REMARK    2  A    between atoms: C8_8  and  O9_9 
REMARK    3  A    between atoms: C10_11  and  O11_12 
REMARK    4  A    between atoms: C16_18  and  O17_19 
REMARK    5  A    between atoms: C19_22  and  O20_23 
ROOT
HETATM    1  O1          0      50.543 123.115 -30.302  1.00  0.00    -0.286 OA
HETATM    2  C2          0      50.320 124.284 -29.884  1.00  0.00     0.201 C 
HETATM    3  C3          0      49.120 124.657 -29.303  1.00  0.00     0.067 C 
HETATM    4  C4          0      48.862 125.975 -28.944  1.00  0.00     0.103 C 
HETATM    5  O13         0      49.800 126.883 -29.149  1.00  0.00    -0.307 OA
HETATM    6  C14         0      50.942 126.590 -29.732  1.00  0.00     0.107 C 
HETATM    7  C15         0      51.743 127.567 -30.304  1.00  0.00     0.049 C 
HETATM    8  C16         0      52.808 127.234 -31.133  1.00  0.00     0.093 C 
HETATM    9  C18         0      53.335 125.965 -30.928  1.00  0.00     0.048 C 
HETATM   10  C19         0      52.578 124.976 -30.316  1.00  0.00     0.096 C 
HETATM   11  C21         0      51.307 125.258 -29.895  1.00  0.00     0.084 C 
ENDROOT
BRANCH  10  12
HETATM   12  O20         0      52.922 123.641 -30.504  1.00  0.00    -0.359 OA
HETATM   13  H20         0      52.665 123.017 -29.836  1.00  0.00     0.218 HD
ENDBRANCH  10  12
BRANCH   4  14
HETATM   14  C5          0      47.462 126.401 -28.920  1.00  0.00     0.025 C 
HETATM   15  C6          0      47.073 127.718 -29.119  1.00  0.00     0.004 C 
HETATM   16  C7          0      45.912 127.943 -29.851  1.00  0.00     0.026 C 
HETATM   17  C8          0      45.092 126.896 -30.258  1.00  0.00     0.112 C 
HETATM   18  C10         0      45.208 125.740 -29.499  1.00  0.00     0.112 C 
HETATM   19  C12         0      46.410 125.497 -28.845  1.00  0.00     0.028 C 
BRANCH  17  20
HETATM   20  O9          0      44.392 126.966 -31.450  1.00  0.00    -0.357 OA
HETATM   21  H9          0      44.122 126.204 -31.949  1.00  0.00     0.218 HD
ENDBRANCH  17  20
BRANCH  18  22
HETATM   22  O11         0      44.283 124.734 -29.741  1.00  0.00    -0.357 OA
HETATM   23  H11         0      44.328 123.965 -29.184  1.00  0.00     0.218 HD
ENDBRANCH  18  22
ENDBRANCH   4  14
BRANCH   8  24
HETATM   24  O17         0      53.092 127.973 -32.287  1.00  0.00    -0.359 OA
HETATM   25  H17         0      53.204 127.554 -33.132  1.00  0.00     0.218 HD
ENDBRANCH   8  24
TORSDOF 5
ENDMDL
MODEL 2
REMARK VINA RESULT:      -0.0      4.777      7.007
REMARK  5 active torsions:
REMARK  status: ('A' for Active; 'I' for Inactive)
REMARK    1  A    between atoms: C4_4  and  C5_5 
REMARK    2  A    between atoms: C8_8  and  O9_9 
REMARK    3  A    between atoms: C10_11  and  O11_12 
REMARK    4  A    between atoms: C16_18  and  O17_19 
REMARK    5  A    between atoms: C19_22  and  O20_23 
ROOT
HETATM    1  O1          0      51.782 125.864 -29.577  1.00  0.00    -0.286 OA
HETATM    2  C2          0      52.810 126.503 -29.934  1.00  0.00     0.201 C 
HETATM    3  C3          0      52.815 127.379 -31.005  1.00  0.00     0.067 C 
HETATM    4  C4          0      53.985 127.991 -31.440  1.00  0.00     0.103 C 
HETATM    5  O13         0      55.111 127.739 -30.797  1.00  0.00    -0.307 OA
HETATM    6  C14         0      55.169 126.886 -29.797  1.00  0.00     0.107 C 
HETATM    7  C15         0      56.367 126.320 -29.388  1.00  0.00     0.049 C 
HETATM    8  C16         0      56.394 125.240 -28.513  1.00  0.00     0.093 C 
HETATM    9  C18         0      55.277 125.121 -27.694  1.00  0.00     0.048 C 
HETATM   10  C19         0      54.074 125.714 -28.051  1.00  0.00     0.096 C 
HETATM   11  C21         0      53.991 126.437 -29.209  1.00  0.00     0.084 C 
ENDROOT
BRANCH  10  12
HETATM   12  O20         0      52.891 125.245 -27.488  1.00  0.00    -0.359 OA
HETATM   13  H20         0      52.094 125.734 -27.655  1.00  0.00     0.218 HD
ENDBRANCH  10  12
BRANCH   4  14
HETATM   14  C5          0      54.051 128.383 -32.849  1.00  0.00     0.025 C 
HETATM   15  C6          0      55.247 128.486 -33.546  1.00  0.00     0.004 C 
HETATM   16  C7          0      55.259 128.065 -34.872  1.00  0.00     0.026 C 
HETATM   17  C8          0      54.093 127.680 -35.525  1.00  0.00     0.112 C 
HETATM   18  C10         0      52.926 128.201 -34.983  1.00  0.00     0.112 C 
HETATM   19  C12         0      52.916 128.535 -33.634  1.00  0.00     0.028 C 
BRANCH  17  20
HETATM   20  O9          0      54.116 126.693 -36.494  1.00  0.00    -0.357 OA
HETATM   21  H9          0      54.691 126.709 -37.251  1.00  0.00     0.218 HD
ENDBRANCH  17  20
BRANCH  18  22
HETATM   22  O11         0      51.756 128.005 -35.704  1.00  0.00    -0.357 OA
HETATM   23  H11         0      51.845 127.882 -36.642  1.00  0.00     0.218 HD
ENDBRANCH  18  22
ENDBRANCH   4  14
BRANCH   8  24
HETATM   24  O17         0      57.298 124.186 -28.684  1.00  0.00    -0.359 OA
HETATM   25  H17         0      57.617 123.678 -27.947  1.00  0.00     0.218 HD
ENDBRANCH   8  24
TORSDOF 5
ENDMDL
MODEL 3
REMARK VINA RESULT:       0.0     13.148     14.495
REMARK  5 active torsions:
REMARK  status: ('A' for Active; 'I' for Inactive)
REMARK    1  A    between atoms: C4_4  and  C5_5 
REMARK    2  A    between atoms: C8_8  and  O9_9 
REMARK    3  A    between atoms: C10_11  and  O11_12 
REMARK    4  A    between atoms: C16_18  and  O17_19 
REMARK    5  A    between atoms: C19_22  and  O20_23 
ROOT
HETATM    1  O1          0      54.107 111.118 -25.310  1.00  0.00    -0.286 OA
HETATM    2  C2          0      53.793 111.832 -26.301  1.00  0.00     0.201 C 
HETATM    3  C3          0      52.603 112.536 -26.371  1.00  0.00     0.067 C 
HETATM    4  C4          0      52.235 113.232 -27.517  1.00  0.00     0.103 C 
HETATM    5  O13         0      53.057 113.232 -28.552  1.00  0.00    -0.307 OA
HETATM    6  C14         0      54.181 112.549 -28.551  1.00  0.00     0.107 C 
HETATM    7  C15         0      54.835 112.217 -29.729  1.00  0.00     0.049 C 
HETATM    8  C16         0      55.869 111.289 -29.743  1.00  0.00     0.093 C 
HETATM    9  C18         0      56.539 111.138 -28.534  1.00  0.00     0.048 C 
HETATM   10  C19         0      55.932 111.504 -27.341  1.00  0.00     0.096 C 
HETATM   11  C21         0      54.670 112.034 -27.356  1.00  0.00     0.084 C 
ENDROOT
BRANCH  10  12
HETATM   12  O20         0      56.399 110.965 -26.146  1.00  0.00    -0.359 OA
HETATM   13  H20         0      55.866 111.078 -25.368  1.00  0.00     0.218 HD
ENDBRANCH  10  12
BRANCH   4  14
HETATM   14  C5          0      50.803 113.421 -27.755  1.00  0.00     0.025 C 
HETATM   15  C6          0      50.266 113.584 -29.024  1.00  0.00     0.004 C 
HETATM   16  C7          0      49.041 112.980 -29.288  1.00  0.00     0.026 C 
HETATM   17  C8          0      48.308 112.350 -28.288  1.00  0.00     0.112 C 
HETATM   18  C10         0      48.595 112.780 -27.000  1.00  0.00     0.112 C 
HETATM   19  C12         0      49.858 113.301 -26.744  1.00  0.00     0.028 C 
BRANCH  17  20
HETATM   20  O9          0      47.526 111.245 -28.572  1.00  0.00    -0.357 OA
HETATM   21  H9          0      46.590 111.287 -28.732  1.00  0.00     0.218 HD
ENDBRANCH  17  20
BRANCH  18  22
HETATM   22  O11         0      47.765 112.324 -25.985  1.00  0.00    -0.357 OA
HETATM   23  H11         0      47.643 111.384 -25.919  1.00  0.00     0.218 HD
ENDBRANCH  18  22
ENDBRANCH   4  14
BRANCH   8  24
HETATM   24  O17         0      55.996 110.354 -30.776  1.00  0.00    -0.359 OA
HETATM   25  H17         0      55.662 110.526 -31.648  1.00  0.00     0.218 HD
ENDBRANCH   8  24
TORSDOF 5
ENDMDL
MODEL 4
REMARK VINA RESULT:       0.0     13.677     15.690
REMARK  5 active torsions:
REMARK  status: ('A' for Active; 'I' for Inactive)
REMARK    1  A    between atoms: C4_4  and  C5_5 
REMARK    2  A    between atoms: C8_8  and  O9_9 
REMARK    3  A    between atoms: C10_11  and  O11_12 
REMARK    4  A    between atoms: C16_18  and  O17_19 
REMARK    5  A    between atoms: C19_22  and  O20_23 
ROOT
HETATM    1  O1          0      48.304 111.786 -29.784  1.00  0.00    -0.286 OA
HETATM    2  C2          0      48.895 112.233 -28.763  1.00  0.00     0.201 C 
HETATM    3  C3          0      50.200 112.694 -28.793  1.00  0.00     0.067 C 
HETATM    4  C4          0      50.861 113.085 -27.634  1.00  0.00     0.103 C 
HETATM    5  O13         0      50.213 113.030 -26.484  1.00  0.00    -0.307 OA
HETATM    6  C14         0      48.986 112.565 -26.395  1.00  0.00     0.107 C 
HETATM    7  C15         0      48.454 112.134 -25.188  1.00  0.00     0.049 C 
HETATM    8  C16         0      47.266 111.415 -25.139  1.00  0.00     0.093 C 
HETATM    9  C18         0      46.414 111.615 -26.219  1.00  0.00     0.048 C 
HETATM   10  C19         0      46.905 112.090 -27.427  1.00  0.00     0.096 C 
HETATM   11  C21         0      48.237 112.380 -27.551  1.00  0.00     0.084 C 
ENDROOT
BRANCH  10  12
HETATM   12  O20         0      46.173 111.877 -28.591  1.00  0.00    -0.359 OA
HETATM   13  H20         0      45.411 111.312 -28.540  1.00  0.00     0.218 HD
ENDBRANCH  10  12
BRANCH   4  14
HETATM   14  C5          0      52.321 112.973 -27.626  1.00  0.00     0.025 C 
HETATM   15  C6          0      53.055 112.796 -26.462  1.00  0.00     0.004 C 
HETATM   16  C7          0      54.158 111.950 -26.519  1.00  0.00     0.026 C 
HETATM   17  C8          0      54.598 111.403 -27.719  1.00  0.00     0.112 C 
HETATM   18  C10         0      54.222 112.114 -28.852  1.00  0.00     0.112 C 
HETATM   19  C12         0      53.068 112.886 -28.794  1.00  0.00     0.028 C 
BRANCH  17  20
HETATM   20  O9          0      55.173 110.146 -27.757  1.00  0.00    -0.357 OA
HETATM   21  H9          0      56.109 109.995 -27.823  1.00  0.00     0.218 HD
ENDBRANCH  17  20
BRANCH  18  22
HETATM   22  O11         0      54.789 111.722 -30.056  1.00  0.00    -0.357 OA
HETATM   23  H11         0      54.320 111.957 -30.849  1.00  0.00     0.218 HD
ENDBRANCH  18  22
ENDBRANCH   4  14
BRANCH   8  24
HETATM   24  O17         0      47.101 110.337 -24.262  1.00  0.00    -0.359 OA
HETATM   25  H17         0      47.842 109.833 -23.946  1.00  0.00     0.218 HD
ENDBRANCH   8  24
TORSDOF 5
ENDMDL
MODEL 5
REMARK VINA RESULT:       0.0     11.297     12.276
REMARK  5 active torsions:
REMARK  status: ('A' for Active; 'I' for Inactive)
REMARK    1  A    between atoms: C4_4  and  C5_5 
REMARK    2  A    between atoms: C8_8  and  O9_9 
REMARK    3  A    between atoms: C10_11  and  O11_12 
REMARK    4  A    between atoms: C16_18  and  O17_19 
REMARK    5  A    between atoms: C19_22  and  O20_23 
ROOT
HETATM    1  O1          0      50.345 115.570 -21.467  1.00  0.00    -0.286 OA
HETATM    2  C2          0      49.736 115.929 -22.512  1.00  0.00     0.201 C 
HETATM    3  C3          0      48.640 116.775 -22.489  1.00  0.00     0.067 C 
HETATM    4  C4          0      47.925 117.073 -23.643  1.00  0.00     0.103 C 
HETATM    5  O13         0      48.321 116.546 -24.789  1.00  0.00    -0.307 OA
HETATM    6  C14         0      49.331 115.707 -24.860  1.00  0.00     0.107 C 
HETATM    7  C15         0      49.500 114.858 -25.944  1.00  0.00     0.049 C 
HETATM    8  C16         0      50.409 113.807 -25.903  1.00  0.00     0.093 C 
HETATM    9  C18         0      51.457 113.972 -25.006  1.00  0.00     0.048 C 
HETATM   10  C19         0      51.339 114.849 -23.936  1.00  0.00     0.096 C 
HETATM   11  C21         0      50.187 115.569 -23.773  1.00  0.00     0.084 C 
ENDROOT
BRANCH  10  12
HETATM   12  O20         0      52.173 114.693 -22.833  1.00  0.00    -0.359 OA
HETATM   13  H20         0      51.902 115.084 -22.012  1.00  0.00     0.218 HD
ENDBRANCH  10  12
BRANCH   4  14
HETATM   14  C5          0      46.515 117.434 -23.483  1.00  0.00     0.025 C 
HETATM   15  C6          0      45.570 117.232 -24.478  1.00  0.00     0.004 C 
HETATM   16  C7          0      44.300 116.820 -24.086  1.00  0.00     0.026 C 
HETATM   17  C8          0      43.940 116.741 -22.745  1.00  0.00     0.112 C 
HETATM   18  C10         0      44.693 117.539 -21.895  1.00  0.00     0.112 C 
HETATM   19  C12         0      45.991 117.866 -22.272  1.00  0.00     0.028 C 
BRANCH  17  20
HETATM   20  O9          0      43.049 115.778 -22.306  1.00  0.00    -0.357 OA
HETATM   21  H9          0      42.541 115.854 -21.507  1.00  0.00     0.218 HD
ENDBRANCH  17  20
BRANCH  18  22
HETATM   22  O11         0      44.258 117.644 -20.581  1.00  0.00    -0.357 OA
HETATM   23  H11         0      44.755 118.215 -20.008  1.00  0.00     0.218 HD
ENDBRANCH  18  22
ENDBRANCH   4  14
BRANCH   8  24
HETATM   24  O17         0      50.106 112.559 -26.458  1.00  0.00    -0.359 OA
HETATM   25  H17         0      50.076 111.771 -25.929  1.00  0.00     0.218 HD
ENDBRANCH   8  24
TORSDOF 5
ENDMDL
MODEL 6
REMARK VINA RESULT:       0.0      8.036      9.920
REMARK  5 active torsions:
REMARK  status: ('A' for Active; 'I' for Inactive)
REMARK    1  A    between atoms: C4_4  and  C5_5 
REMARK    2  A    between atoms: C8_8  and  O9_9 
REMARK    3  A    between atoms: C10_11  and  O11_12 
REMARK    4  A    between atoms: C16_18  and  O17_19 
REMARK    5  A    between atoms: C19_22  and  O20_23 
ROOT
HETATM    1  O1          0      51.161 117.750 -22.782  1.00  0.00    -0.286 OA
HETATM    2  C2          0      50.417 118.287 -23.648  1.00  0.00     0.201 C 
HETATM    3  C3          0      50.304 119.659 -23.793  1.00  0.00     0.067 C 
HETATM    4  C4          0      49.401 120.225 -24.686  1.00  0.00     0.103 C 
HETATM    5  O13         0      48.651 119.425 -25.424  1.00  0.00    -0.307 OA
HETATM    6  C14         0      48.693 118.117 -25.299  1.00  0.00     0.107 C 
HETATM    7  C15         0      47.663 117.306 -25.755  1.00  0.00     0.049 C 
HETATM    8  C16         0      47.589 115.965 -25.398  1.00  0.00     0.093 C 
HETATM    9  C18         0      48.801 115.382 -25.049  1.00  0.00     0.048 C 
HETATM   10  C19         0      49.868 116.168 -24.634  1.00  0.00     0.096 C 
HETATM   11  C21         0      49.730 117.528 -24.583  1.00  0.00     0.084 C 
ENDROOT
BRANCH  10  12
HETATM   12  O20         0      50.891 115.588 -23.890  1.00  0.00    -0.359 OA
HETATM   13  H20         0      51.142 116.006 -23.076  1.00  0.00     0.218 HD
ENDBRANCH  10  12
BRANCH   4  14
HETATM   14  C5          0      48.905 121.568 -24.377  1.00  0.00     0.025 C 
HETATM   15  C6          0      47.673 122.033 -24.812  1.00  0.00     0.004 C 
HETATM   16  C7          0      46.940 122.831 -23.939  1.00  0.00     0.026 C 
HETATM   17  C8          0      47.470 123.263 -22.728  1.00  0.00     0.112 C 
HETATM   18  C10         0      48.857 123.289 -22.678  1.00  0.00     0.112 C 
HETATM   19  C12         0      49.564 122.421 -23.501  1.00  0.00     0.028 C 
BRANCH  17  20
HETATM   20  O9          0      46.658 123.439 -21.621  1.00  0.00    -0.357 OA
HETATM   21  H9          0      46.806 123.012 -20.785  1.00  0.00     0.218 HD
ENDBRANCH  17  20
BRANCH  18  22
HETATM   22  O11         0      49.435 123.888 -21.567  1.00  0.00    -0.357 OA
HETATM   23  H11         0      50.072 123.374 -21.084  1.00  0.00     0.218 HD
ENDBRANCH  18  22
ENDBRANCH   4  14
BRANCH   8  24
HETATM   24  O17         0      46.366 115.359 -25.090  1.00  0.00    -0.359 OA
HETATM   25  H17         0      45.544 115.829 -25.162  1.00  0.00     0.218 HD
ENDBRANCH   8  24
TORSDOF 5
ENDMDL
MODEL 7
REMARK VINA RESULT:       0.0      8.961     10.972
REMARK  5 active torsions:
REMARK  status: ('A' for Active; 'I' for Inactive)
REMARK    1  A    between atoms: C4_4  and  C5_5 
REMARK    2  A    between atoms: C8_8  and  O9_9 
REMARK    3  A    between atoms: C10_11  and  O11_12 
REMARK    4  A    between atoms: C16_18  and  O17_19 
REMARK    5  A    between atoms: C19_22  and  O20_23 
ROOT
HETATM    1  O1          0      51.853 117.176 -21.612  1.00  0.00    -0.286 OA
HETATM    2  C2          0      51.289 117.958 -22.425  1.00  0.00     0.201 C 
HETATM    3  C3          0      51.649 119.287 -22.561  1.00  0.00     0.067 C 
HETATM    4  C4          0      50.943 120.152 -23.390  1.00  0.00     0.103 C 
HETATM    5  O13         0      49.918 119.679 -24.076  1.00  0.00    -0.307 OA
HETATM    6  C14         0      49.511 118.434 -23.955  1.00  0.00     0.107 C 
HETATM    7  C15         0      48.237 118.041 -24.339  1.00  0.00     0.049 C 
HETATM    8  C16         0      47.725 116.800 -23.979  1.00  0.00     0.093 C 
HETATM    9  C18         0      48.680 115.826 -23.714  1.00  0.00     0.048 C 
HETATM   10  C19         0      49.977 116.184 -23.372  1.00  0.00     0.096 C 
HETATM   11  C21         0      50.323 117.506 -23.312  1.00  0.00     0.084 C 
ENDROOT
BRANCH  10  12
HETATM   12  O20         0      50.781 115.268 -22.700  1.00  0.00    -0.359 OA
HETATM   13  H20         0      51.611 115.031 -23.095  1.00  0.00     0.218 HD
ENDBRANCH  10  12
BRANCH   4  14
HETATM   14  C5          0      50.965 121.575 -23.047  1.00  0.00     0.025 C 
HETATM   15  C6          0      49.946 122.449 -23.397  1.00  0.00     0.004 C 
HETATM   16  C7          0      49.593 123.429 -22.475  1.00  0.00     0.026 C 
HETATM   17  C8          0      50.316 123.623 -21.303  1.00  0.00     0.112 C 
HETATM   18  C10         0      51.626 123.166 -21.348  1.00  0.00     0.112 C 
HETATM   19  C12         0      51.933 122.126 -22.218  1.00  0.00     0.028 C 
BRANCH  17  20
HETATM   20  O9          0      49.687 124.041 -20.144  1.00  0.00    -0.357 OA
HETATM   21  H9          0      49.731 123.570 -19.319  1.00  0.00     0.218 HD
ENDBRANCH  17  20
BRANCH  18  22
HETATM   22  O11         0      52.445 123.501 -20.279  1.00  0.00    -0.357 OA
HETATM   23  H11         0      53.300 123.087 -20.247  1.00  0.00     0.218 HD
ENDBRANCH  18  22
ENDBRANCH   4  14
BRANCH   8  24
HETATM   24  O17         0      46.390 116.648 -23.589  1.00  0.00    -0.359 OA
HETATM   25  H17         0      45.994 117.211 -22.934  1.00  0.00     0.218 HD
ENDBRANCH   8  24
TORSDOF 5
ENDMDL
MODEL 8
REMARK VINA RESULT:       0.0      8.123      9.069
REMARK  5 active torsions:
REMARK  status: ('A' for Active; 'I' for Inactive)
REMARK    1  A    between atoms: C4_4  and  C5_5 
REMARK    2  A    between atoms: C8_8  and  O9_9 
REMARK    3  A    between atoms: C10_11  and  O11_12 
REMARK    4  A    between atoms: C16_18  and  O17_19 
REMARK    5  A    between atoms: C19_22  and  O20_23 
ROOT
HETATM    1  O1          0      52.724 118.403 -25.583  1.00  0.00    -0.286 OA
HETATM    2  C2          0      51.715 118.549 -26.326  1.00  0.00     0.201 C 
HETATM    3  C3          0      50.580 119.232 -25.923  1.00  0.00     0.067 C 
HETATM    4  C4          0      49.443 119.291 -26.721  1.00  0.00     0.103 C 
HETATM    5  O13         0      49.464 118.695 -27.900  1.00  0.00    -0.307 OA
HETATM    6  C14         0      50.502 118.001 -28.315  1.00  0.00     0.107 C 
HETATM    7  C15         0      50.395 117.064 -29.332  1.00  0.00     0.049 C 
HETATM    8  C16         0      51.420 116.161 -29.591  1.00  0.00     0.093 C 
HETATM    9  C18         0      52.683 116.574 -29.185  1.00  0.00     0.048 C 
HETATM   10  C19         0      52.825 117.545 -28.202  1.00  0.00     0.096 C 
HETATM   11  C21         0      51.714 118.112 -27.641  1.00  0.00     0.084 C 
ENDROOT
BRANCH  10  12
HETATM   12  O20         0      54.026 117.636 -27.505  1.00  0.00    -0.359 OA
HETATM   13  H20         0      54.265 118.478 -27.137  1.00  0.00     0.218 HD
ENDBRANCH  10  12
BRANCH   4  14
HETATM   14  C5          0      48.158 119.470 -26.044  1.00  0.00     0.025 C 
HETATM   15  C6          0      46.958 119.024 -26.579  1.00  0.00     0.004 C 
HETATM   16  C7          0      46.021 118.488 -25.701  1.00  0.00     0.026 C 
HETATM   17  C8          0      46.211 118.516 -24.324  1.00  0.00     0.112 C 
HETATM   18  C10         0      47.078 119.505 -23.879  1.00  0.00     0.112 C 
HETATM   19  C12         0      48.061 119.963 -24.749  1.00  0.00     0.028 C 
BRANCH  17  20
HETATM   20  O9          0      45.731 117.497 -23.521  1.00  0.00    -0.357 OA
HETATM   21  H9          0      45.340 117.638 -22.666  1.00  0.00     0.218 HD
ENDBRANCH  17  20
BRANCH  18  22
HETATM   22  O11         0      47.158 119.700 -22.507  1.00  0.00    -0.357 OA
HETATM   23  H11         0      47.536 118.995 -21.994  1.00  0.00     0.218 HD
ENDBRANCH  18  22
ENDBRANCH   4  14
BRANCH   8  24
HETATM   24  O17         0      51.151 114.827 -29.916  1.00  0.00    -0.359 OA
HETATM   25  H17         0      50.959 114.179 -29.248  1.00  0.00     0.218 HD
ENDBRANCH   8  24
TORSDOF 5
ENDMDL
MODEL 9
REMARK VINA RESULT:       0.0      9.540     12.723
REMARK  5 active torsions:
REMARK  status: ('A' for Active; 'I' for Inactive)
REMARK    1  A    between atoms: C4_4  and  C5_5 
REMARK    2  A    between atoms: C8_8  and  O9_9 
REMARK    3  A    between atoms: C10_11  and  O11_12 
REMARK    4  A    between atoms: C16_18  and  O17_19 
REMARK    5  A    between atoms: C19_22  and  O20_23 
ROOT
HETATM    1  O1          0      50.644 117.976 -28.953  1.00  0.00    -0.286 OA
HETATM    2  C2          0      50.733 116.755 -29.260  1.00  0.00     0.201 C 
HETATM    3  C3          0      51.941 116.135 -29.529  1.00  0.00     0.067 C 
HETATM    4  C4          0      52.002 114.815 -29.963  1.00  0.00     0.103 C 
HETATM    5  O13         0      50.874 114.140 -30.100  1.00  0.00    -0.307 OA
HETATM    6  C14         0      49.699 114.692 -29.894  1.00  0.00     0.107 C 
HETATM    7  C15         0      48.533 114.142 -30.407  1.00  0.00     0.049 C 
HETATM    8  C16         0      47.339 114.853 -30.407  1.00  0.00     0.093 C 
HETATM    9  C18         0      47.247 115.846 -29.439  1.00  0.00     0.048 C 
HETATM   10  C19         0      48.393 116.385 -28.870  1.00  0.00     0.096 C 
HETATM   11  C21         0      49.623 115.924 -29.254  1.00  0.00     0.084 C 
ENDROOT
BRANCH  10  12
HETATM   12  O20         0      48.326 117.633 -28.258  1.00  0.00    -0.359 OA
HETATM   13  H20         0      48.399 117.668 -27.312  1.00  0.00     0.218 HD
ENDBRANCH  10  12
BRANCH   4  14
HETATM   14  C5          0      53.157 114.430 -30.776  1.00  0.00     0.025 C 
HETATM   15  C6          0      53.117 113.395 -31.698  1.00  0.00     0.004 C 
HETATM   16  C7          0      53.809 113.568 -32.892  1.00  0.00     0.026 C 
HETATM   17  C8          0      54.624 114.673 -33.109  1.00  0.00     0.112 C 
HETATM   18  C10         0      55.090 115.286 -31.954  1.00  0.00     0.112 C 
HETATM   19  C12         0      54.334 115.168 -30.793  1.00  0.00     0.028 C 
BRANCH  17  20
HETATM   20  O9          0      54.762 115.214 -34.375  1.00  0.00    -0.357 OA
HETATM   21  H9          0      55.115 114.737 -35.118  1.00  0.00     0.218 HD
ENDBRANCH  17  20
BRANCH  18  22
HETATM   22  O11         0      56.054 116.272 -32.110  1.00  0.00    -0.357 OA
HETATM   23  H11         0      56.071 116.963 -31.458  1.00  0.00     0.218 HD
ENDBRANCH  18  22
ENDBRANCH   4  14
BRANCH   8  24
HETATM   24  O17         0      46.460 114.802 -31.494  1.00  0.00    -0.359 OA
HETATM   25  H17         0      45.519 114.751 -31.374  1.00  0.00     0.218 HD
ENDBRANCH   8  24
TORSDOF 5
ENDMDL
