MODEL 1
REMARK VINA RESULT:      -5.8      0.000      0.000
REMARK  5 active torsions:
REMARK  status: ('A' for Active; 'I' for Inactive)
REMARK    1  A    between atoms: C4_4  and  C5_5 
REMARK    2  A    between atoms: C8_8  and  O9_9 
REMARK    3  A    between atoms: C10_11  and  O11_12 
REMARK    4  A    between atoms: C16_18  and  O17_19 
REMARK    5  A    between atoms: C19_22  and  O20_23 
ROOT
HETATM    1  O1          0      55.370  42.350  35.914  1.00  0.00    -0.286 OA
HETATM    2  C2          0      55.129  42.121  37.131  1.00  0.00     0.201 C 
HETATM    3  C3          0      53.908  41.643  37.577  1.00  0.00     0.067 C 
HETATM    4  C4          0      53.634  41.496  38.932  1.00  0.00     0.103 C 
HETATM    5  O13         0      54.575  41.804  39.807  1.00  0.00    -0.307 OA
HETATM    6  C14         0      55.737  42.297  39.439  1.00  0.00     0.107 C 
HETATM    7  C15         0      56.554  42.983  40.326  1.00  0.00     0.049 C 
HETATM    8  C16         0      57.648  43.716  39.881  1.00  0.00     0.093 C 
HETATM    9  C18         0      58.173  43.305  38.661  1.00  0.00     0.048 C 
HETATM   10  C19         0      57.398  42.576  37.770  1.00  0.00     0.096 C 
HETATM   11  C21         0      56.112  42.245  38.101  1.00  0.00     0.084 C 
ENDROOT
BRANCH  10  12
HETATM   12  O20         0      57.753  42.549  36.424  1.00  0.00    -0.359 OA
HETATM   13  H20         0      58.530  43.025  36.159  1.00  0.00     0.218 HD
ENDBRANCH  10  12
BRANCH   4  14
HETATM   14  C5          0      52.232  41.583  39.345  1.00  0.00     0.025 C 
HETATM   15  C6          0      51.746  42.607  40.146  1.00  0.00     0.004 C 
HETATM   16  C7          0      50.478  43.101  39.860  1.00  0.00     0.026 C 
HETATM   17  C8          0      49.664  42.511  38.899  1.00  0.00     0.112 C 
HETATM   18  C10         0      49.956  41.181  38.630  1.00  0.00     0.112 C 
HETATM   19  C12         0      51.254  40.734  38.844  1.00  0.00     0.028 C 
BRANCH  17  20
HETATM   20  O9          0      48.790  43.274  38.145  1.00  0.00    -0.357 OA
HETATM   21  H9          0      48.295  42.935  37.408  1.00  0.00     0.218 HD
ENDBRANCH  17  20
BRANCH  18  22
HETATM   22  O11         0      49.061  40.492  37.823  1.00  0.00    -0.357 OA
HETATM   23  H11         0      48.783  40.923  37.024  1.00  0.00     0.218 HD
ENDBRANCH  18  22
ENDBRANCH   4  14
BRANCH   8  24
HETATM   24  O17         0      57.970  44.958  40.439  1.00  0.00    -0.359 OA
HETATM   25  H17         0      57.324  45.649  40.526  1.00  0.00     0.218 HD
ENDBRANCH   8  24
TORSDOF 5
ENDMDL
MODEL 2
REMARK VINA RESULT:      -5.6      5.222      7.149
REMARK  5 active torsions:
REMARK  status: ('A' for Active; 'I' for Inactive)
REMARK    1  A    between atoms: C4_4  and  C5_5 
REMARK    2  A    between atoms: C8_8  and  O9_9 
REMARK    3  A    between atoms: C10_11  and  O11_12 
REMARK    4  A    between atoms: C16_18  and  O17_19 
REMARK    5  A    between atoms: C19_22  and  O20_23 
ROOT
HETATM    1  O1          0      51.050  42.644  39.221  1.00  0.00    -0.286 OA
HETATM    2  C2          0      49.946  43.146  39.568  1.00  0.00     0.201 C 
HETATM    3  C3          0      49.105  43.796  38.680  1.00  0.00     0.067 C 
HETATM    4  C4          0      47.944  44.430  39.107  1.00  0.00     0.103 C 
HETATM    5  O13         0      47.633  44.387  40.391  1.00  0.00    -0.307 OA
HETATM    6  C14         0      48.414  43.816  41.281  1.00  0.00     0.107 C 
HETATM    7  C15         0      48.314  44.104  42.634  1.00  0.00     0.049 C 
HETATM    8  C16         0      49.294  43.701  43.533  1.00  0.00     0.093 C 
HETATM    9  C18         0      50.041  42.600  43.132  1.00  0.00     0.048 C 
HETATM   10  C19         0      50.125  42.255  41.790  1.00  0.00     0.096 C 
HETATM   11  C21         0      49.454  42.996  40.855  1.00  0.00     0.084 C 
ENDROOT
BRANCH  10  12
HETATM   12  O20         0      51.182  41.461  41.356  1.00  0.00    -0.359 OA
HETATM   13  H20         0      51.841  41.861  40.802  1.00  0.00     0.218 HD
ENDBRANCH  10  12
BRANCH   4  14
HETATM   14  C5          0      47.456  45.550  38.301  1.00  0.00     0.025 C 
HETATM   15  C6          0      47.566  46.872  38.707  1.00  0.00     0.004 C 
HETATM   16  C7          0      47.863  47.823  37.735  1.00  0.00     0.026 C 
HETATM   17  C8          0      47.917  47.493  36.385  1.00  0.00     0.112 C 
HETATM   18  C10         0      47.195  46.360  36.036  1.00  0.00     0.112 C 
HETATM   19  C12         0      46.986  45.385  37.004  1.00  0.00     0.028 C 
BRANCH  17  20
HETATM   20  O9          0      48.797  48.137  35.533  1.00  0.00    -0.357 OA
HETATM   21  H9          0      49.711  48.297  35.740  1.00  0.00     0.218 HD
ENDBRANCH  17  20
BRANCH  18  22
HETATM   22  O11         0      47.060  46.094  34.680  1.00  0.00    -0.357 OA
HETATM   23  H11         0      47.185  46.824  34.085  1.00  0.00     0.218 HD
ENDBRANCH  18  22
ENDBRANCH   4  14
BRANCH   8  24
HETATM   24  O17         0      49.713  44.534  44.576  1.00  0.00    -0.359 OA
HETATM   25  H17         0      50.634  44.662  44.774  1.00  0.00     0.218 HD
ENDBRANCH   8  24
TORSDOF 5
ENDMDL
MODEL 3
REMARK VINA RESULT:      -5.6      2.869      7.604
REMARK  5 active torsions:
REMARK  status: ('A' for Active; 'I' for Inactive)
REMARK    1  A    between atoms: C4_4  and  C5_5 
REMARK    2  A    between atoms: C8_8  and  O9_9 
REMARK    3  A    between atoms: C10_11  and  O11_12 
REMARK    4  A    between atoms: C16_18  and  O17_19 
REMARK    5  A    between atoms: C19_22  and  O20_23 
ROOT
HETATM    1  O1          0      48.802  46.158  41.175  1.00  0.00    -0.286 OA
HETATM    2  C2          0      48.815  45.162  40.401  1.00  0.00     0.201 C 
HETATM    3  C3          0      49.488  43.989  40.698  1.00  0.00     0.067 C 
HETATM    4  C4          0      49.572  42.946  39.783  1.00  0.00     0.103 C 
HETATM    5  O13         0      48.974  43.078  38.612  1.00  0.00    -0.307 OA
HETATM    6  C14         0      48.354  44.185  38.265  1.00  0.00     0.107 C 
HETATM    7  C15         0      48.082  44.486  36.938  1.00  0.00     0.049 C 
HETATM    8  C16         0      47.663  45.755  36.557  1.00  0.00     0.093 C 
HETATM    9  C18         0      47.040  46.492  37.556  1.00  0.00     0.048 C 
HETATM   10  C19         0      47.253  46.188  38.894  1.00  0.00     0.096 C 
HETATM   11  C21         0      48.070  45.144  39.231  1.00  0.00     0.084 C 
ENDROOT
BRANCH  10  12
HETATM   12  O20         0      46.999  47.157  39.860  1.00  0.00    -0.359 OA
HETATM   13  H20         0      47.715  47.723  40.121  1.00  0.00     0.218 HD
ENDBRANCH  10  12
BRANCH   4  14
HETATM   14  C5          0      50.730  42.056  39.886  1.00  0.00     0.025 C 
HETATM   15  C6          0      50.742  40.773  39.359  1.00  0.00     0.004 C 
HETATM   16  C7          0      51.923  40.327  38.774  1.00  0.00     0.026 C 
HETATM   17  C8          0      53.093  41.077  38.829  1.00  0.00     0.112 C 
HETATM   18  C10         0      53.149  41.988  39.876  1.00  0.00     0.112 C 
HETATM   19  C12         0      51.954  42.482  40.386  1.00  0.00     0.028 C 
BRANCH  17  20
HETATM   20  O9          0      54.005  41.044  37.790  1.00  0.00    -0.357 OA
HETATM   21  H9          0      54.945  41.116  37.910  1.00  0.00     0.218 HD
ENDBRANCH  17  20
BRANCH  18  22
HETATM   22  O11         0      54.363  42.625  40.090  1.00  0.00    -0.357 OA
HETATM   23  H11         0      54.329  43.544  40.331  1.00  0.00     0.218 HD
ENDBRANCH  18  22
ENDBRANCH   4  14
BRANCH   8  24
HETATM   24  O17         0      48.132  46.355  35.383  1.00  0.00    -0.359 OA
HETATM   25  H17         0      47.605  46.387  34.594  1.00  0.00     0.218 HD
ENDBRANCH   8  24
TORSDOF 5
ENDMDL
MODEL 4
REMARK VINA RESULT:      -5.5      1.577      2.869
REMARK  5 active torsions:
REMARK  status: ('A' for Active; 'I' for Inactive)
REMARK    1  A    between atoms: C4_4  and  C5_5 
REMARK    2  A    between atoms: C8_8  and  O9_9 
REMARK    3  A    between atoms: C10_11  and  O11_12 
REMARK    4  A    between atoms: C16_18  and  O17_19 
REMARK    5  A    between atoms: C19_22  and  O20_23 
ROOT
HETATM    1  O1          0      56.763  42.385  40.272  1.00  0.00    -0.286 OA
HETATM    2  C2          0      55.792  42.295  39.471  1.00  0.00     0.201 C 
HETATM    3  C3          0      54.484  42.133  39.894  1.00  0.00     0.067 C 
HETATM    4  C4          0      53.446  41.935  38.991  1.00  0.00     0.103 C 
HETATM    5  O13         0      53.722  41.921  37.699  1.00  0.00    -0.307 OA
HETATM    6  C14         0      54.952  42.033  37.246  1.00  0.00     0.107 C 
HETATM    7  C15         0      55.298  41.628  35.965  1.00  0.00     0.049 C 
HETATM    8  C16         0      56.628  41.509  35.581  1.00  0.00     0.093 C 
HETATM    9  C18         0      57.521  42.290  36.305  1.00  0.00     0.048 C 
HETATM   10  C19         0      57.187  42.751  37.571  1.00  0.00     0.096 C 
HETATM   11  C21         0      55.964  42.449  38.104  1.00  0.00     0.084 C 
ENDROOT
BRANCH  10  12
HETATM   12  O20         0      58.201  43.138  38.443  1.00  0.00    -0.359 OA
HETATM   13  H20         0      58.853  42.491  38.683  1.00  0.00     0.218 HD
ENDBRANCH  10  12
BRANCH   4  14
HETATM   14  C5          0      52.274  41.197  39.468  1.00  0.00     0.025 C 
HETATM   15  C6          0      51.843  41.243  40.786  1.00  0.00     0.004 C 
HETATM   16  C7          0      50.471  41.260  41.015  1.00  0.00     0.026 C 
HETATM   17  C8          0      49.557  41.102  39.980  1.00  0.00     0.112 C 
HETATM   18  C10         0      50.055  40.448  38.861  1.00  0.00     0.112 C 
HETATM   19  C12         0      51.420  40.519  38.609  1.00  0.00     0.028 C 
BRANCH  17  20
HETATM   20  O9          0      48.331  41.742  40.012  1.00  0.00    -0.357 OA
HETATM   21  H9          0      47.983  42.255  39.291  1.00  0.00     0.218 HD
ENDBRANCH  17  20
BRANCH  18  22
HETATM   22  O11         0      49.141  40.097  37.878  1.00  0.00    -0.357 OA
HETATM   23  H11         0      48.903  40.771  37.251  1.00  0.00     0.218 HD
ENDBRANCH  18  22
ENDBRANCH   4  14
BRANCH   8  24
HETATM   24  O17         0      57.063  40.450  34.776  1.00  0.00    -0.359 OA
HETATM   25  H17         0      56.680  39.583  34.842  1.00  0.00     0.218 HD
ENDBRANCH   8  24
TORSDOF 5
ENDMDL
MODEL 5
REMARK VINA RESULT:      -5.3      4.012      5.600
REMARK  5 active torsions:
REMARK  status: ('A' for Active; 'I' for Inactive)
REMARK    1  A    between atoms: C4_4  and  C5_5 
REMARK    2  A    between atoms: C8_8  and  O9_9 
REMARK    3  A    between atoms: C10_11  and  O11_12 
REMARK    4  A    between atoms: C16_18  and  O17_19 
REMARK    5  A    between atoms: C19_22  and  O20_23 
ROOT
HETATM    1  O1          0      58.685  39.880  41.262  1.00  0.00    -0.286 OA
HETATM    2  C2          0      58.058  40.796  40.663  1.00  0.00     0.201 C 
HETATM    3  C3          0      57.290  40.565  39.534  1.00  0.00     0.067 C 
HETATM    4  C4          0      56.693  41.608  38.834  1.00  0.00     0.103 C 
HETATM    5  O13         0      56.853  42.843  39.276  1.00  0.00    -0.307 OA
HETATM    6  C14         0      57.602  43.120  40.320  1.00  0.00     0.107 C 
HETATM    7  C15         0      58.094  44.397  40.548  1.00  0.00     0.049 C 
HETATM    8  C16         0      59.082  44.631  41.497  1.00  0.00     0.093 C 
HETATM    9  C18         0      59.151  43.690  42.517  1.00  0.00     0.048 C 
HETATM   10  C19         0      58.626  42.417  42.340  1.00  0.00     0.096 C 
HETATM   11  C21         0      58.022  42.091  41.156  1.00  0.00     0.084 C 
ENDROOT
BRANCH  10  12
HETATM   12  O20         0      59.068  41.379  43.154  1.00  0.00    -0.359 OA
HETATM   13  H20         0      59.214  41.567  44.074  1.00  0.00     0.218 HD
ENDBRANCH  10  12
BRANCH   4  14
HETATM   14  C5          0      56.439  41.397  37.407  1.00  0.00     0.025 C 
HETATM   15  C6          0      55.194  41.595  36.828  1.00  0.00     0.004 C 
HETATM   16  C7          0      55.158  42.159  35.557  1.00  0.00     0.026 C 
HETATM   17  C8          0      56.319  42.395  34.829  1.00  0.00     0.112 C 
HETATM   18  C10         0      57.403  41.609  35.199  1.00  0.00     0.112 C 
HETATM   19  C12         0      57.457  41.129  36.502  1.00  0.00     0.028 C 
BRANCH  17  20
HETATM   20  O9          0      56.410  43.473  33.967  1.00  0.00    -0.357 OA
HETATM   21  H9          0      55.824  43.612  33.232  1.00  0.00     0.218 HD
ENDBRANCH  17  20
BRANCH  18  22
HETATM   22  O11         0      58.527  41.667  34.386  1.00  0.00    -0.357 OA
HETATM   23  H11         0      58.399  41.977  33.497  1.00  0.00     0.218 HD
ENDBRANCH  18  22
ENDBRANCH   4  14
BRANCH   8  24
HETATM   24  O17         0      60.125  45.533  41.257  1.00  0.00    -0.359 OA
HETATM   25  H17         0      60.438  46.124  41.931  1.00  0.00     0.218 HD
ENDBRANCH   8  24
TORSDOF 5
ENDMDL
MODEL 6
REMARK VINA RESULT:      -5.3      4.372      7.004
REMARK  5 active torsions:
REMARK  status: ('A' for Active; 'I' for Inactive)
REMARK    1  A    between atoms: C4_4  and  C5_5 
REMARK    2  A    between atoms: C8_8  and  O9_9 
REMARK    3  A    between atoms: C10_11  and  O11_12 
REMARK    4  A    between atoms: C16_18  and  O17_19 
REMARK    5  A    between atoms: C19_22  and  O20_23 
ROOT
HETATM    1  O1          0      47.133  41.400  41.229  1.00  0.00    -0.286 OA
HETATM    2  C2          0      47.921  42.251  40.733  1.00  0.00     0.201 C 
HETATM    3  C3          0      47.516  43.521  40.359  1.00  0.00     0.067 C 
HETATM    4  C4          0      48.381  44.403  39.720  1.00  0.00     0.103 C 
HETATM    5  O13         0      49.623  44.017  39.486  1.00  0.00    -0.307 OA
HETATM    6  C14         0      50.048  42.809  39.787  1.00  0.00     0.107 C 
HETATM    7  C15         0      51.183  42.268  39.202  1.00  0.00     0.049 C 
HETATM    8  C16         0      51.483  40.916  39.324  1.00  0.00     0.093 C 
HETATM    9  C18         0      50.936  40.292  40.438  1.00  0.00     0.048 C 
HETATM   10  C19         0      49.827  40.832  41.076  1.00  0.00     0.096 C 
HETATM   11  C21         0      49.279  41.998  40.614  1.00  0.00     0.084 C 
ENDROOT
BRANCH  10  12
HETATM   12  O20         0      49.039  40.014  41.879  1.00  0.00    -0.359 OA
HETATM   13  H20         0      49.390  39.169  42.135  1.00  0.00     0.218 HD
ENDBRANCH  10  12
BRANCH   4  14
HETATM   14  C5          0      47.781  45.415  38.848  1.00  0.00     0.025 C 
HETATM   15  C6          0      47.350  46.648  39.314  1.00  0.00     0.004 C 
HETATM   16  C7          0      47.563  47.755  38.498  1.00  0.00     0.026 C 
HETATM   17  C8          0      48.063  47.624  37.207  1.00  0.00     0.112 C 
HETATM   18  C10         0      47.861  46.378  36.630  1.00  0.00     0.112 C 
HETATM   19  C12         0      47.736  45.275  37.467  1.00  0.00     0.028 C 
BRANCH  17  20
HETATM   20  O9          0      48.875  48.601  36.659  1.00  0.00    -0.357 OA
HETATM   21  H9          0      48.757  48.958  35.787  1.00  0.00     0.218 HD
ENDBRANCH  17  20
BRANCH  18  22
HETATM   22  O11         0      48.169  46.251  35.283  1.00  0.00    -0.357 OA
HETATM   23  H11         0      47.998  47.004  34.730  1.00  0.00     0.218 HD
ENDBRANCH  18  22
ENDBRANCH   4  14
BRANCH   8  24
HETATM   24  O17         0      51.999  40.184  38.249  1.00  0.00    -0.359 OA
HETATM   25  H17         0      52.575  40.580  37.606  1.00  0.00     0.218 HD
ENDBRANCH   8  24
TORSDOF 5
ENDMDL
MODEL 7
REMARK VINA RESULT:      -5.2      2.064      7.183
REMARK  5 active torsions:
REMARK  status: ('A' for Active; 'I' for Inactive)
REMARK    1  A    between atoms: C4_4  and  C5_5 
REMARK    2  A    between atoms: C8_8  and  O9_9 
REMARK    3  A    between atoms: C10_11  and  O11_12 
REMARK    4  A    between atoms: C16_18  and  O17_19 
REMARK    5  A    between atoms: C19_22  and  O20_23 
ROOT
HETATM    1  O1          0      50.779  41.872  42.404  1.00  0.00    -0.286 OA
HETATM    2  C2          0      51.096  41.453  41.257  1.00  0.00     0.201 C 
HETATM    3  C3          0      52.401  41.444  40.795  1.00  0.00     0.067 C 
HETATM    4  C4          0      52.710  41.074  39.492  1.00  0.00     0.103 C 
HETATM    5  O13         0      51.729  40.703  38.687  1.00  0.00    -0.307 OA
HETATM    6  C14         0      50.470  40.729  39.063  1.00  0.00     0.107 C 
HETATM    7  C15         0      49.432  40.736  38.142  1.00  0.00     0.049 C 
HETATM    8  C16         0      48.127  41.019  38.527  1.00  0.00     0.093 C 
HETATM    9  C18         0      47.841  40.764  39.863  1.00  0.00     0.048 C 
HETATM   10  C19         0      48.860  40.705  40.804  1.00  0.00     0.096 C 
HETATM   11  C21         0      50.159  40.881  40.410  1.00  0.00     0.084 C 
ENDROOT
BRANCH  10  12
HETATM   12  O20         0      48.556  40.888  42.149  1.00  0.00    -0.359 OA
HETATM   13  H20         0      49.097  41.485  42.651  1.00  0.00     0.218 HD
ENDBRANCH  10  12
BRANCH   4  14
HETATM   14  C5          0      53.927  41.639  38.905  1.00  0.00     0.025 C 
HETATM   15  C6          0      54.994  42.085  39.672  1.00  0.00     0.004 C 
HETATM   16  C7          0      56.278  41.840  39.194  1.00  0.00     0.026 C 
HETATM   17  C8          0      56.495  41.292  37.934  1.00  0.00     0.112 C 
HETATM   18  C10         0      55.453  41.475  37.035  1.00  0.00     0.112 C 
HETATM   19  C12         0      54.167  41.632  37.537  1.00  0.00     0.028 C 
BRANCH  17  20
HETATM   20  O9          0      57.574  40.459  37.700  1.00  0.00    -0.357 OA
HETATM   21  H9          0      58.451  40.627  38.026  1.00  0.00     0.218 HD
ENDBRANCH  17  20
BRANCH  18  22
HETATM   22  O11         0      55.691  41.117  35.716  1.00  0.00    -0.357 OA
HETATM   23  H11         0      55.196  40.382  35.373  1.00  0.00     0.218 HD
ENDBRANCH  18  22
ENDBRANCH   4  14
BRANCH   8  24
HETATM   24  O17         0      47.286  41.804  37.731  1.00  0.00    -0.359 OA
HETATM   25  H17         0      46.973  42.653  38.022  1.00  0.00     0.218 HD
ENDBRANCH   8  24
TORSDOF 5
ENDMDL
MODEL 8
REMARK VINA RESULT:      -5.2      5.153      8.762
REMARK  5 active torsions:
REMARK  status: ('A' for Active; 'I' for Inactive)
REMARK    1  A    between atoms: C4_4  and  C5_5 
REMARK    2  A    between atoms: C8_8  and  O9_9 
REMARK    3  A    between atoms: C10_11  and  O11_12 
REMARK    4  A    between atoms: C16_18  and  O17_19 
REMARK    5  A    between atoms: C19_22  and  O20_23 
ROOT
HETATM    1  O1          0      47.234  48.981  40.512  1.00  0.00    -0.286 OA
HETATM    2  C2          0      47.359  48.068  39.651  1.00  0.00     0.201 C 
HETATM    3  C3          0      47.411  46.725  39.982  1.00  0.00     0.067 C 
HETATM    4  C4          0      47.652  45.747  39.024  1.00  0.00     0.103 C 
HETATM    5  O13         0      47.813  46.117  37.766  1.00  0.00    -0.307 OA
HETATM    6  C14         0      47.809  47.381  37.403  1.00  0.00     0.107 C 
HETATM    7  C15         0      48.362  47.798  36.200  1.00  0.00     0.049 C 
HETATM    8  C16         0      48.586  49.144  35.937  1.00  0.00     0.093 C 
HETATM    9  C18         0      47.778  50.023  36.648  1.00  0.00     0.048 C 
HETATM   10  C19         0      47.172  49.624  37.831  1.00  0.00     0.096 C 
HETATM   11  C21         0      47.357  48.349  38.293  1.00  0.00     0.084 C 
ENDROOT
BRANCH  10  12
HETATM   12  O20         0      46.747  50.590  38.738  1.00  0.00    -0.359 OA
HETATM   13  H20         0      47.096  50.557  39.620  1.00  0.00     0.218 HD
ENDBRANCH  10  12
BRANCH   4  14
HETATM   14  C5          0      48.277  44.503  39.478  1.00  0.00     0.025 C 
HETATM   15  C6          0      48.776  43.549  38.603  1.00  0.00     0.004 C 
HETATM   16  C7          0      49.955  42.902  38.960  1.00  0.00     0.026 C 
HETATM   17  C8          0      50.547  43.097  40.203  1.00  0.00     0.112 C 
HETATM   18  C10         0      49.681  43.536  41.195  1.00  0.00     0.112 C 
HETATM   19  C12         0      48.553  44.255  40.817  1.00  0.00     0.028 C 
BRANCH  17  20
HETATM   20  O9          0      51.922  43.053  40.347  1.00  0.00    -0.357 OA
HETATM   21  H9          0      52.457  43.814  40.545  1.00  0.00     0.218 HD
ENDBRANCH  17  20
BRANCH  18  22
HETATM   22  O11         0      50.174  43.565  42.492  1.00  0.00    -0.357 OA
HETATM   23  H11         0      50.286  42.729  42.928  1.00  0.00     0.218 HD
ENDBRANCH  18  22
ENDBRANCH   4  14
BRANCH   8  24
HETATM   24  O17         0      49.742  49.576  35.279  1.00  0.00    -0.359 OA
HETATM   25  H17         0      50.314  48.968  34.824  1.00  0.00     0.218 HD
ENDBRANCH   8  24
TORSDOF 5
ENDMDL
MODEL 9
REMARK VINA RESULT:      -5.1      5.854      8.059
REMARK  5 active torsions:
REMARK  status: ('A' for Active; 'I' for Inactive)
REMARK    1  A    between atoms: C4_4  and  C5_5 
REMARK    2  A    between atoms: C8_8  and  O9_9 
REMARK    3  A    between atoms: C10_11  and  O11_12 
REMARK    4  A    between atoms: C16_18  and  O17_19 
REMARK    5  A    between atoms: C19_22  and  O20_23 
ROOT
HETATM    1  O1          0      48.836  47.603  40.682  1.00  0.00    -0.286 OA
HETATM    2  C2          0      48.429  46.503  40.217  1.00  0.00     0.201 C 
HETATM    3  C3          0      48.478  45.320  40.936  1.00  0.00     0.067 C 
HETATM    4  C4          0      48.119  44.105  40.364  1.00  0.00     0.103 C 
HETATM    5  O13         0      47.703  44.091  39.110  1.00  0.00    -0.307 OA
HETATM    6  C14         0      47.673  45.179  38.372  1.00  0.00     0.107 C 
HETATM    7  C15         0      47.631  45.121  36.986  1.00  0.00     0.049 C 
HETATM    8  C16         0      47.855  46.251  36.209  1.00  0.00     0.093 C 
HETATM    9  C18         0      47.591  47.460  36.842  1.00  0.00     0.048 C 
HETATM   10  C19         0      47.579  47.544  38.227  1.00  0.00     0.096 C 
HETATM   11  C21         0      47.813  46.423  38.977  1.00  0.00     0.084 C 
ENDROOT
BRANCH  10  12
HETATM   12  O20         0      47.751  48.783  38.836  1.00  0.00    -0.359 OA
HETATM   13  H20         0      48.393  48.852  39.532  1.00  0.00     0.218 HD
ENDBRANCH  10  12
BRANCH   4  14
HETATM   14  C5          0      48.737  42.897  40.915  1.00  0.00     0.025 C 
HETATM   15  C6          0      50.105  42.670  40.880  1.00  0.00     0.004 C 
HETATM   16  C7          0      50.686  42.062  41.988  1.00  0.00     0.026 C 
HETATM   17  C8          0      49.917  41.574  43.039  1.00  0.00     0.112 C 
HETATM   18  C10         0      48.602  41.277  42.706  1.00  0.00     0.112 C 
HETATM   19  C12         0      48.018  41.961  41.647  1.00  0.00     0.028 C 
BRANCH  17  20
HETATM   20  O9          0      50.394  41.599  44.337  1.00  0.00    -0.357 OA
HETATM   21  H9          0      50.764  40.843  44.779  1.00  0.00     0.218 HD
ENDBRANCH  17  20
BRANCH  18  22
HETATM   22  O11         0      47.847  40.613  43.663  1.00  0.00    -0.357 OA
HETATM   23  H11         0      48.289  40.372  44.469  1.00  0.00     0.218 HD
ENDBRANCH  18  22
ENDBRANCH   4  14
BRANCH   8  24
HETATM   24  O17         0      48.601  46.187  35.027  1.00  0.00    -0.359 OA
HETATM   25  H17         0      48.193  46.282  34.174  1.00  0.00     0.218 HD
ENDBRANCH   8  24
TORSDOF 5
ENDMDL
