MODEL 1
REMARK VINA RESULT:      -5.8      0.000      0.000
REMARK  5 active torsions:
REMARK  status: ('A' for Active; 'I' for Inactive)
REMARK    1  A    between atoms: C4_4  and  C5_5 
REMARK    2  A    between atoms: C8_8  and  O9_9 
REMARK    3  A    between atoms: C10_11  and  O11_12 
REMARK    4  A    between atoms: C16_18  and  O17_19 
REMARK    5  A    between atoms: C19_22  and  O20_23 
ROOT
HETATM    1  O1          0      50.788  94.696  -3.254  1.00  0.00    -0.286 OA
HETATM    2  C2          0      49.890  93.819  -3.377  1.00  0.00     0.201 C 
HETATM    3  C3          0      49.983  92.770  -4.276  1.00  0.00     0.067 C 
HETATM    4  C4          0      48.935  91.876  -4.464  1.00  0.00     0.103 C 
HETATM    5  O13         0      47.835  92.028  -3.748  1.00  0.00    -0.307 OA
HETATM    6  C14         0      47.680  93.029  -2.909  1.00  0.00     0.107 C 
HETATM    7  C15         0      46.426  93.425  -2.468  1.00  0.00     0.049 C 
HETATM    8  C16         0      46.244  94.626  -1.793  1.00  0.00     0.093 C 
HETATM    9  C18         0      47.372  95.108  -1.139  1.00  0.00     0.048 C 
HETATM   10  C19         0      48.640  94.696  -1.524  1.00  0.00     0.096 C 
HETATM   11  C21         0      48.781  93.796  -2.545  1.00  0.00     0.084 C 
ENDROOT
BRANCH  10  12
HETATM   12  O20         0      49.741  95.479  -1.188  1.00  0.00    -0.359 OA
HETATM   13  H20         0      49.614  96.179  -0.560  1.00  0.00     0.218 HD
ENDBRANCH  10  12
BRANCH   4  14
HETATM   14  C5          0      48.842  91.219  -5.769  1.00  0.00     0.025 C 
HETATM   15  C6          0      48.163  90.024  -5.962  1.00  0.00     0.004 C 
HETATM   16  C7          0      47.441  89.877  -7.142  1.00  0.00     0.026 C 
HETATM   17  C8          0      47.499  90.827  -8.156  1.00  0.00     0.112 C 
HETATM   18  C10         0      48.642  91.616  -8.147  1.00  0.00     0.112 C 
HETATM   19  C12         0      49.297  91.816  -6.937  1.00  0.00     0.028 C 
BRANCH  17  20
HETATM   20  O9          0      46.398  91.079  -8.955  1.00  0.00    -0.357 OA
HETATM   21  H9          0      46.433  91.590  -9.756  1.00  0.00     0.218 HD
ENDBRANCH  17  20
BRANCH  18  22
HETATM   22  O11         0      48.840  92.447  -9.240  1.00  0.00    -0.357 OA
HETATM   23  H11         0      48.104  92.567  -9.829  1.00  0.00     0.218 HD
ENDBRANCH  18  22
ENDBRANCH   4  14
BRANCH   8  24
HETATM   24  O17         0      45.131  95.438  -2.036  1.00  0.00    -0.359 OA
HETATM   25  H17         0      45.222  96.362  -2.237  1.00  0.00     0.218 HD
ENDBRANCH   8  24
TORSDOF 5
ENDMDL
MODEL 2
REMARK VINA RESULT:      -5.5      4.017      6.285
REMARK  5 active torsions:
REMARK  status: ('A' for Active; 'I' for Inactive)
REMARK    1  A    between atoms: C4_4  and  C5_5 
REMARK    2  A    between atoms: C8_8  and  O9_9 
REMARK    3  A    between atoms: C10_11  and  O11_12 
REMARK    4  A    between atoms: C16_18  and  O17_19 
REMARK    5  A    between atoms: C19_22  and  O20_23 
ROOT
HETATM    1  O1          0      45.451  94.591  -2.640  1.00  0.00    -0.286 OA
HETATM    2  C2          0      46.630  94.174  -2.474  1.00  0.00     0.201 C 
HETATM    3  C3          0      46.920  92.889  -2.049  1.00  0.00     0.067 C 
HETATM    4  C4          0      48.223  92.488  -1.776  1.00  0.00     0.103 C 
HETATM    5  O13         0      49.203  93.356  -1.949  1.00  0.00    -0.307 OA
HETATM    6  C14         0      48.980  94.599  -2.314  1.00  0.00     0.107 C 
HETATM    7  C15         0      49.920  95.600  -2.113  1.00  0.00     0.049 C 
HETATM    8  C16         0      49.588  96.942  -2.263  1.00  0.00     0.093 C 
HETATM    9  C18         0      48.508  97.190  -3.101  1.00  0.00     0.048 C 
HETATM   10  C19         0      47.574  96.196  -3.360  1.00  0.00     0.096 C 
HETATM   11  C21         0      47.727  94.957  -2.800  1.00  0.00     0.084 C 
ENDROOT
BRANCH  10  12
HETATM   12  O20         0      46.309  96.554  -3.817  1.00  0.00    -0.359 OA
HETATM   13  H20         0      46.140  97.473  -3.985  1.00  0.00     0.218 HD
ENDBRANCH  10  12
BRANCH   4  14
HETATM   14  C5          0      48.401  91.407  -0.805  1.00  0.00     0.025 C 
HETATM   15  C6          0      49.272  90.347  -1.010  1.00  0.00     0.004 C 
HETATM   16  C7          0      49.984  89.875   0.088  1.00  0.00     0.026 C 
HETATM   17  C8          0      49.742  90.349   1.373  1.00  0.00     0.112 C 
HETATM   18  C10         0      48.480  90.898   1.560  1.00  0.00     0.112 C 
HETATM   19  C12         0      47.826  91.440   0.459  1.00  0.00     0.028 C 
BRANCH  17  20
HETATM   20  O9          0      50.766  90.444   2.298  1.00  0.00    -0.357 OA
HETATM   21  H9          0      51.031  89.730   2.867  1.00  0.00     0.218 HD
ENDBRANCH  17  20
BRANCH  18  22
HETATM   22  O11         0      48.118  91.212   2.862  1.00  0.00    -0.357 OA
HETATM   23  H11         0      47.917  92.123   3.045  1.00  0.00     0.218 HD
ENDBRANCH  18  22
ENDBRANCH   4  14
BRANCH   8  24
HETATM   24  O17         0      50.078  97.916  -1.385  1.00  0.00    -0.359 OA
HETATM   25  H17         0      49.594  98.713  -1.205  1.00  0.00     0.218 HD
ENDBRANCH   8  24
TORSDOF 5
ENDMDL
MODEL 3
REMARK VINA RESULT:      -5.3      4.279      6.390
REMARK  5 active torsions:
REMARK  status: ('A' for Active; 'I' for Inactive)
REMARK    1  A    between atoms: C4_4  and  C5_5 
REMARK    2  A    between atoms: C8_8  and  O9_9 
REMARK    3  A    between atoms: C10_11  and  O11_12 
REMARK    4  A    between atoms: C16_18  and  O17_19 
REMARK    5  A    between atoms: C19_22  and  O20_23 
ROOT
HETATM    1  O1          0      51.903  97.033  -3.720  1.00  0.00    -0.286 OA
HETATM    2  C2          0      50.675  97.319  -3.701  1.00  0.00     0.201 C 
HETATM    3  C3          0      49.805  96.830  -2.742  1.00  0.00     0.067 C 
HETATM    4  C4          0      48.438  97.077  -2.803  1.00  0.00     0.103 C 
HETATM    5  O13         0      47.971  97.816  -3.794  1.00  0.00    -0.307 OA
HETATM    6  C14         0      48.748  98.273  -4.752  1.00  0.00     0.107 C 
HETATM    7  C15         0      48.236  98.689  -5.972  1.00  0.00     0.049 C 
HETATM    8  C16         0      49.067  98.928  -7.060  1.00  0.00     0.093 C 
HETATM    9  C18         0      50.380  99.246  -6.736  1.00  0.00     0.048 C 
HETATM   10  C19         0      50.911  98.886  -5.505  1.00  0.00     0.096 C 
HETATM   11  C21         0      50.129  98.227  -4.595  1.00  0.00     0.084 C 
ENDROOT
BRANCH  10  12
HETATM   12  O20         0      52.292  98.809  -5.355  1.00  0.00    -0.359 OA
HETATM   13  H20         0      52.835  99.125  -6.067  1.00  0.00     0.218 HD
ENDBRANCH  10  12
BRANCH   4  14
HETATM   14  C5          0      47.551  96.096  -2.176  1.00  0.00     0.025 C 
HETATM   15  C6          0      46.284  95.809  -2.662  1.00  0.00     0.004 C 
HETATM   16  C7          0      45.860  94.485  -2.617  1.00  0.00     0.026 C 
HETATM   17  C8          0      46.614  93.499  -1.989  1.00  0.00     0.112 C 
HETATM   18  C10         0      47.494  93.969  -1.023  1.00  0.00     0.112 C 
HETATM   19  C12         0      47.968  95.271  -1.140  1.00  0.00     0.028 C 
BRANCH  17  20
HETATM   20  O9          0      46.614  92.199  -2.461  1.00  0.00    -0.357 OA
HETATM   21  H9          0      45.884  91.804  -2.923  1.00  0.00     0.218 HD
ENDBRANCH  17  20
BRANCH  18  22
HETATM   22  O11         0      48.130  93.020  -0.237  1.00  0.00    -0.357 OA
HETATM   23  H11         0      47.851  92.955   0.669  1.00  0.00     0.218 HD
ENDBRANCH  18  22
ENDBRANCH   4  14
BRANCH   8  24
HETATM   24  O17         0      48.700  98.546  -8.355  1.00  0.00    -0.359 OA
HETATM   25  H17         0      48.991  97.726  -8.735  1.00  0.00     0.218 HD
ENDBRANCH   8  24
TORSDOF 5
ENDMDL
MODEL 4
REMARK VINA RESULT:      -5.2     10.276     12.653
REMARK  5 active torsions:
REMARK  status: ('A' for Active; 'I' for Inactive)
REMARK    1  A    between atoms: C4_4  and  C5_5 
REMARK    2  A    between atoms: C8_8  and  O9_9 
REMARK    3  A    between atoms: C10_11  and  O11_12 
REMARK    4  A    between atoms: C16_18  and  O17_19 
REMARK    5  A    between atoms: C19_22  and  O20_23 
ROOT
HETATM    1  O1          0      43.634  94.378   8.277  1.00  0.00    -0.286 OA
HETATM    2  C2          0      44.043  93.191   8.150  1.00  0.00     0.201 C 
HETATM    3  C3          0      45.384  92.850   8.203  1.00  0.00     0.067 C 
HETATM    4  C4          0      45.815  91.552   7.959  1.00  0.00     0.103 C 
HETATM    5  O13         0      44.914  90.623   7.690  1.00  0.00    -0.307 OA
HETATM    6  C14         0      43.633  90.901   7.591  1.00  0.00     0.107 C 
HETATM    7  C15         0      42.750  90.056   6.934  1.00  0.00     0.049 C 
HETATM    8  C16         0      41.463  90.466   6.611  1.00  0.00     0.093 C 
HETATM    9  C18         0      40.953  91.484   7.409  1.00  0.00     0.048 C 
HETATM   10  C19         0      41.807  92.318   8.118  1.00  0.00     0.096 C 
HETATM   11  C21         0      43.160  92.128   8.043  1.00  0.00     0.084 C 
ENDROOT
BRANCH  10  12
HETATM   12  O20         0      41.345  93.560   8.543  1.00  0.00    -0.359 OA
HETATM   13  H20         0      40.521  93.592   9.013  1.00  0.00     0.218 HD
ENDBRANCH  10  12
BRANCH   4  14
HETATM   14  C5          0      47.175  91.384   7.443  1.00  0.00     0.025 C 
HETATM   15  C6          0      47.822  90.156   7.413  1.00  0.00     0.004 C 
HETATM   16  C7          0      48.622  89.877   6.310  1.00  0.00     0.026 C 
HETATM   17  C8          0      48.880  90.833   5.334  1.00  0.00     0.112 C 
HETATM   18  C10         0      48.734  92.148   5.758  1.00  0.00     0.112 C 
HETATM   19  C12         0      47.863  92.410   6.808  1.00  0.00     0.028 C 
BRANCH  17  20
HETATM   20  O9          0      49.053  90.468   4.011  1.00  0.00    -0.357 OA
HETATM   21  H9          0      49.740  89.884   3.710  1.00  0.00     0.218 HD
ENDBRANCH  17  20
BRANCH  18  22
HETATM   22  O11         0      49.160  93.140   4.887  1.00  0.00    -0.357 OA
HETATM   23  H11         0      48.955  93.021   3.966  1.00  0.00     0.218 HD
ENDBRANCH  18  22
ENDBRANCH   4  14
BRANCH   8  24
HETATM   24  O17         0      40.874  90.127   5.388  1.00  0.00    -0.359 OA
HETATM   25  H17         0      41.395  89.853   4.642  1.00  0.00     0.218 HD
ENDBRANCH   8  24
TORSDOF 5
ENDMDL
MODEL 5
REMARK VINA RESULT:      -5.2      4.838      6.553
REMARK  5 active torsions:
REMARK  status: ('A' for Active; 'I' for Inactive)
REMARK    1  A    between atoms: C4_4  and  C5_5 
REMARK    2  A    between atoms: C8_8  and  O9_9 
REMARK    3  A    between atoms: C10_11  and  O11_12 
REMARK    4  A    between atoms: C16_18  and  O17_19 
REMARK    5  A    between atoms: C19_22  and  O20_23 
ROOT
HETATM    1  O1          0      45.555  95.204  -2.957  1.00  0.00    -0.286 OA
HETATM    2  C2          0      46.534  95.999  -2.995  1.00  0.00     0.201 C 
HETATM    3  C3          0      46.649  97.004  -3.940  1.00  0.00     0.067 C 
HETATM    4  C4          0      47.786  97.800  -4.023  1.00  0.00     0.103 C 
HETATM    5  O13         0      48.767  97.596  -3.161  1.00  0.00    -0.307 OA
HETATM    6  C14         0      48.725  96.632  -2.268  1.00  0.00     0.107 C 
HETATM    7  C15         0      49.873  96.159  -1.648  1.00  0.00     0.049 C 
HETATM    8  C16         0      49.860  94.984  -0.906  1.00  0.00     0.093 C 
HETATM    9  C18         0      48.620  94.628  -0.390  1.00  0.00     0.048 C 
HETATM   10  C19         0      47.453  95.120  -0.958  1.00  0.00     0.096 C 
HETATM   11  C21         0      47.524  95.976  -2.024  1.00  0.00     0.084 C 
ENDROOT
BRANCH  10  12
HETATM   12  O20         0      46.254  94.447  -0.740  1.00  0.00    -0.359 OA
HETATM   13  H20         0      46.231  93.790  -0.056  1.00  0.00     0.218 HD
ENDBRANCH  10  12
BRANCH   4  14
HETATM   14  C5          0      48.105  98.379  -5.329  1.00  0.00     0.025 C 
HETATM   15  C6          0      47.131  98.821  -6.213  1.00  0.00     0.004 C 
HETATM   16  C7          0      47.396  99.977  -6.939  1.00  0.00     0.026 C 
HETATM   17  C8          0      48.639 100.600  -6.891  1.00  0.00     0.112 C 
HETATM   18  C10         0      49.688  99.772  -6.515  1.00  0.00     0.112 C 
HETATM   19  C12         0      49.406  98.669  -5.718  1.00  0.00     0.028 C 
BRANCH  17  20
HETATM   20  O9          0      48.748 101.974  -7.004  1.00  0.00    -0.357 OA
HETATM   21  H9          0      49.369 102.497  -6.510  1.00  0.00     0.218 HD
ENDBRANCH  17  20
BRANCH  18  22
HETATM   22  O11         0      50.970 100.289  -6.632  1.00  0.00    -0.357 OA
HETATM   23  H11         0      51.432 100.481  -5.824  1.00  0.00     0.218 HD
ENDBRANCH  18  22
ENDBRANCH   4  14
BRANCH   8  24
HETATM   24  O17         0      50.921  94.073  -0.966  1.00  0.00    -0.359 OA
HETATM   25  H17         0      51.477  94.004  -1.733  1.00  0.00     0.218 HD
ENDBRANCH   8  24
TORSDOF 5
ENDMDL
MODEL 6
REMARK VINA RESULT:      -5.1      4.429      6.312
REMARK  5 active torsions:
REMARK  status: ('A' for Active; 'I' for Inactive)
REMARK    1  A    between atoms: C4_4  and  C5_5 
REMARK    2  A    between atoms: C8_8  and  O9_9 
REMARK    3  A    between atoms: C10_11  and  O11_12 
REMARK    4  A    between atoms: C16_18  and  O17_19 
REMARK    5  A    between atoms: C19_22  and  O20_23 
ROOT
HETATM    1  O1          0      51.382  95.324   2.323  1.00  0.00    -0.286 OA
HETATM    2  C2          0      50.743  94.410   1.734  1.00  0.00     0.201 C 
HETATM    3  C3          0      50.346  94.504   0.412  1.00  0.00     0.067 C 
HETATM    4  C4          0      49.554  93.528  -0.183  1.00  0.00     0.103 C 
HETATM    5  O13         0      49.195  92.478   0.535  1.00  0.00    -0.307 OA
HETATM    6  C14         0      49.514  92.358   1.805  1.00  0.00     0.107 C 
HETATM    7  C15         0      48.829  91.498   2.652  1.00  0.00     0.049 C 
HETATM    8  C16         0      48.995  91.559   4.030  1.00  0.00     0.093 C 
HETATM    9  C18         0      50.204  92.101   4.452  1.00  0.00     0.048 C 
HETATM   10  C19         0      50.938  92.928   3.613  1.00  0.00     0.096 C 
HETATM   11  C21         0      50.476  93.198   2.354  1.00  0.00     0.084 C 
ENDROOT
BRANCH  10  12
HETATM   12  O20         0      51.879  93.793   4.163  1.00  0.00    -0.359 OA
HETATM   13  H20         0      52.465  93.449   4.826  1.00  0.00     0.218 HD
ENDBRANCH  10  12
BRANCH   4  14
HETATM   14  C5          0      48.702  93.944  -1.298  1.00  0.00     0.025 C 
HETATM   15  C6          0      47.910  93.056  -2.012  1.00  0.00     0.004 C 
HETATM   16  C7          0      46.653  93.494  -2.415  1.00  0.00     0.026 C 
HETATM   17  C8          0      46.247  94.812  -2.235  1.00  0.00     0.112 C 
HETATM   18  C10         0      47.285  95.727  -2.115  1.00  0.00     0.112 C 
HETATM   19  C12         0      48.507  95.279  -1.628  1.00  0.00     0.028 C 
BRANCH  17  20
HETATM   20  O9          0      44.921  95.118  -1.986  1.00  0.00    -0.357 OA
HETATM   21  H9          0      44.574  96.002  -1.989  1.00  0.00     0.218 HD
ENDBRANCH  17  20
BRANCH  18  22
HETATM   22  O11         0      46.942  97.071  -2.123  1.00  0.00    -0.357 OA
HETATM   23  H11         0      46.219  97.334  -1.565  1.00  0.00     0.218 HD
ENDBRANCH  18  22
ENDBRANCH   4  14
BRANCH   8  24
HETATM   24  O17         0      47.912  91.408   4.903  1.00  0.00    -0.359 OA
HETATM   25  H17         0      47.097  91.878   4.773  1.00  0.00     0.218 HD
ENDBRANCH   8  24
TORSDOF 5
ENDMDL
MODEL 7
REMARK VINA RESULT:      -5.1      4.447      8.249
REMARK  5 active torsions:
REMARK  status: ('A' for Active; 'I' for Inactive)
REMARK    1  A    between atoms: C4_4  and  C5_5 
REMARK    2  A    between atoms: C8_8  and  O9_9 
REMARK    3  A    between atoms: C10_11  and  O11_12 
REMARK    4  A    between atoms: C16_18  and  O17_19 
REMARK    5  A    between atoms: C19_22  and  O20_23 
ROOT
HETATM    1  O1          0      48.877  90.288  -1.190  1.00  0.00    -0.286 OA
HETATM    2  C2          0      49.049  91.399  -0.618  1.00  0.00     0.201 C 
HETATM    3  C3          0      49.718  91.527   0.588  1.00  0.00     0.067 C 
HETATM    4  C4          0      49.805  92.748   1.247  1.00  0.00     0.103 C 
HETATM    5  O13         0      49.250  93.811   0.690  1.00  0.00    -0.307 OA
HETATM    6  C14         0      48.571  93.737  -0.434  1.00  0.00     0.107 C 
HETATM    7  C15         0      47.670  94.723  -0.809  1.00  0.00     0.049 C 
HETATM    8  C16         0      46.777  94.523  -1.855  1.00  0.00     0.093 C 
HETATM    9  C18         0      47.175  93.581  -2.796  1.00  0.00     0.048 C 
HETATM   10  C19         0      48.111  92.609  -2.467  1.00  0.00     0.096 C 
HETATM   11  C21         0      48.658  92.589  -1.213  1.00  0.00     0.084 C 
ENDROOT
BRANCH  10  12
HETATM   12  O20         0      48.177  91.445  -3.227  1.00  0.00    -0.359 OA
HETATM   13  H20         0      48.439  91.521  -4.137  1.00  0.00     0.218 HD
ENDBRANCH  10  12
BRANCH   4  14
HETATM   14  C5          0      49.959  92.714   2.702  1.00  0.00     0.025 C 
HETATM   15  C6          0      50.269  93.840   3.452  1.00  0.00     0.004 C 
HETATM   16  C7          0      49.652  93.979   4.691  1.00  0.00     0.026 C 
HETATM   17  C8          0      48.858  92.970   5.228  1.00  0.00     0.112 C 
HETATM   18  C10         0      49.121  91.700   4.733  1.00  0.00     0.112 C 
HETATM   19  C12         0      49.660  91.587   3.456  1.00  0.00     0.028 C 
BRANCH  17  20
HETATM   20  O9          0      47.768  93.274   6.023  1.00  0.00    -0.357 OA
HETATM   21  H9          0      47.636  92.921   6.896  1.00  0.00     0.218 HD
ENDBRANCH  17  20
BRANCH  18  22
HETATM   22  O11         0      48.494  90.636   5.366  1.00  0.00    -0.357 OA
HETATM   23  H11         0      49.055  90.001   5.797  1.00  0.00     0.218 HD
ENDBRANCH  18  22
ENDBRANCH   4  14
BRANCH   8  24
HETATM   24  O17         0      45.455  94.976  -1.782  1.00  0.00    -0.359 OA
HETATM   25  H17         0      45.241  95.838  -1.445  1.00  0.00     0.218 HD
ENDBRANCH   8  24
TORSDOF 5
ENDMDL
MODEL 8
REMARK VINA RESULT:      -5.0      4.467      7.958
REMARK  5 active torsions:
REMARK  status: ('A' for Active; 'I' for Inactive)
REMARK    1  A    between atoms: C4_4  and  C5_5 
REMARK    2  A    between atoms: C8_8  and  O9_9 
REMARK    3  A    between atoms: C10_11  and  O11_12 
REMARK    4  A    between atoms: C16_18  and  O17_19 
REMARK    5  A    between atoms: C19_22  and  O20_23 
ROOT
HETATM    1  O1          0      49.299  93.238   0.752  1.00  0.00    -0.286 OA
HETATM    2  C2          0      49.405  94.189  -0.071  1.00  0.00     0.201 C 
HETATM    3  C3          0      50.402  95.146   0.012  1.00  0.00     0.067 C 
HETATM    4  C4          0      50.435  96.240  -0.845  1.00  0.00     0.103 C 
HETATM    5  O13         0      49.499  96.349  -1.771  1.00  0.00    -0.307 OA
HETATM    6  C14         0      48.509  95.490  -1.869  1.00  0.00     0.107 C 
HETATM    7  C15         0      47.337  95.798  -2.544  1.00  0.00     0.049 C 
HETATM    8  C16         0      46.206  94.998  -2.430  1.00  0.00     0.093 C 
HETATM    9  C18         0      46.456  93.676  -2.083  1.00  0.00     0.048 C 
HETATM   10  C19         0      47.640  93.324  -1.449  1.00  0.00     0.096 C 
HETATM   11  C21         0      48.576  94.285  -1.178  1.00  0.00     0.084 C 
ENDROOT
BRANCH  10  12
HETATM   12  O20         0      47.699  92.134  -0.730  1.00  0.00    -0.359 OA
HETATM   13  H20         0      48.555  91.766  -0.549  1.00  0.00     0.218 HD
ENDBRANCH  10  12
BRANCH   4  14
HETATM   14  C5          0      51.087  97.456  -0.354  1.00  0.00     0.025 C 
HETATM   15  C6          0      51.412  98.521  -1.181  1.00  0.00     0.004 C 
HETATM   16  C7          0      51.247  99.806  -0.673  1.00  0.00     0.026 C 
HETATM   17  C8          0      50.899 100.026   0.655  1.00  0.00     0.112 C 
HETATM   18  C10         0      51.216  98.984   1.517  1.00  0.00     0.112 C 
HETATM   19  C12         0      51.291  97.697   0.998  1.00  0.00     0.028 C 
BRANCH  17  20
HETATM   20  O9          0      50.114 101.107   1.013  1.00  0.00    -0.357 OA
HETATM   21  H9          0      49.232 101.249   0.689  1.00  0.00     0.218 HD
ENDBRANCH  17  20
BRANCH  18  22
HETATM   22  O11         0      51.065  99.225   2.876  1.00  0.00    -0.357 OA
HETATM   23  H11         0      50.857  98.477   3.424  1.00  0.00     0.218 HD
ENDBRANCH  18  22
ENDBRANCH   4  14
BRANCH   8  24
HETATM   24  O17         0      44.926  95.554  -2.337  1.00  0.00    -0.359 OA
HETATM   25  H17         0      44.317  95.295  -1.655  1.00  0.00     0.218 HD
ENDBRANCH   8  24
TORSDOF 5
ENDMDL
MODEL 9
REMARK VINA RESULT:      -5.0     11.108     12.749
REMARK  5 active torsions:
REMARK  status: ('A' for Active; 'I' for Inactive)
REMARK    1  A    between atoms: C4_4  and  C5_5 
REMARK    2  A    between atoms: C8_8  and  O9_9 
REMARK    3  A    between atoms: C10_11  and  O11_12 
REMARK    4  A    between atoms: C16_18  and  O17_19 
REMARK    5  A    between atoms: C19_22  and  O20_23 
ROOT
HETATM    1  O1          0      47.234  92.119   5.214  1.00  0.00    -0.286 OA
HETATM    2  C2          0      46.604  92.533   6.225  1.00  0.00     0.201 C 
HETATM    3  C3          0      45.426  91.954   6.664  1.00  0.00     0.067 C 
HETATM    4  C4          0      44.697  92.493   7.718  1.00  0.00     0.103 C 
HETATM    5  O13         0      45.160  93.574   8.322  1.00  0.00    -0.307 OA
HETATM    6  C14         0      46.254  94.184   7.922  1.00  0.00     0.107 C 
HETATM    7  C15         0      46.525  95.500   8.268  1.00  0.00     0.049 C 
HETATM    8  C16         0      47.538  96.217   7.643  1.00  0.00     0.093 C 
HETATM    9  C18         0      48.552  95.442   7.093  1.00  0.00     0.048 C 
HETATM   10  C19         0      48.329  94.109   6.778  1.00  0.00     0.096 C 
HETATM   11  C21         0      47.106  93.548   7.025  1.00  0.00     0.084 C 
ENDROOT
BRANCH  10  12
HETATM   12  O20         0      49.161  93.479   5.857  1.00  0.00    -0.359 OA
HETATM   13  H20         0      49.968  93.917   5.614  1.00  0.00     0.218 HD
ENDBRANCH  10  12
BRANCH   4  14
HETATM   14  C5          0      43.256  92.240   7.735  1.00  0.00     0.025 C 
HETATM   15  C6          0      42.337  93.155   8.227  1.00  0.00     0.004 C 
HETATM   16  C7          0      41.125  93.277   7.553  1.00  0.00     0.026 C 
HETATM   17  C8          0      40.782  92.426   6.509  1.00  0.00     0.112 C 
HETATM   18  C10         0      41.440  91.203   6.519  1.00  0.00     0.112 C 
HETATM   19  C12         0      42.688  91.129   7.125  1.00  0.00     0.028 C 
BRANCH  17  20
HETATM   20  O9          0      40.011  92.875   5.452  1.00  0.00    -0.357 OA
HETATM   21  H9          0      39.066  92.969   5.490  1.00  0.00     0.218 HD
ENDBRANCH  17  20
BRANCH  18  22
HETATM   22  O11         0      41.000  90.246   5.615  1.00  0.00    -0.357 OA
HETATM   23  H11         0      41.540  90.099   4.847  1.00  0.00     0.218 HD
ENDBRANCH  18  22
ENDBRANCH   4  14
BRANCH   8  24
HETATM   24  O17         0      47.375  97.564   7.302  1.00  0.00    -0.359 OA
HETATM   25  H17         0      48.042  98.212   7.495  1.00  0.00     0.218 HD
ENDBRANCH   8  24
TORSDOF 5
ENDMDL
