MODEL 1
REMARK VINA RESULT:      -5.6      0.000      0.000
REMARK  5 active torsions:
REMARK  status: ('A' for Active; 'I' for Inactive)
REMARK    1  A    between atoms: C4_4  and  C5_5 
REMARK    2  A    between atoms: C8_8  and  O9_9 
REMARK    3  A    between atoms: C10_11  and  O11_12 
REMARK    4  A    between atoms: C16_18  and  O17_19 
REMARK    5  A    between atoms: C19_22  and  O20_23 
ROOT
HETATM    1  O1          0      66.387  50.092   3.175  1.00  0.00    -0.286 OA
HETATM    2  C2          0      67.084  51.143   3.166  1.00  0.00     0.201 C 
HETATM    3  C3          0      67.575  51.728   4.320  1.00  0.00     0.067 C 
HETATM    4  C4          0      68.252  52.942   4.291  1.00  0.00     0.103 C 
HETATM    5  O13         0      68.445  53.533   3.125  1.00  0.00    -0.307 OA
HETATM    6  C14         0      67.967  53.040   2.004  1.00  0.00     0.107 C 
HETATM    7  C15         0      67.812  53.822   0.868  1.00  0.00     0.049 C 
HETATM    8  C16         0      67.079  53.372  -0.223  1.00  0.00     0.093 C 
HETATM    9  C18         0      66.987  51.991  -0.339  1.00  0.00     0.048 C 
HETATM   10  C19         0      67.183  51.175   0.767  1.00  0.00     0.096 C 
HETATM   11  C21         0      67.486  51.735   1.978  1.00  0.00     0.084 C 
ENDROOT
BRANCH  10  12
HETATM   12  O20         0      66.675  49.880   0.756  1.00  0.00    -0.359 OA
HETATM   13  H20         0      66.617  49.431  -0.079  1.00  0.00     0.218 HD
ENDBRANCH  10  12
BRANCH   4  14
HETATM   14  C5          0      68.202  53.767   5.500  1.00  0.00     0.025 C 
HETATM   15  C6          0      68.781  55.025   5.576  1.00  0.00     0.004 C 
HETATM   16  C7          0      68.098  56.006   6.288  1.00  0.00     0.026 C 
HETATM   17  C8          0      66.948  55.714   7.012  1.00  0.00     0.112 C 
HETATM   18  C10         0      66.821  54.384   7.388  1.00  0.00     0.112 C 
HETATM   19  C12         0      67.444  53.416   6.609  1.00  0.00     0.028 C 
BRANCH  17  20
HETATM   20  O9          0      65.936  56.649   7.143  1.00  0.00    -0.357 OA
HETATM   21  H9          0      65.793  57.166   7.928  1.00  0.00     0.218 HD
ENDBRANCH  17  20
BRANCH  18  22
HETATM   22  O11         0      65.795  54.074   8.269  1.00  0.00    -0.357 OA
HETATM   23  H11         0      65.244  53.334   8.044  1.00  0.00     0.218 HD
ENDBRANCH  18  22
ENDBRANCH   4  14
BRANCH   8  24
HETATM   24  O17         0      66.232  54.229  -0.936  1.00  0.00    -0.359 OA
HETATM   25  H17         0      66.481  54.589  -1.778  1.00  0.00     0.218 HD
ENDBRANCH   8  24
TORSDOF 5
ENDMDL
MODEL 2
REMARK VINA RESULT:      -5.2      2.312      6.772
REMARK  5 active torsions:
REMARK  status: ('A' for Active; 'I' for Inactive)
REMARK    1  A    between atoms: C4_4  and  C5_5 
REMARK    2  A    between atoms: C8_8  and  O9_9 
REMARK    3  A    between atoms: C10_11  and  O11_12 
REMARK    4  A    between atoms: C16_18  and  O17_19 
REMARK    5  A    between atoms: C19_22  and  O20_23 
ROOT
HETATM    1  O1          0      66.114  55.402   7.572  1.00  0.00    -0.286 OA
HETATM    2  C2          0      67.078  54.699   7.160  1.00  0.00     0.201 C 
HETATM    3  C3          0      67.679  54.897   5.929  1.00  0.00     0.067 C 
HETATM    4  C4          0      68.670  54.043   5.457  1.00  0.00     0.103 C 
HETATM    5  O13         0      69.054  53.033   6.217  1.00  0.00    -0.307 OA
HETATM    6  C14         0      68.490  52.779   7.378  1.00  0.00     0.107 C 
HETATM    7  C15         0      68.592  51.534   7.983  1.00  0.00     0.049 C 
HETATM    8  C16         0      67.794  51.191   9.068  1.00  0.00     0.093 C 
HETATM    9  C18         0      67.322  52.266   9.812  1.00  0.00     0.048 C 
HETATM   10  C19         0      67.251  53.534   9.253  1.00  0.00     0.096 C 
HETATM   11  C21         0      67.663  53.732   7.963  1.00  0.00     0.084 C 
ENDROOT
BRANCH  10  12
HETATM   12  O20         0      66.401  54.480   9.818  1.00  0.00    -0.359 OA
HETATM   13  H20         0      65.645  54.167  10.300  1.00  0.00     0.218 HD
ENDBRANCH  10  12
BRANCH   4  14
HETATM   14  C5          0      68.818  53.928   4.005  1.00  0.00     0.025 C 
HETATM   15  C6          0      68.116  52.999   3.249  1.00  0.00     0.004 C 
HETATM   16  C7          0      67.660  53.400   1.997  1.00  0.00     0.026 C 
HETATM   17  C8          0      68.003  54.634   1.457  1.00  0.00     0.112 C 
HETATM   18  C10         0      69.168  55.189   1.970  1.00  0.00     0.112 C 
HETATM   19  C12         0      69.556  54.836   3.257  1.00  0.00     0.028 C 
BRANCH  17  20
HETATM   20  O9          0      67.122  55.319   0.638  1.00  0.00    -0.357 OA
HETATM   21  H9          0      67.348  56.113   0.167  1.00  0.00     0.218 HD
ENDBRANCH  17  20
BRANCH  18  22
HETATM   22  O11         0      69.657  56.322   1.336  1.00  0.00    -0.357 OA
HETATM   23  H11         0      70.460  56.224   0.838  1.00  0.00     0.218 HD
ENDBRANCH  18  22
ENDBRANCH   4  14
BRANCH   8  24
HETATM   24  O17         0      67.241  49.912   9.191  1.00  0.00    -0.359 OA
HETATM   25  H17         0      67.575  49.282   9.819  1.00  0.00     0.218 HD
ENDBRANCH   8  24
TORSDOF 5
ENDMDL
MODEL 3
REMARK VINA RESULT:      -5.2      2.316      6.536
REMARK  5 active torsions:
REMARK  status: ('A' for Active; 'I' for Inactive)
REMARK    1  A    between atoms: C4_4  and  C5_5 
REMARK    2  A    between atoms: C8_8  and  O9_9 
REMARK    3  A    between atoms: C10_11  and  O11_12 
REMARK    4  A    between atoms: C16_18  and  O17_19 
REMARK    5  A    between atoms: C19_22  and  O20_23 
ROOT
HETATM    1  O1          0      67.783  50.670   7.540  1.00  0.00    -0.286 OA
HETATM    2  C2          0      67.548  51.800   7.030  1.00  0.00     0.201 C 
HETATM    3  C3          0      67.543  52.020   5.663  1.00  0.00     0.067 C 
HETATM    4  C4          0      67.383  53.294   5.131  1.00  0.00     0.103 C 
HETATM    5  O13         0      67.212  54.310   5.958  1.00  0.00    -0.307 OA
HETATM    6  C14         0      67.246  54.162   7.264  1.00  0.00     0.107 C 
HETATM    7  C15         0      67.468  55.234   8.116  1.00  0.00     0.049 C 
HETATM    8  C16         0      67.755  55.039   9.462  1.00  0.00     0.093 C 
HETATM    9  C18         0      67.293  53.841   9.993  1.00  0.00     0.048 C 
HETATM   10  C19         0      67.016  52.762   9.164  1.00  0.00     0.096 C 
HETATM   11  C21         0      67.183  52.885   7.812  1.00  0.00     0.084 C 
ENDROOT
BRANCH  10  12
HETATM   12  O20         0      66.985  51.480   9.704  1.00  0.00    -0.359 OA
HETATM   13  H20         0      66.179  51.190  10.115  1.00  0.00     0.218 HD
ENDBRANCH  10  12
BRANCH   4  14
HETATM   14  C5          0      67.970  53.549   3.814  1.00  0.00     0.025 C 
HETATM   15  C6          0      67.859  52.658   2.757  1.00  0.00     0.004 C 
HETATM   16  C7          0      67.675  53.188   1.484  1.00  0.00     0.026 C 
HETATM   17  C8          0      67.733  54.557   1.248  1.00  0.00     0.112 C 
HETATM   18  C10         0      68.454  55.277   2.192  1.00  0.00     0.112 C 
HETATM   19  C12         0      68.551  54.765   3.480  1.00  0.00     0.028 C 
BRANCH  17  20
HETATM   20  O9          0      66.950  55.142   0.269  1.00  0.00    -0.357 OA
HETATM   21  H9          0      66.209  55.708   0.453  1.00  0.00     0.218 HD
ENDBRANCH  17  20
BRANCH  18  22
HETATM   22  O11         0      68.704  56.612   1.907  1.00  0.00    -0.357 OA
HETATM   23  H11         0      69.269  57.082   2.509  1.00  0.00     0.218 HD
ENDBRANCH  18  22
ENDBRANCH   4  14
BRANCH   8  24
HETATM   24  O17         0      68.712  55.817  10.124  1.00  0.00    -0.359 OA
HETATM   25  H17         0      69.432  56.225   9.658  1.00  0.00     0.218 HD
ENDBRANCH   8  24
TORSDOF 5
ENDMDL
MODEL 4
REMARK VINA RESULT:      -5.1      2.245      6.615
REMARK  5 active torsions:
REMARK  status: ('A' for Active; 'I' for Inactive)
REMARK    1  A    between atoms: C4_4  and  C5_5 
REMARK    2  A    between atoms: C8_8  and  O9_9 
REMARK    3  A    between atoms: C10_11  and  O11_12 
REMARK    4  A    between atoms: C16_18  and  O17_19 
REMARK    5  A    between atoms: C19_22  and  O20_23 
ROOT
HETATM    1  O1          0      68.276  54.620   3.849  1.00  0.00    -0.286 OA
HETATM    2  C2          0      68.030  53.573   3.190  1.00  0.00     0.201 C 
HETATM    3  C3          0      68.162  53.504   1.814  1.00  0.00     0.067 C 
HETATM    4  C4          0      67.786  52.370   1.102  1.00  0.00     0.103 C 
HETATM    5  O13         0      67.311  51.332   1.767  1.00  0.00    -0.307 OA
HETATM    6  C14         0      67.131  51.358   3.069  1.00  0.00     0.107 C 
HETATM    7  C15         0      66.285  50.463   3.708  1.00  0.00     0.049 C 
HETATM    8  C16         0      65.901  50.651   5.030  1.00  0.00     0.093 C 
HETATM    9  C18         0      66.778  51.413   5.793  1.00  0.00     0.048 C 
HETATM   10  C19         0      67.670  52.285   5.184  1.00  0.00     0.096 C 
HETATM   11  C21         0      67.697  52.383   3.819  1.00  0.00     0.084 C 
ENDROOT
BRANCH  10  12
HETATM   12  O20         0      68.213  53.330   5.924  1.00  0.00    -0.359 OA
HETATM   13  H20         0      68.169  53.274   6.871  1.00  0.00     0.218 HD
ENDBRANCH  10  12
BRANCH   4  14
HETATM   14  C5          0      67.383  52.559  -0.293  1.00  0.00     0.025 C 
HETATM   15  C6          0      66.603  51.640  -0.981  1.00  0.00     0.004 C 
HETATM   16  C7          0      65.645  52.137  -1.858  1.00  0.00     0.026 C 
HETATM   17  C8          0      65.553  53.495  -2.145  1.00  0.00     0.112 C 
HETATM   18  C10         0      66.721  54.214  -1.929  1.00  0.00     0.112 C 
HETATM   19  C12         0      67.623  53.739  -0.984  1.00  0.00     0.028 C 
BRANCH  17  20
HETATM   20  O9          0      64.329  54.081  -2.414  1.00  0.00    -0.357 OA
HETATM   21  H9          0      63.519  53.833  -1.984  1.00  0.00     0.218 HD
ENDBRANCH  17  20
BRANCH  18  22
HETATM   22  O11         0      66.742  55.527  -2.375  1.00  0.00    -0.357 OA
HETATM   23  H11         0      67.281  55.715  -3.136  1.00  0.00     0.218 HD
ENDBRANCH  18  22
ENDBRANCH   4  14
BRANCH   8  24
HETATM   24  O17         0      64.593  50.390   5.454  1.00  0.00    -0.359 OA
HETATM   25  H17         0      63.878  50.985   5.262  1.00  0.00     0.218 HD
ENDBRANCH   8  24
TORSDOF 5
ENDMDL
MODEL 5
REMARK VINA RESULT:      -5.0      1.738      6.295
REMARK  5 active torsions:
REMARK  status: ('A' for Active; 'I' for Inactive)
REMARK    1  A    between atoms: C4_4  and  C5_5 
REMARK    2  A    between atoms: C8_8  and  O9_9 
REMARK    3  A    between atoms: C10_11  and  O11_12 
REMARK    4  A    between atoms: C16_18  and  O17_19 
REMARK    5  A    between atoms: C19_22  and  O20_23 
ROOT
HETATM    1  O1          0      67.228  55.202   6.468  1.00  0.00    -0.286 OA
HETATM    2  C2          0      67.542  54.173   5.810  1.00  0.00     0.201 C 
HETATM    3  C3          0      68.120  54.233   4.553  1.00  0.00     0.067 C 
HETATM    4  C4          0      68.362  53.085   3.806  1.00  0.00     0.103 C 
HETATM    5  O13         0      68.046  51.912   4.326  1.00  0.00    -0.307 OA
HETATM    6  C14         0      67.461  51.801   5.498  1.00  0.00     0.107 C 
HETATM    7  C15         0      66.777  50.652   5.868  1.00  0.00     0.049 C 
HETATM    8  C16         0      65.953  50.631   6.986  1.00  0.00     0.093 C 
HETATM    9  C18         0      66.259  51.575   7.959  1.00  0.00     0.048 C 
HETATM   10  C19         0      66.983  52.714   7.633  1.00  0.00     0.096 C 
HETATM   11  C21         0      67.412  52.901   6.347  1.00  0.00     0.084 C 
ENDROOT
BRANCH  10  12
HETATM   12  O20         0      66.910  53.827   8.465  1.00  0.00    -0.359 OA
HETATM   13  H20         0      67.376  54.611   8.201  1.00  0.00     0.218 HD
ENDBRANCH  10  12
BRANCH   4  14
HETATM   14  C5          0      68.387  53.228   2.349  1.00  0.00     0.025 C 
HETATM   15  C6          0      68.323  52.143   1.487  1.00  0.00     0.004 C 
HETATM   16  C7          0      67.582  52.291   0.319  1.00  0.00     0.026 C 
HETATM   17  C8          0      67.033  53.516  -0.046  1.00  0.00     0.112 C 
HETATM   18  C10         0      67.662  54.622   0.509  1.00  0.00     0.112 C 
HETATM   19  C12         0      68.325  54.465   1.721  1.00  0.00     0.028 C 
BRANCH  17  20
HETATM   20  O9          0      65.834  53.578  -0.733  1.00  0.00    -0.357 OA
HETATM   21  H9          0      65.651  54.210  -1.419  1.00  0.00     0.218 HD
ENDBRANCH  17  20
BRANCH  18  22
HETATM   22  O11         0      67.280  55.867   0.033  1.00  0.00    -0.357 OA
HETATM   23  H11         0      66.826  55.888  -0.801  1.00  0.00     0.218 HD
ENDBRANCH  18  22
ENDBRANCH   4  14
BRANCH   8  24
HETATM   24  O17         0      64.728  49.955   6.977  1.00  0.00    -0.359 OA
HETATM   25  H17         0      64.322  49.646   7.778  1.00  0.00     0.218 HD
ENDBRANCH   8  24
TORSDOF 5
ENDMDL
MODEL 6
REMARK VINA RESULT:      -5.0      2.431      4.934
REMARK  5 active torsions:
REMARK  status: ('A' for Active; 'I' for Inactive)
REMARK    1  A    between atoms: C4_4  and  C5_5 
REMARK    2  A    between atoms: C8_8  and  O9_9 
REMARK    3  A    between atoms: C10_11  and  O11_12 
REMARK    4  A    between atoms: C16_18  and  O17_19 
REMARK    5  A    between atoms: C19_22  and  O20_23 
ROOT
HETATM    1  O1          0      67.412  54.813   0.787  1.00  0.00    -0.286 OA
HETATM    2  C2          0      67.914  54.514   1.905  1.00  0.00     0.201 C 
HETATM    3  C3          0      67.915  53.223   2.406  1.00  0.00     0.067 C 
HETATM    4  C4          0      68.382  52.938   3.685  1.00  0.00     0.103 C 
HETATM    5  O13         0      68.852  53.927   4.424  1.00  0.00    -0.307 OA
HETATM    6  C14         0      68.840  55.176   4.011  1.00  0.00     0.107 C 
HETATM    7  C15         0      68.947  56.239   4.895  1.00  0.00     0.049 C 
HETATM    8  C16         0      68.679  57.542   4.493  1.00  0.00     0.093 C 
HETATM    9  C18         0      68.832  57.779   3.132  1.00  0.00     0.048 C 
HETATM   10  C19         0      68.776  56.732   2.223  1.00  0.00     0.096 C 
HETATM   11  C21         0      68.587  55.453   2.671  1.00  0.00     0.084 C 
ENDROOT
BRANCH  10  12
HETATM   12  O20         0      68.493  57.004   0.888  1.00  0.00    -0.359 OA
HETATM   13  H20         0      68.182  57.873   0.667  1.00  0.00     0.218 HD
ENDBRANCH  10  12
BRANCH   4  14
HETATM   14  C5          0      67.825  51.761   4.354  1.00  0.00     0.025 C 
HETATM   15  C6          0      68.388  51.208   5.494  1.00  0.00     0.004 C 
HETATM   16  C7          0      67.524  50.725   6.472  1.00  0.00     0.026 C 
HETATM   17  C8          0      66.149  50.671   6.267  1.00  0.00     0.112 C 
HETATM   18  C10         0      65.762  50.637   4.934  1.00  0.00     0.112 C 
HETATM   19  C12         0      66.607  51.203   3.987  1.00  0.00     0.028 C 
BRANCH  17  20
HETATM   20  O9          0      65.269  50.854   7.319  1.00  0.00    -0.357 OA
HETATM   21  H9          0      65.295  51.600   7.906  1.00  0.00     0.218 HD
ENDBRANCH  17  20
BRANCH  18  22
HETATM   22  O11         0      64.421  50.393   4.675  1.00  0.00    -0.357 OA
HETATM   23  H11         0      63.790  50.803   5.255  1.00  0.00     0.218 HD
ENDBRANCH  18  22
ENDBRANCH   4  14
BRANCH   8  24
HETATM   24  O17         0      67.993  58.435   5.323  1.00  0.00    -0.359 OA
HETATM   25  H17         0      67.314  59.008   4.987  1.00  0.00     0.218 HD
ENDBRANCH   8  24
TORSDOF 5
ENDMDL
MODEL 7
REMARK VINA RESULT:      -4.7      2.375      3.694
REMARK  5 active torsions:
REMARK  status: ('A' for Active; 'I' for Inactive)
REMARK    1  A    between atoms: C4_4  and  C5_5 
REMARK    2  A    between atoms: C8_8  and  O9_9 
REMARK    3  A    between atoms: C10_11  and  O11_12 
REMARK    4  A    between atoms: C16_18  and  O17_19 
REMARK    5  A    between atoms: C19_22  and  O20_23 
ROOT
HETATM    1  O1          0      66.826  52.159   0.780  1.00  0.00    -0.286 OA
HETATM    2  C2          0      67.491  52.335   1.837  1.00  0.00     0.201 C 
HETATM    3  C3          0      67.548  51.396   2.853  1.00  0.00     0.067 C 
HETATM    4  C4          0      68.203  51.657   4.051  1.00  0.00     0.103 C 
HETATM    5  O13         0      68.800  52.826   4.206  1.00  0.00    -0.307 OA
HETATM    6  C14         0      68.745  53.766   3.289  1.00  0.00     0.107 C 
HETATM    7  C15         0      69.006  55.095   3.589  1.00  0.00     0.049 C 
HETATM    8  C16         0      68.701  56.111   2.691  1.00  0.00     0.093 C 
HETATM    9  C18         0      68.644  55.719   1.359  1.00  0.00     0.048 C 
HETATM   10  C19         0      68.430  54.389   1.023  1.00  0.00     0.096 C 
HETATM   11  C21         0      68.292  53.454   2.012  1.00  0.00     0.084 C 
ENDROOT
BRANCH  10  12
HETATM   12  O20         0      67.947  54.076  -0.243  1.00  0.00    -0.359 OA
HETATM   13  H20         0      67.600  53.203  -0.384  1.00  0.00     0.218 HD
ENDBRANCH  10  12
BRANCH   4  14
HETATM   14  C5          0      67.738  50.940   5.239  1.00  0.00     0.025 C 
HETATM   15  C6          0      68.535  50.738   6.356  1.00  0.00     0.004 C 
HETATM   16  C7          0      67.929  50.826   7.605  1.00  0.00     0.026 C 
HETATM   17  C8          0      66.553  50.976   7.740  1.00  0.00     0.112 C 
HETATM   18  C10         0      65.813  50.538   6.649  1.00  0.00     0.112 C 
HETATM   19  C12         0      66.417  50.540   5.397  1.00  0.00     0.028 C 
BRANCH  17  20
HETATM   20  O9          0      66.018  51.699   8.791  1.00  0.00    -0.357 OA
HETATM   21  H9          0      65.415  52.425   8.679  1.00  0.00     0.218 HD
ENDBRANCH  17  20
BRANCH  18  22
HETATM   22  O11         0      64.435  50.489   6.804  1.00  0.00    -0.357 OA
HETATM   23  H11         0      63.930  50.176   6.062  1.00  0.00     0.218 HD
ENDBRANCH  18  22
ENDBRANCH   4  14
BRANCH   8  24
HETATM   24  O17         0      68.168  57.331   3.122  1.00  0.00    -0.359 OA
HETATM   25  H17         0      68.524  57.794   3.871  1.00  0.00     0.218 HD
ENDBRANCH   8  24
TORSDOF 5
ENDMDL
MODEL 8
REMARK VINA RESULT:      -4.6      2.227      6.255
REMARK  5 active torsions:
REMARK  status: ('A' for Active; 'I' for Inactive)
REMARK    1  A    between atoms: C4_4  and  C5_5 
REMARK    2  A    between atoms: C8_8  and  O9_9 
REMARK    3  A    between atoms: C10_11  and  O11_12 
REMARK    4  A    between atoms: C16_18  and  O17_19 
REMARK    5  A    between atoms: C19_22  and  O20_23 
ROOT
HETATM    1  O1          0      66.518  55.466   7.764  1.00  0.00    -0.286 OA
HETATM    2  C2          0      67.093  54.728   6.917  1.00  0.00     0.201 C 
HETATM    3  C3          0      67.716  55.227   5.787  1.00  0.00     0.067 C 
HETATM    4  C4          0      68.252  54.386   4.818  1.00  0.00     0.103 C 
HETATM    5  O13         0      68.177  53.079   5.000  1.00  0.00    -0.307 OA
HETATM    6  C14         0      67.563  52.552   6.037  1.00  0.00     0.107 C 
HETATM    7  C15         0      67.133  51.233   6.039  1.00  0.00     0.049 C 
HETATM    8  C16         0      66.269  50.757   7.018  1.00  0.00     0.093 C 
HETATM    9  C18         0      66.298  51.458   8.218  1.00  0.00     0.048 C 
HETATM   10  C19         0      66.767  52.765   8.260  1.00  0.00     0.096 C 
HETATM   11  C21         0      67.219  53.361   7.115  1.00  0.00     0.084 C 
ENDROOT
BRANCH  10  12
HETATM   12  O20         0      66.398  53.585   9.321  1.00  0.00    -0.359 OA
HETATM   13  H20         0      66.949  53.588  10.095  1.00  0.00     0.218 HD
ENDBRANCH  10  12
BRANCH   4  14
HETATM   14  C5          0      68.331  54.904   3.451  1.00  0.00     0.025 C 
HETATM   15  C6          0      68.801  56.174   3.154  1.00  0.00     0.004 C 
HETATM   16  C7          0      69.577  56.323   2.009  1.00  0.00     0.026 C 
HETATM   17  C8          0      69.769  55.274   1.116  1.00  0.00     0.112 C 
HETATM   18  C10         0      68.786  54.294   1.154  1.00  0.00     0.112 C 
HETATM   19  C12         0      68.083  54.109   2.339  1.00  0.00     0.028 C 
BRANCH  17  20
HETATM   20  O9          0      70.957  55.144   0.419  1.00  0.00    -0.357 OA
HETATM   21  H9          0      71.221  54.350  -0.031  1.00  0.00     0.218 HD
ENDBRANCH  17  20
BRANCH  18  22
HETATM   22  O11         0      68.825  53.326   0.160  1.00  0.00    -0.357 OA
HETATM   23  H11         0      69.628  52.826   0.078  1.00  0.00     0.218 HD
ENDBRANCH  18  22
ENDBRANCH   4  14
BRANCH   8  24
HETATM   24  O17         0      65.229  49.875   6.707  1.00  0.00    -0.359 OA
HETATM   25  H17         0      64.473  50.153   6.203  1.00  0.00     0.218 HD
ENDBRANCH   8  24
TORSDOF 5
ENDMDL
MODEL 9
REMARK VINA RESULT:      -4.5     10.978     12.170
REMARK  5 active torsions:
REMARK  status: ('A' for Active; 'I' for Inactive)
REMARK    1  A    between atoms: C4_4  and  C5_5 
REMARK    2  A    between atoms: C8_8  and  O9_9 
REMARK    3  A    between atoms: C10_11  and  O11_12 
REMARK    4  A    between atoms: C16_18  and  O17_19 
REMARK    5  A    between atoms: C19_22  and  O20_23 
ROOT
HETATM    1  O1          0      65.343  62.820   4.237  1.00  0.00    -0.286 OA
HETATM    2  C2          0      64.375  63.606   4.427  1.00  0.00     0.201 C 
HETATM    3  C3          0      64.069  64.134   5.670  1.00  0.00     0.067 C 
HETATM    4  C4          0      62.937  64.916   5.872  1.00  0.00     0.103 C 
HETATM    5  O13         0      62.151  65.172   4.841  1.00  0.00    -0.307 OA
HETATM    6  C14         0      62.374  64.665   3.649  1.00  0.00     0.107 C 
HETATM    7  C15         0      61.376  64.590   2.688  1.00  0.00     0.049 C 
HETATM    8  C16         0      61.540  63.832   1.534  1.00  0.00     0.093 C 
HETATM    9  C18         0      62.860  63.620   1.154  1.00  0.00     0.048 C 
HETATM   10  C19         0      63.888  63.733   2.080  1.00  0.00     0.096 C 
HETATM   11  C21         0      63.602  64.071   3.374  1.00  0.00     0.084 C 
ENDROOT
BRANCH  10  12
HETATM   12  O20         0      65.107  63.113   1.822  1.00  0.00    -0.359 OA
HETATM   13  H20         0      65.592  62.761   2.558  1.00  0.00     0.218 HD
ENDBRANCH  10  12
BRANCH   4  14
HETATM   14  C5          0      62.361  64.925   7.218  1.00  0.00     0.025 C 
HETATM   15  C6          0      61.125  65.487   7.502  1.00  0.00     0.004 C 
HETATM   16  C7          0      60.317  64.833   8.427  1.00  0.00     0.026 C 
HETATM   17  C8          0      60.774  63.733   9.145  1.00  0.00     0.112 C 
HETATM   18  C10         0      62.155  63.651   9.264  1.00  0.00     0.112 C 
HETATM   19  C12         0      62.939  64.241   8.280  1.00  0.00     0.028 C 
BRANCH  17  20
HETATM   20  O9          0      59.910  62.716   9.510  1.00  0.00    -0.357 OA
HETATM   21  H9          0      60.070  62.121  10.233  1.00  0.00     0.218 HD
ENDBRANCH  17  20
BRANCH  18  22
HETATM   22  O11         0      62.655  62.684  10.125  1.00  0.00    -0.357 OA
HETATM   23  H11         0      63.592  62.696  10.287  1.00  0.00     0.218 HD
ENDBRANCH  18  22
ENDBRANCH   4  14
BRANCH   8  24
HETATM   24  O17         0      60.491  63.071   1.007  1.00  0.00    -0.359 OA
HETATM   25  H17         0      59.710  63.477   0.651  1.00  0.00     0.218 HD
ENDBRANCH   8  24
TORSDOF 5
ENDMDL
