MODEL 1
REMARK VINA RESULT:      -5.5      0.000      0.000
REMARK  5 active torsions:
REMARK  status: ('A' for Active; 'I' for Inactive)
REMARK    1  A    between atoms: C4_4  and  C5_5 
REMARK    2  A    between atoms: C8_8  and  O9_9 
REMARK    3  A    between atoms: C10_11  and  O11_12 
REMARK    4  A    between atoms: C16_18  and  O17_19 
REMARK    5  A    between atoms: C19_22  and  O20_23 
ROOT
HETATM    1  O1          0      33.210 113.377  -3.822  1.00  0.00    -0.286 OA
HETATM    2  C2          0      34.267 112.962  -3.271  1.00  0.00     0.201 C 
HETATM    3  C3          0      34.883 111.775  -3.629  1.00  0.00     0.067 C 
HETATM    4  C4          0      35.988 111.290  -2.938  1.00  0.00     0.103 C 
HETATM    5  O13         0      36.466 111.998  -1.929  1.00  0.00    -0.307 OA
HETATM    6  C14         0      35.896 113.112  -1.525  1.00  0.00     0.107 C 
HETATM    7  C15         0      36.130 113.635  -0.261  1.00  0.00     0.049 C 
HETATM    8  C16         0      35.342 114.658   0.253  1.00  0.00     0.093 C 
HETATM    9  C18         0      34.715 115.452  -0.700  1.00  0.00     0.048 C 
HETATM   10  C19         0      34.507 114.977  -1.988  1.00  0.00     0.096 C 
HETATM   11  C21         0      34.938 113.723  -2.327  1.00  0.00     0.084 C 
ENDROOT
BRANCH  10  12
HETATM   12  O20         0      33.527 115.566  -2.781  1.00  0.00    -0.359 OA
HETATM   13  H20         0      32.989 116.245  -2.392  1.00  0.00     0.218 HD
ENDBRANCH  10  12
BRANCH   4  14
HETATM   14  C5          0      36.201 109.842  -2.947  1.00  0.00     0.025 C 
HETATM   15  C6          0      37.430 109.261  -2.670  1.00  0.00     0.004 C 
HETATM   16  C7          0      37.434 108.081  -1.933  1.00  0.00     0.026 C 
HETATM   17  C8          0      36.254 107.427  -1.597  1.00  0.00     0.112 C 
HETATM   18  C10         0      35.176 107.713  -2.424  1.00  0.00     0.112 C 
HETATM   19  C12         0      35.156 108.937  -3.083  1.00  0.00     0.028 C 
BRANCH  17  20
HETATM   20  O9          0      36.145 106.728  -0.408  1.00  0.00    -0.357 OA
HETATM   21  H9          0      36.524 105.868  -0.264  1.00  0.00     0.218 HD
ENDBRANCH  17  20
BRANCH  18  22
HETATM   22  O11         0      34.031 106.949  -2.252  1.00  0.00    -0.357 OA
HETATM   23  H11         0      33.744 106.800  -1.358  1.00  0.00     0.218 HD
ENDBRANCH  18  22
ENDBRANCH   4  14
BRANCH   8  24
HETATM   24  O17         0      34.947 114.670   1.596  1.00  0.00    -0.359 OA
HETATM   25  H17         0      34.081 114.387   1.864  1.00  0.00     0.218 HD
ENDBRANCH   8  24
TORSDOF 5
ENDMDL
MODEL 2
REMARK VINA RESULT:      -5.3      7.803     11.717
REMARK  5 active torsions:
REMARK  status: ('A' for Active; 'I' for Inactive)
REMARK    1  A    between atoms: C4_4  and  C5_5 
REMARK    2  A    between atoms: C8_8  and  O9_9 
REMARK    3  A    between atoms: C10_11  and  O11_12 
REMARK    4  A    between atoms: C16_18  and  O17_19 
REMARK    5  A    between atoms: C19_22  and  O20_23 
ROOT
HETATM    1  O1          0      26.063 103.085  -5.764  1.00  0.00    -0.286 OA
HETATM    2  C2          0      27.185 103.544  -5.414  1.00  0.00     0.201 C 
HETATM    3  C3          0      27.356 104.840  -4.958  1.00  0.00     0.067 C 
HETATM    4  C4          0      28.617 105.353  -4.676  1.00  0.00     0.103 C 
HETATM    5  O13         0      29.670 104.571  -4.832  1.00  0.00    -0.307 OA
HETATM    6  C14         0      29.567 103.345  -5.298  1.00  0.00     0.107 C 
HETATM    7  C15         0      30.656 102.674  -5.835  1.00  0.00     0.049 C 
HETATM    8  C16         0      30.495 101.494  -6.551  1.00  0.00     0.093 C 
HETATM    9  C18         0      29.343 100.777  -6.250  1.00  0.00     0.048 C 
HETATM   10  C19         0      28.251 101.408  -5.669  1.00  0.00     0.096 C 
HETATM   11  C21         0      28.316 102.743  -5.375  1.00  0.00     0.084 C 
ENDROOT
BRANCH  10  12
HETATM   12  O20         0      26.993 100.824  -5.773  1.00  0.00    -0.359 OA
HETATM   13  H20         0      26.331 101.076  -5.140  1.00  0.00     0.218 HD
ENDBRANCH  10  12
BRANCH   4  14
HETATM   14  C5          0      28.792 106.802  -4.794  1.00  0.00     0.025 C 
HETATM   15  C6          0      27.726 107.690  -4.803  1.00  0.00     0.004 C 
HETATM   16  C7          0      27.890 108.900  -4.137  1.00  0.00     0.026 C 
HETATM   17  C8          0      29.115 109.275  -3.594  1.00  0.00     0.112 C 
HETATM   18  C10         0      30.216 108.655  -4.169  1.00  0.00     0.112 C 
HETATM   19  C12         0      30.042 107.407  -4.754  1.00  0.00     0.028 C 
BRANCH  17  20
HETATM   20  O9          0      29.176 110.037  -2.441  1.00  0.00    -0.357 OA
HETATM   21  H9          0      29.914 110.030  -1.842  1.00  0.00     0.218 HD
ENDBRANCH  17  20
BRANCH  18  22
HETATM   22  O11         0      31.467 109.128  -3.799  1.00  0.00    -0.357 OA
HETATM   23  H11         0      32.115 109.217  -4.489  1.00  0.00     0.218 HD
ENDBRANCH  18  22
ENDBRANCH   4  14
BRANCH   8  24
HETATM   24  O17         0      31.244 101.231  -7.703  1.00  0.00    -0.359 OA
HETATM   25  H17         0      31.133 101.740  -8.497  1.00  0.00     0.218 HD
ENDBRANCH   8  24
TORSDOF 5
ENDMDL
MODEL 3
REMARK VINA RESULT:      -5.3      1.870      3.245
REMARK  5 active torsions:
REMARK  status: ('A' for Active; 'I' for Inactive)
REMARK    1  A    between atoms: C4_4  and  C5_5 
REMARK    2  A    between atoms: C8_8  and  O9_9 
REMARK    3  A    between atoms: C10_11  and  O11_12 
REMARK    4  A    between atoms: C16_18  and  O17_19 
REMARK    5  A    between atoms: C19_22  and  O20_23 
ROOT
HETATM    1  O1          0      37.417 115.649  -0.568  1.00  0.00    -0.286 OA
HETATM    2  C2          0      36.422 114.880  -0.669  1.00  0.00     0.201 C 
HETATM    3  C3          0      36.537 113.545  -1.019  1.00  0.00     0.067 C 
HETATM    4  C4          0      35.418 112.746  -1.223  1.00  0.00     0.103 C 
HETATM    5  O13         0      34.220 113.278  -1.058  1.00  0.00    -0.307 OA
HETATM    6  C14         0      34.053 114.549  -0.764  1.00  0.00     0.107 C 
HETATM    7  C15         0      32.846 115.197  -0.979  1.00  0.00     0.049 C 
HETATM    8  C16         0      32.747 116.581  -0.910  1.00  0.00     0.093 C 
HETATM    9  C18         0      33.714 117.200  -0.125  1.00  0.00     0.048 C 
HETATM   10  C19         0      34.915 116.560   0.149  1.00  0.00     0.096 C 
HETATM   11  C21         0      35.143 115.304  -0.342  1.00  0.00     0.084 C 
ENDROOT
BRANCH  10  12
HETATM   12  O20         0      36.015 117.317   0.540  1.00  0.00    -0.359 OA
HETATM   13  H20         0      36.592 117.647  -0.138  1.00  0.00     0.218 HD
ENDBRANCH  10  12
BRANCH   4  14
HETATM   14  C5          0      35.565 111.608  -2.132  1.00  0.00     0.025 C 
HETATM   15  C6          0      36.549 110.642  -1.975  1.00  0.00     0.004 C 
HETATM   16  C7          0      36.207 109.323  -2.252  1.00  0.00     0.026 C 
HETATM   17  C8          0      34.971 108.988  -2.795  1.00  0.00     0.112 C 
HETATM   18  C10         0      34.342 110.017  -3.484  1.00  0.00     0.112 C 
HETATM   19  C12         0      34.640 111.327  -3.129  1.00  0.00     0.028 C 
BRANCH  17  20
HETATM   20  O9          0      34.356 107.791  -2.473  1.00  0.00    -0.357 OA
HETATM   21  H9          0      33.690 107.378  -3.011  1.00  0.00     0.218 HD
ENDBRANCH  17  20
BRANCH  18  22
HETATM   22  O11         0      33.202 109.687  -4.203  1.00  0.00    -0.357 OA
HETATM   23  H11         0      33.166 109.976  -5.107  1.00  0.00     0.218 HD
ENDBRANCH  18  22
ENDBRANCH   4  14
BRANCH   8  24
HETATM   24  O17         0      31.963 117.303  -1.816  1.00  0.00    -0.359 OA
HETATM   25  H17         0      32.201 117.377  -2.733  1.00  0.00     0.218 HD
ENDBRANCH   8  24
TORSDOF 5
ENDMDL
MODEL 4
REMARK VINA RESULT:      -5.3      2.275      3.746
REMARK  5 active torsions:
REMARK  status: ('A' for Active; 'I' for Inactive)
REMARK    1  A    between atoms: C4_4  and  C5_5 
REMARK    2  A    between atoms: C8_8  and  O9_9 
REMARK    3  A    between atoms: C10_11  and  O11_12 
REMARK    4  A    between atoms: C16_18  and  O17_19 
REMARK    5  A    between atoms: C19_22  and  O20_23 
ROOT
HETATM    1  O1          0      37.437 115.631  -0.749  1.00  0.00    -0.286 OA
HETATM    2  C2          0      36.442 114.858  -0.806  1.00  0.00     0.201 C 
HETATM    3  C3          0      36.546 113.526  -1.169  1.00  0.00     0.067 C 
HETATM    4  C4          0      35.422 112.723  -1.322  1.00  0.00     0.103 C 
HETATM    5  O13         0      34.231 113.248  -1.094  1.00  0.00    -0.307 OA
HETATM    6  C14         0      34.074 114.516  -0.784  1.00  0.00     0.107 C 
HETATM    7  C15         0      32.854 115.159  -0.935  1.00  0.00     0.049 C 
HETATM    8  C16         0      32.753 116.543  -0.852  1.00  0.00     0.093 C 
HETATM    9  C18         0      33.754 117.161  -0.113  1.00  0.00     0.048 C 
HETATM   10  C19         0      34.970 116.526   0.097  1.00  0.00     0.096 C 
HETATM   11  C21         0      35.179 115.274  -0.413  1.00  0.00     0.084 C 
ENDROOT
BRANCH  10  12
HETATM   12  O20         0      36.085 117.286   0.438  1.00  0.00    -0.359 OA
HETATM   13  H20         0      36.292 118.039  -0.102  1.00  0.00     0.218 HD
ENDBRANCH  10  12
BRANCH   4  14
HETATM   14  C5          0      35.529 111.591  -2.244  1.00  0.00     0.025 C 
HETATM   15  C6          0      34.871 111.551  -3.465  1.00  0.00     0.004 C 
HETATM   16  C7          0      35.547 110.988  -4.543  1.00  0.00     0.026 C 
HETATM   17  C8          0      36.780 110.364  -4.386  1.00  0.00     0.112 C 
HETATM   18  C10         0      37.037 109.904  -3.102  1.00  0.00     0.112 C 
HETATM   19  C12         0      36.414 110.541  -2.035  1.00  0.00     0.028 C 
BRANCH  17  20
HETATM   20  O9          0      37.729 110.407  -5.392  1.00  0.00    -0.357 OA
HETATM   21  H9          0      37.517 110.454  -6.317  1.00  0.00     0.218 HD
ENDBRANCH  17  20
BRANCH  18  22
HETATM   22  O11         0      38.163 109.112  -2.932  1.00  0.00    -0.357 OA
HETATM   23  H11         0      38.325 108.448  -3.592  1.00  0.00     0.218 HD
ENDBRANCH  18  22
ENDBRANCH   4  14
BRANCH   8  24
HETATM   24  O17         0      31.921 117.266  -1.714  1.00  0.00    -0.359 OA
HETATM   25  H17         0      31.772 118.197  -1.599  1.00  0.00     0.218 HD
ENDBRANCH   8  24
TORSDOF 5
ENDMDL
MODEL 5
REMARK VINA RESULT:      -5.3     13.236     15.540
REMARK  5 active torsions:
REMARK  status: ('A' for Active; 'I' for Inactive)
REMARK    1  A    between atoms: C4_4  and  C5_5 
REMARK    2  A    between atoms: C8_8  and  O9_9 
REMARK    3  A    between atoms: C10_11  and  O11_12 
REMARK    4  A    between atoms: C16_18  and  O17_19 
REMARK    5  A    between atoms: C19_22  and  O20_23 
ROOT
HETATM    1  O1          0      23.544 103.565  -2.149  1.00  0.00    -0.286 OA
HETATM    2  C2          0      23.094 103.767  -0.988  1.00  0.00     0.201 C 
HETATM    3  C3          0      22.398 104.912  -0.642  1.00  0.00     0.067 C 
HETATM    4  C4          0      22.003 105.156   0.669  1.00  0.00     0.103 C 
HETATM    5  O13         0      22.286 104.258   1.595  1.00  0.00    -0.307 OA
HETATM    6  C14         0      22.978 103.172   1.327  1.00  0.00     0.107 C 
HETATM    7  C15         0      23.613 102.446   2.324  1.00  0.00     0.049 C 
HETATM    8  C16         0      24.543 101.459   2.017  1.00  0.00     0.093 C 
HETATM    9  C18         0      24.403 100.893   0.756  1.00  0.00     0.048 C 
HETATM   10  C19         0      23.732 101.572  -0.252  1.00  0.00     0.096 C 
HETATM   11  C21         0      23.189 102.802   0.004  1.00  0.00     0.084 C 
ENDROOT
BRANCH  10  12
HETATM   12  O20         0      23.966 101.225  -1.579  1.00  0.00    -0.359 OA
HETATM   13  H20         0      24.012 101.924  -2.220  1.00  0.00     0.218 HD
ENDBRANCH  10  12
BRANCH   4  14
HETATM   14  C5          0      21.840 106.555   1.070  1.00  0.00     0.025 C 
HETATM   15  C6          0      21.193 106.932   2.237  1.00  0.00     0.004 C 
HETATM   16  C7          0      21.718 108.008   2.947  1.00  0.00     0.026 C 
HETATM   17  C8          0      22.769 108.769   2.446  1.00  0.00     0.112 C 
HETATM   18  C10         0      22.909 108.726   1.065  1.00  0.00     0.112 C 
HETATM   19  C12         0      22.452 107.600   0.390  1.00  0.00     0.028 C 
BRANCH  17  20
HETATM   20  O9          0      23.703 109.334   3.296  1.00  0.00    -0.357 OA
HETATM   21  H9          0      24.642 109.250   3.178  1.00  0.00     0.218 HD
ENDBRANCH  17  20
BRANCH  18  22
HETATM   22  O11         0      23.817 109.609   0.498  1.00  0.00    -0.357 OA
HETATM   23  H11         0      23.472 110.438   0.187  1.00  0.00     0.218 HD
ENDBRANCH  18  22
ENDBRANCH   4  14
BRANCH   8  24
HETATM   24  O17         0      25.711 101.298   2.771  1.00  0.00    -0.359 OA
HETATM   25  H17         0      26.303 102.023   2.935  1.00  0.00     0.218 HD
ENDBRANCH   8  24
TORSDOF 5
ENDMDL
MODEL 6
REMARK VINA RESULT:      -5.2      2.122      6.460
REMARK  5 active torsions:
REMARK  status: ('A' for Active; 'I' for Inactive)
REMARK    1  A    between atoms: C4_4  and  C5_5 
REMARK    2  A    between atoms: C8_8  and  O9_9 
REMARK    3  A    between atoms: C10_11  and  O11_12 
REMARK    4  A    between atoms: C16_18  and  O17_19 
REMARK    5  A    between atoms: C19_22  and  O20_23 
ROOT
HETATM    1  O1          0      33.606 112.040  -5.431  1.00  0.00    -0.286 OA
HETATM    2  C2          0      34.011 112.187  -4.246  1.00  0.00     0.201 C 
HETATM    3  C3          0      33.750 113.323  -3.499  1.00  0.00     0.067 C 
HETATM    4  C4          0      34.294 113.503  -2.232  1.00  0.00     0.103 C 
HETATM    5  O13         0      35.060 112.552  -1.729  1.00  0.00    -0.307 OA
HETATM    6  C14         0      35.370 111.470  -2.411  1.00  0.00     0.107 C 
HETATM    7  C15         0      36.460 110.681  -2.073  1.00  0.00     0.049 C 
HETATM    8  C16         0      36.932 109.697  -2.934  1.00  0.00     0.093 C 
HETATM    9  C18         0      35.993 109.202  -3.831  1.00  0.00     0.048 C 
HETATM   10  C19         0      34.866 109.945  -4.155  1.00  0.00     0.096 C 
HETATM   11  C21         0      34.670 111.168  -3.574  1.00  0.00     0.084 C 
ENDROOT
BRANCH  10  12
HETATM   12  O20         0      34.183 109.666  -5.334  1.00  0.00    -0.359 OA
HETATM   13  H20         0      34.542 109.003  -5.911  1.00  0.00     0.218 HD
ENDBRANCH  10  12
BRANCH   4  14
HETATM   14  C5          0      34.491 114.881  -1.778  1.00  0.00     0.025 C 
HETATM   15  C6          0      33.437 115.734  -1.484  1.00  0.00     0.004 C 
HETATM   16  C7          0      33.585 116.592  -0.399  1.00  0.00     0.026 C 
HETATM   17  C8          0      34.789 116.695   0.290  1.00  0.00     0.112 C 
HETATM   18  C10         0      35.908 116.312  -0.437  1.00  0.00     0.112 C 
HETATM   19  C12         0      35.745 115.388  -1.462  1.00  0.00     0.028 C 
BRANCH  17  20
HETATM   20  O9          0      34.807 116.955   1.649  1.00  0.00    -0.357 OA
HETATM   21  H9          0      34.025 117.071   2.175  1.00  0.00     0.218 HD
ENDBRANCH  17  20
BRANCH  18  22
HETATM   22  O11         0      37.146 116.572   0.133  1.00  0.00    -0.357 OA
HETATM   23  H11         0      37.893 116.597  -0.455  1.00  0.00     0.218 HD
ENDBRANCH  18  22
ENDBRANCH   4  14
BRANCH   8  24
HETATM   24  O17         0      38.302 109.475  -3.107  1.00  0.00    -0.359 OA
HETATM   25  H17         0      38.737 109.656  -3.932  1.00  0.00     0.218 HD
ENDBRANCH   8  24
TORSDOF 5
ENDMDL
MODEL 7
REMARK VINA RESULT:      -5.2     13.035     14.275
REMARK  5 active torsions:
REMARK  status: ('A' for Active; 'I' for Inactive)
REMARK    1  A    between atoms: C4_4  and  C5_5 
REMARK    2  A    between atoms: C8_8  and  O9_9 
REMARK    3  A    between atoms: C10_11  and  O11_12 
REMARK    4  A    between atoms: C16_18  and  O17_19 
REMARK    5  A    between atoms: C19_22  and  O20_23 
ROOT
HETATM    1  O1          0      22.202 108.580   3.285  1.00  0.00    -0.286 OA
HETATM    2  C2          0      22.113 107.878   2.241  1.00  0.00     0.201 C 
HETATM    3  C3          0      21.833 106.523   2.269  1.00  0.00     0.067 C 
HETATM    4  C4          0      21.842 105.752   1.112  1.00  0.00     0.103 C 
HETATM    5  O13         0      22.105 106.342  -0.041  1.00  0.00    -0.307 OA
HETATM    6  C14         0      22.414 107.618  -0.119  1.00  0.00     0.107 C 
HETATM    7  C15         0      23.068 108.145  -1.224  1.00  0.00     0.049 C 
HETATM    8  C16         0      23.616 109.422  -1.196  1.00  0.00     0.093 C 
HETATM    9  C18         0      23.036 110.289  -0.278  1.00  0.00     0.048 C 
HETATM   10  C19         0      22.335 109.796   0.813  1.00  0.00     0.096 C 
HETATM   11  C21         0      22.198 108.444   0.978  1.00  0.00     0.084 C 
ENDROOT
BRANCH  10  12
HETATM   12  O20         0      22.145 110.611   1.925  1.00  0.00    -0.359 OA
HETATM   13  H20         0      21.412 111.215   1.914  1.00  0.00     0.218 HD
ENDBRANCH  10  12
BRANCH   4  14
HETATM   14  C5          0      22.139 104.326   1.259  1.00  0.00     0.025 C 
HETATM   15  C6          0      22.869 103.610   0.321  1.00  0.00     0.004 C 
HETATM   16  C7          0      23.758 102.650   0.792  1.00  0.00     0.026 C 
HETATM   17  C8          0      23.824 102.316   2.141  1.00  0.00     0.112 C 
HETATM   18  C10         0      22.673 102.597   2.864  1.00  0.00     0.112 C 
HETATM   19  C12         0      21.845 103.620   2.417  1.00  0.00     0.028 C 
BRANCH  17  20
HETATM   20  O9          0      25.023 101.940   2.720  1.00  0.00    -0.357 OA
HETATM   21  H9          0      25.565 102.523   3.238  1.00  0.00     0.218 HD
ENDBRANCH  17  20
BRANCH  18  22
HETATM   22  O11         0      22.614 102.115   4.164  1.00  0.00    -0.357 OA
HETATM   23  H11         0      21.813 101.676   4.424  1.00  0.00     0.218 HD
ENDBRANCH  18  22
ENDBRANCH   4  14
BRANCH   8  24
HETATM   24  O17         0      24.852 109.698  -1.791  1.00  0.00    -0.359 OA
HETATM   25  H17         0      25.657 109.706  -1.287  1.00  0.00     0.218 HD
ENDBRANCH   8  24
TORSDOF 5
ENDMDL
MODEL 8
REMARK VINA RESULT:      -4.9      9.777     11.320
REMARK  5 active torsions:
REMARK  status: ('A' for Active; 'I' for Inactive)
REMARK    1  A    between atoms: C4_4  and  C5_5 
REMARK    2  A    between atoms: C8_8  and  O9_9 
REMARK    3  A    between atoms: C10_11  and  O11_12 
REMARK    4  A    between atoms: C16_18  and  O17_19 
REMARK    5  A    between atoms: C19_22  and  O20_23 
ROOT
HETATM    1  O1          0      24.752 105.098  -0.938  1.00  0.00    -0.286 OA
HETATM    2  C2          0      24.682 106.268  -1.406  1.00  0.00     0.201 C 
HETATM    3  C3          0      25.359 106.661  -2.548  1.00  0.00     0.067 C 
HETATM    4  C4          0      25.347 107.981  -2.984  1.00  0.00     0.103 C 
HETATM    5  O13         0      24.652 108.870  -2.296  1.00  0.00    -0.307 OA
HETATM    6  C14         0      24.022 108.558  -1.185  1.00  0.00     0.107 C 
HETATM    7  C15         0      23.641 109.523  -0.264  1.00  0.00     0.049 C 
HETATM    8  C16         0      23.211 109.175   1.010  1.00  0.00     0.093 C 
HETATM    9  C18         0      22.689 107.892   1.123  1.00  0.00     0.048 C 
HETATM   10  C19         0      23.012 106.914   0.193  1.00  0.00     0.096 C 
HETATM   11  C21         0      23.838 107.219  -0.854  1.00  0.00     0.084 C 
ENDROOT
BRANCH  10  12
HETATM   12  O20         0      22.859 105.573   0.533  1.00  0.00    -0.359 OA
HETATM   13  H20         0      23.586 104.986   0.365  1.00  0.00     0.218 HD
ENDBRANCH  10  12
BRANCH   4  14
HETATM   14  C5          0      26.495 108.438  -3.769  1.00  0.00     0.025 C 
HETATM   15  C6          0      26.746 109.779  -4.024  1.00  0.00     0.004 C 
HETATM   16  C7          0      28.072 110.200  -4.010  1.00  0.00     0.026 C 
HETATM   17  C8          0      29.123 109.298  -3.881  1.00  0.00     0.112 C 
HETATM   18  C10         0      28.822 107.998  -4.266  1.00  0.00     0.112 C 
HETATM   19  C12         0      27.500 107.576  -4.189  1.00  0.00     0.028 C 
BRANCH  17  20
HETATM   20  O9          0      30.285 109.654  -3.221  1.00  0.00    -0.357 OA
HETATM   21  H9          0      31.059 109.989  -3.658  1.00  0.00     0.218 HD
ENDBRANCH  17  20
BRANCH  18  22
HETATM   22  O11         0      29.880 107.103  -4.337  1.00  0.00    -0.357 OA
HETATM   23  H11         0      30.180 106.726  -3.518  1.00  0.00     0.218 HD
ENDBRANCH  18  22
ENDBRANCH   4  14
BRANCH   8  24
HETATM   24  O17         0      23.586 109.918   2.135  1.00  0.00    -0.359 OA
HETATM   25  H17         0      23.059 110.641   2.454  1.00  0.00     0.218 HD
ENDBRANCH   8  24
TORSDOF 5
ENDMDL
MODEL 9
REMARK VINA RESULT:      -4.8      9.975     11.294
REMARK  5 active torsions:
REMARK  status: ('A' for Active; 'I' for Inactive)
REMARK    1  A    between atoms: C4_4  and  C5_5 
REMARK    2  A    between atoms: C8_8  and  O9_9 
REMARK    3  A    between atoms: C10_11  and  O11_12 
REMARK    4  A    between atoms: C16_18  and  O17_19 
REMARK    5  A    between atoms: C19_22  and  O20_23 
ROOT
HETATM    1  O1          0      24.998 113.926  -2.692  1.00  0.00    -0.286 OA
HETATM    2  C2          0      24.949 112.665  -2.715  1.00  0.00     0.201 C 
HETATM    3  C3          0      23.943 111.941  -2.098  1.00  0.00     0.067 C 
HETATM    4  C4          0      23.969 110.552  -2.051  1.00  0.00     0.103 C 
HETATM    5  O13         0      24.973 109.916  -2.630  1.00  0.00    -0.307 OA
HETATM    6  C14         0      25.972 110.555  -3.196  1.00  0.00     0.107 C 
HETATM    7  C15         0      27.190 109.938  -3.441  1.00  0.00     0.049 C 
HETATM    8  C16         0      28.313 110.674  -3.799  1.00  0.00     0.093 C 
HETATM    9  C18         0      28.045 111.899  -4.399  1.00  0.00     0.048 C 
HETATM   10  C19         0      26.819 112.522  -4.214  1.00  0.00     0.096 C 
HETATM   11  C21         0      25.860 111.919  -3.447  1.00  0.00     0.084 C 
ENDROOT
BRANCH  10  12
HETATM   12  O20         0      26.712 113.892  -4.434  1.00  0.00    -0.359 OA
HETATM   13  H20         0      27.387 114.455  -4.074  1.00  0.00     0.218 HD
ENDBRANCH  10  12
BRANCH   4  14
HETATM   14  C5          0      23.276 109.906  -0.934  1.00  0.00     0.025 C 
HETATM   15  C6          0      23.520 108.595  -0.555  1.00  0.00     0.004 C 
HETATM   16  C7          0      23.522 108.307   0.806  1.00  0.00     0.026 C 
HETATM   17  C8          0      23.161 109.259   1.753  1.00  0.00     0.112 C 
HETATM   18  C10         0      22.353 110.280   1.271  1.00  0.00     0.112 C 
HETATM   19  C12         0      22.433 110.604  -0.078  1.00  0.00     0.028 C 
BRANCH  17  20
HETATM   20  O9          0      23.751 109.273   3.005  1.00  0.00    -0.357 OA
HETATM   21  H9          0      23.639 108.583   3.649  1.00  0.00     0.218 HD
ENDBRANCH  17  20
BRANCH  18  22
HETATM   22  O11         0      21.811 111.148   2.207  1.00  0.00    -0.357 OA
HETATM   23  H11         0      21.034 110.853   2.668  1.00  0.00     0.218 HD
ENDBRANCH  18  22
ENDBRANCH   4  14
BRANCH   8  24
HETATM   24  O17         0      29.580 110.365  -3.291  1.00  0.00    -0.359 OA
HETATM   25  H17         0      30.285 110.071  -3.856  1.00  0.00     0.218 HD
ENDBRANCH   8  24
TORSDOF 5
ENDMDL
