MODEL 1
REMARK VINA RESULT:      -6.7      0.000      0.000
REMARK  5 active torsions:
REMARK  status: ('A' for Active; 'I' for Inactive)
REMARK    1  A    between atoms: C4_4  and  C5_5 
REMARK    2  A    between atoms: C8_8  and  O9_9 
REMARK    3  A    between atoms: C10_11  and  O11_12 
REMARK    4  A    between atoms: C16_18  and  O17_19 
REMARK    5  A    between atoms: C19_22  and  O20_23 
ROOT
HETATM    1  O1          0      51.137  39.781  39.602  1.00  0.00    -0.286 OA
HETATM    2  C2          0      51.939  38.958  40.121  1.00  0.00     0.201 C 
HETATM    3  C3          0      53.240  39.290  40.461  1.00  0.00     0.067 C 
HETATM    4  C4          0      54.134  38.337  40.936  1.00  0.00     0.103 C 
HETATM    5  O13         0      53.718  37.092  41.081  1.00  0.00    -0.307 OA
HETATM    6  C14         0      52.505  36.716  40.737  1.00  0.00     0.107 C 
HETATM    7  C15         0      52.191  35.384  40.507  1.00  0.00     0.049 C 
HETATM    8  C16         0      50.994  35.019  39.903  1.00  0.00     0.093 C 
HETATM    9  C18         0      49.963  35.941  40.039  1.00  0.00     0.048 C 
HETATM   10  C19         0      50.240  37.273  40.316  1.00  0.00     0.096 C 
HETATM   11  C21         0      51.537  37.678  40.473  1.00  0.00     0.084 C 
ENDROOT
BRANCH  10  12
HETATM   12  O20         0      49.285  38.242  40.023  1.00  0.00    -0.359 OA
HETATM   13  H20         0      49.589  39.094  39.735  1.00  0.00     0.218 HD
ENDBRANCH  10  12
BRANCH   4  14
HETATM   14  C5          0      55.559  38.582  40.703  1.00  0.00     0.025 C 
HETATM   15  C6          0      56.552  37.724  41.152  1.00  0.00     0.004 C 
HETATM   16  C7          0      57.648  37.515  40.320  1.00  0.00     0.026 C 
HETATM   17  C8          0      57.818  38.235  39.143  1.00  0.00     0.112 C 
HETATM   18  C10         0      57.156  39.456  39.109  1.00  0.00     0.112 C 
HETATM   19  C12         0      56.014  39.609  39.886  1.00  0.00     0.028 C 
BRANCH  17  20
HETATM   20  O9          0      58.423  37.659  38.040  1.00  0.00    -0.357 OA
HETATM   21  H9          0      59.322  37.349  38.033  1.00  0.00     0.218 HD
ENDBRANCH  17  20
BRANCH  18  22
HETATM   22  O11         0      57.442  40.296  38.043  1.00  0.00    -0.357 OA
HETATM   23  H11         0      56.834  40.286  37.313  1.00  0.00     0.218 HD
ENDBRANCH  18  22
ENDBRANCH   4  14
BRANCH   8  24
HETATM   24  O17         0      50.938  33.986  38.961  1.00  0.00    -0.359 OA
HETATM   25  H17         0      51.358  33.148  39.114  1.00  0.00     0.218 HD
ENDBRANCH   8  24
TORSDOF 5
ENDMDL
MODEL 2
REMARK VINA RESULT:      -6.6      1.603      6.545
REMARK  5 active torsions:
REMARK  status: ('A' for Active; 'I' for Inactive)
REMARK    1  A    between atoms: C4_4  and  C5_5 
REMARK    2  A    between atoms: C8_8  and  O9_9 
REMARK    3  A    between atoms: C10_11  and  O11_12 
REMARK    4  A    between atoms: C16_18  and  O17_19 
REMARK    5  A    between atoms: C19_22  and  O20_23 
ROOT
HETATM    1  O1          0      57.522  37.612  39.707  1.00  0.00    -0.286 OA
HETATM    2  C2          0      56.447  38.197  40.010  1.00  0.00     0.201 C 
HETATM    3  C3          0      55.428  37.578  40.714  1.00  0.00     0.067 C 
HETATM    4  C4          0      54.212  38.212  40.945  1.00  0.00     0.103 C 
HETATM    5  O13         0      54.043  39.443  40.496  1.00  0.00    -0.307 OA
HETATM    6  C14         0      54.963  40.063  39.791  1.00  0.00     0.107 C 
HETATM    7  C15         0      54.660  41.156  38.993  1.00  0.00     0.049 C 
HETATM    8  C16         0      55.569  41.645  38.062  1.00  0.00     0.093 C 
HETATM    9  C18         0      56.901  41.360  38.337  1.00  0.00     0.048 C 
HETATM   10  C19         0      57.239  40.302  39.169  1.00  0.00     0.096 C 
HETATM   11  C21         0      56.252  39.542  39.737  1.00  0.00     0.084 C 
ENDROOT
BRANCH  10  12
HETATM   12  O20         0      58.518  39.759  39.094  1.00  0.00    -0.359 OA
HETATM   13  H20         0      58.619  38.831  39.271  1.00  0.00     0.218 HD
ENDBRANCH  10  12
BRANCH   4  14
HETATM   14  C5          0      53.036  37.359  41.126  1.00  0.00     0.025 C 
HETATM   15  C6          0      51.781  37.865  41.435  1.00  0.00     0.004 C 
HETATM   16  C7          0      50.678  37.262  40.838  1.00  0.00     0.026 C 
HETATM   17  C8          0      50.804  36.112  40.066  1.00  0.00     0.112 C 
HETATM   18  C10         0      51.936  35.354  40.336  1.00  0.00     0.112 C 
HETATM   19  C12         0      53.054  35.998  40.853  1.00  0.00     0.028 C 
BRANCH  17  20
HETATM   20  O9          0      49.969  35.888  38.987  1.00  0.00    -0.357 OA
HETATM   21  H9          0      50.137  35.236  38.316  1.00  0.00     0.218 HD
ENDBRANCH  17  20
BRANCH  18  22
HETATM   22  O11         0      52.016  34.107  39.732  1.00  0.00    -0.357 OA
HETATM   23  H11         0      52.456  34.063  38.891  1.00  0.00     0.218 HD
ENDBRANCH  18  22
ENDBRANCH   4  14
BRANCH   8  24
HETATM   24  O17         0      55.155  42.081  36.799  1.00  0.00    -0.359 OA
HETATM   25  H17         0      55.156  43.001  36.563  1.00  0.00     0.218 HD
ENDBRANCH   8  24
TORSDOF 5
ENDMDL
MODEL 3
REMARK VINA RESULT:      -6.3      4.330      6.397
REMARK  5 active torsions:
REMARK  status: ('A' for Active; 'I' for Inactive)
REMARK    1  A    between atoms: C4_4  and  C5_5 
REMARK    2  A    between atoms: C8_8  and  O9_9 
REMARK    3  A    between atoms: C10_11  and  O11_12 
REMARK    4  A    between atoms: C16_18  and  O17_19 
REMARK    5  A    between atoms: C19_22  and  O20_23 
ROOT
HETATM    1  O1          0      47.082  35.747  43.895  1.00  0.00    -0.286 OA
HETATM    2  C2          0      47.865  36.708  43.662  1.00  0.00     0.201 C 
HETATM    3  C3          0      48.549  36.845  42.466  1.00  0.00     0.067 C 
HETATM    4  C4          0      49.484  37.856  42.273  1.00  0.00     0.103 C 
HETATM    5  O13         0      49.703  38.714  43.254  1.00  0.00    -0.307 OA
HETATM    6  C14         0      49.108  38.606  44.422  1.00  0.00     0.107 C 
HETATM    7  C15         0      49.609  39.228  45.557  1.00  0.00     0.049 C 
HETATM    8  C16         0      49.133  38.909  46.824  1.00  0.00     0.093 C 
HETATM    9  C18         0      47.845  38.389  46.853  1.00  0.00     0.048 C 
HETATM   10  C19         0      47.295  37.802  45.721  1.00  0.00     0.096 C 
HETATM   11  C21         0      48.021  37.750  44.563  1.00  0.00     0.084 C 
ENDROOT
BRANCH  10  12
HETATM   12  O20         0      46.228  36.920  45.862  1.00  0.00    -0.359 OA
HETATM   13  H20         0      45.991  36.646  46.740  1.00  0.00     0.218 HD
ENDBRANCH  10  12
BRANCH   4  14
HETATM   14  C5          0      50.554  37.604  41.306  1.00  0.00     0.025 C 
HETATM   15  C6          0      51.599  38.491  41.092  1.00  0.00     0.004 C 
HETATM   16  C7          0      52.863  37.955  40.869  1.00  0.00     0.026 C 
HETATM   17  C8          0      53.061  36.586  40.728  1.00  0.00     0.112 C 
HETATM   18  C10         0      51.936  35.876  40.328  1.00  0.00     0.112 C 
HETATM   19  C12         0      50.684  36.392  40.639  1.00  0.00     0.028 C 
BRANCH  17  20
HETATM   20  O9          0      54.230  35.990  41.164  1.00  0.00    -0.357 OA
HETATM   21  H9          0      54.320  35.057  41.325  1.00  0.00     0.218 HD
ENDBRANCH  17  20
BRANCH  18  22
HETATM   22  O11         0      52.122  34.543  39.991  1.00  0.00    -0.357 OA
HETATM   23  H11         0      51.765  34.256  39.158  1.00  0.00     0.218 HD
ENDBRANCH  18  22
ENDBRANCH   4  14
BRANCH   8  24
HETATM   24  O17         0      49.995  38.803  47.921  1.00  0.00    -0.359 OA
HETATM   25  H17         0      50.061  38.002  48.427  1.00  0.00     0.218 HD
ENDBRANCH   8  24
TORSDOF 5
ENDMDL
MODEL 4
REMARK VINA RESULT:      -6.2      3.321      6.239
REMARK  5 active torsions:
REMARK  status: ('A' for Active; 'I' for Inactive)
REMARK    1  A    between atoms: C4_4  and  C5_5 
REMARK    2  A    between atoms: C8_8  and  O9_9 
REMARK    3  A    between atoms: C10_11  and  O11_12 
REMARK    4  A    between atoms: C16_18  and  O17_19 
REMARK    5  A    between atoms: C19_22  and  O20_23 
ROOT
HETATM    1  O1          0      48.033  40.644  37.917  1.00  0.00    -0.286 OA
HETATM    2  C2          0      49.083  40.570  38.612  1.00  0.00     0.201 C 
HETATM    3  C3          0      49.720  39.371  38.884  1.00  0.00     0.067 C 
HETATM    4  C4          0      50.816  39.305  39.737  1.00  0.00     0.103 C 
HETATM    5  O13         0      51.266  40.423  40.279  1.00  0.00    -0.307 OA
HETATM    6  C14         0      50.676  41.582  40.083  1.00  0.00     0.107 C 
HETATM    7  C15         0      50.879  42.659  40.934  1.00  0.00     0.049 C 
HETATM    8  C16         0      50.070  43.787  40.876  1.00  0.00     0.093 C 
HETATM    9  C18         0      49.453  44.004  39.650  1.00  0.00     0.048 C 
HETATM   10  C19         0      49.276  42.958  38.754  1.00  0.00     0.096 C 
HETATM   11  C21         0      49.728  41.707  39.074  1.00  0.00     0.084 C 
ENDROOT
BRANCH  10  12
HETATM   12  O20         0      48.305  43.068  37.763  1.00  0.00    -0.359 OA
HETATM   13  H20         0      48.022  42.274  37.327  1.00  0.00     0.218 HD
ENDBRANCH  10  12
BRANCH   4  14
HETATM   14  C5          0      51.045  38.040  40.437  1.00  0.00     0.025 C 
HETATM   15  C6          0      50.050  37.092  40.621  1.00  0.00     0.004 C 
HETATM   16  C7          0      50.409  35.752  40.516  1.00  0.00     0.026 C 
HETATM   17  C8          0      51.736  35.362  40.367  1.00  0.00     0.112 C 
HETATM   18  C10         0      52.666  36.286  40.823  1.00  0.00     0.112 C 
HETATM   19  C12         0      52.310  37.629  40.837  1.00  0.00     0.028 C 
BRANCH  17  20
HETATM   20  O9          0      52.066  34.239  39.629  1.00  0.00    -0.357 OA
HETATM   21  H9          0      52.956  34.009  39.387  1.00  0.00     0.218 HD
ENDBRANCH  17  20
BRANCH  18  22
HETATM   22  O11         0      53.990  35.873  40.873  1.00  0.00    -0.357 OA
HETATM   23  H11         0      54.477  35.890  40.057  1.00  0.00     0.218 HD
ENDBRANCH  18  22
ENDBRANCH   4  14
BRANCH   8  24
HETATM   24  O17         0      49.649  44.443  42.038  1.00  0.00    -0.359 OA
HETATM   25  H17         0      50.038  45.265  42.316  1.00  0.00     0.218 HD
ENDBRANCH   8  24
TORSDOF 5
ENDMDL
MODEL 5
REMARK VINA RESULT:      -6.2      3.541      5.478
REMARK  5 active torsions:
REMARK  status: ('A' for Active; 'I' for Inactive)
REMARK    1  A    between atoms: C4_4  and  C5_5 
REMARK    2  A    between atoms: C8_8  and  O9_9 
REMARK    3  A    between atoms: C10_11  and  O11_12 
REMARK    4  A    between atoms: C16_18  and  O17_19 
REMARK    5  A    between atoms: C19_22  and  O20_23 
ROOT
HETATM    1  O1          0      46.604  39.762  40.805  1.00  0.00    -0.286 OA
HETATM    2  C2          0      47.486  39.154  41.471  1.00  0.00     0.201 C 
HETATM    3  C3          0      48.828  39.169  41.128  1.00  0.00     0.067 C 
HETATM    4  C4          0      49.764  38.407  41.818  1.00  0.00     0.103 C 
HETATM    5  O13         0      49.357  37.671  42.837  1.00  0.00    -0.307 OA
HETATM    6  C14         0      48.090  37.592  43.181  1.00  0.00     0.107 C 
HETATM    7  C15         0      47.607  36.549  43.957  1.00  0.00     0.049 C 
HETATM    8  C16         0      46.243  36.330  44.103  1.00  0.00     0.093 C 
HETATM    9  C18         0      45.444  37.450  43.907  1.00  0.00     0.048 C 
HETATM   10  C19         0      45.914  38.532  43.175  1.00  0.00     0.096 C 
HETATM   11  C21         0      47.179  38.502  42.655  1.00  0.00     0.084 C 
ENDROOT
BRANCH  10  12
HETATM   12  O20         0      45.002  39.426  42.621  1.00  0.00    -0.359 OA
HETATM   13  H20         0      44.704  40.148  43.161  1.00  0.00     0.218 HD
ENDBRANCH  10  12
BRANCH   4  14
HETATM   14  C5          0      50.964  37.996  41.086  1.00  0.00     0.025 C 
HETATM   15  C6          0      52.115  38.769  41.034  1.00  0.00     0.004 C 
HETATM   16  C7          0      53.338  38.108  41.082  1.00  0.00     0.026 C 
HETATM   17  C8          0      53.419  36.720  41.047  1.00  0.00     0.112 C 
HETATM   18  C10         0      52.322  36.090  40.474  1.00  0.00     0.112 C 
HETATM   19  C12         0      51.092  36.737  40.516  1.00  0.00     0.028 C 
BRANCH  17  20
HETATM   20  O9          0      54.421  36.051  41.727  1.00  0.00    -0.357 OA
HETATM   21  H9          0      54.277  35.264  42.239  1.00  0.00     0.218 HD
ENDBRANCH  17  20
BRANCH  18  22
HETATM   22  O11         0      52.431  34.726  40.243  1.00  0.00    -0.357 OA
HETATM   23  H11         0      53.189  34.287  40.610  1.00  0.00     0.218 HD
ENDBRANCH  18  22
ENDBRANCH   4  14
BRANCH   8  24
HETATM   24  O17         0      45.708  35.037  44.107  1.00  0.00    -0.359 OA
HETATM   25  H17         0      46.217  34.287  44.392  1.00  0.00     0.218 HD
ENDBRANCH   8  24
TORSDOF 5
ENDMDL
MODEL 6
REMARK VINA RESULT:      -6.2      4.215      8.131
REMARK  5 active torsions:
REMARK  status: ('A' for Active; 'I' for Inactive)
REMARK    1  A    between atoms: C4_4  and  C5_5 
REMARK    2  A    between atoms: C8_8  and  O9_9 
REMARK    3  A    between atoms: C10_11  and  O11_12 
REMARK    4  A    between atoms: C16_18  and  O17_19 
REMARK    5  A    between atoms: C19_22  and  O20_23 
ROOT
HETATM    1  O1          0      51.905  38.947  42.285  1.00  0.00    -0.286 OA
HETATM    2  C2          0      50.840  38.283  42.149  1.00  0.00     0.201 C 
HETATM    3  C3          0      49.798  38.342  43.058  1.00  0.00     0.067 C 
HETATM    4  C4          0      48.680  37.524  42.938  1.00  0.00     0.103 C 
HETATM    5  O13         0      48.612  36.688  41.917  1.00  0.00    -0.307 OA
HETATM    6  C14         0      49.590  36.566  41.046  1.00  0.00     0.107 C 
HETATM    7  C15         0      49.710  35.448  40.234  1.00  0.00     0.049 C 
HETATM    8  C16         0      50.869  35.205  39.507  1.00  0.00     0.093 C 
HETATM    9  C18         0      51.628  36.333  39.218  1.00  0.00     0.048 C 
HETATM   10  C19         0      51.499  37.485  39.982  1.00  0.00     0.096 C 
HETATM   11  C21         0      50.605  37.516  41.018  1.00  0.00     0.084 C 
ENDROOT
BRANCH  10  12
HETATM   12  O20         0      52.528  38.422  39.980  1.00  0.00    -0.359 OA
HETATM   13  H20         0      53.060  38.500  40.762  1.00  0.00     0.218 HD
ENDBRANCH  10  12
BRANCH   4  14
HETATM   14  C5          0      47.956  37.196  44.167  1.00  0.00     0.025 C 
HETATM   15  C6          0      48.296  37.723  45.404  1.00  0.00     0.004 C 
HETATM   16  C7          0      47.260  38.059  46.269  1.00  0.00     0.026 C 
HETATM   17  C8          0      45.935  37.759  45.972  1.00  0.00     0.112 C 
HETATM   18  C10         0      45.765  36.713  45.074  1.00  0.00     0.112 C 
HETATM   19  C12         0      46.782  36.452  44.164  1.00  0.00     0.028 C 
BRANCH  17  20
HETATM   20  O9          0      44.909  38.590  46.386  1.00  0.00    -0.357 OA
HETATM   21  H9          0      44.901  39.042  47.222  1.00  0.00     0.218 HD
ENDBRANCH  17  20
BRANCH  18  22
HETATM   22  O11         0      44.471  36.249  44.888  1.00  0.00    -0.357 OA
HETATM   23  H11         0      44.375  35.375  44.527  1.00  0.00     0.218 HD
ENDBRANCH  18  22
ENDBRANCH   4  14
BRANCH   8  24
HETATM   24  O17         0      51.393  33.914  39.379  1.00  0.00    -0.359 OA
HETATM   25  H17         0      52.108  33.609  39.925  1.00  0.00     0.218 HD
ENDBRANCH   8  24
TORSDOF 5
ENDMDL
MODEL 7
REMARK VINA RESULT:      -6.2      3.213      6.277
REMARK  5 active torsions:
REMARK  status: ('A' for Active; 'I' for Inactive)
REMARK    1  A    between atoms: C4_4  and  C5_5 
REMARK    2  A    between atoms: C8_8  and  O9_9 
REMARK    3  A    between atoms: C10_11  and  O11_12 
REMARK    4  A    between atoms: C16_18  and  O17_19 
REMARK    5  A    between atoms: C19_22  and  O20_23 
ROOT
HETATM    1  O1          0      49.544  37.102  38.474  1.00  0.00    -0.286 OA
HETATM    2  C2          0      50.053  37.863  39.342  1.00  0.00     0.201 C 
HETATM    3  C3          0      49.663  39.181  39.505  1.00  0.00     0.067 C 
HETATM    4  C4          0      50.310  40.027  40.398  1.00  0.00     0.103 C 
HETATM    5  O13         0      51.307  39.546  41.120  1.00  0.00    -0.307 OA
HETATM    6  C14         0      51.741  38.313  40.978  1.00  0.00     0.107 C 
HETATM    7  C15         0      53.000  37.926  41.415  1.00  0.00     0.049 C 
HETATM    8  C16         0      53.550  36.706  41.040  1.00  0.00     0.093 C 
HETATM    9  C18         0      52.627  35.727  40.692  1.00  0.00     0.048 C 
HETATM   10  C19         0      51.344  36.077  40.295  1.00  0.00     0.096 C 
HETATM   11  C21         0      50.979  37.395  40.262  1.00  0.00     0.084 C 
ENDROOT
BRANCH  10  12
HETATM   12  O20         0      50.592  35.173  39.551  1.00  0.00    -0.359 OA
HETATM   13  H20         0      50.654  34.252  39.775  1.00  0.00     0.218 HD
ENDBRANCH  10  12
BRANCH   4  14
HETATM   14  C5          0      50.282  41.461  40.103  1.00  0.00     0.025 C 
HETATM   15  C6          0      49.926  41.967  38.861  1.00  0.00     0.004 C 
HETATM   16  C7          0      49.170  43.134  38.833  1.00  0.00     0.026 C 
HETATM   17  C8          0      48.890  43.850  39.992  1.00  0.00     0.112 C 
HETATM   18  C10         0      49.783  43.638  41.034  1.00  0.00     0.112 C 
HETATM   19  C12         0      50.463  42.427  41.085  1.00  0.00     0.028 C 
BRANCH  17  20
HETATM   20  O9          0      47.698  44.538  40.130  1.00  0.00    -0.357 OA
HETATM   21  H9          0      47.544  45.201  40.794  1.00  0.00     0.218 HD
ENDBRANCH  17  20
BRANCH  18  22
HETATM   22  O11         0      49.663  44.464  42.143  1.00  0.00    -0.357 OA
HETATM   23  H11         0      49.428  44.049  42.965  1.00  0.00     0.218 HD
ENDBRANCH  18  22
ENDBRANCH   4  14
BRANCH   8  24
HETATM   24  O17         0      54.906  36.587  40.714  1.00  0.00    -0.359 OA
HETATM   25  H17         0      55.497  37.330  40.760  1.00  0.00     0.218 HD
ENDBRANCH   8  24
TORSDOF 5
ENDMDL
MODEL 8
REMARK VINA RESULT:      -6.2      2.247      2.816
REMARK  5 active torsions:
REMARK  status: ('A' for Active; 'I' for Inactive)
REMARK    1  A    between atoms: C4_4  and  C5_5 
REMARK    2  A    between atoms: C8_8  and  O9_9 
REMARK    3  A    between atoms: C10_11  and  O11_12 
REMARK    4  A    between atoms: C16_18  and  O17_19 
REMARK    5  A    between atoms: C19_22  and  O20_23 
ROOT
HETATM    1  O1          0      49.874  39.954  38.537  1.00  0.00    -0.286 OA
HETATM    2  C2          0      50.980  39.933  39.143  1.00  0.00     0.201 C 
HETATM    3  C3          0      51.935  40.924  38.995  1.00  0.00     0.067 C 
HETATM    4  C4          0      53.186  40.825  39.594  1.00  0.00     0.103 C 
HETATM    5  O13         0      53.452  39.765  40.337  1.00  0.00    -0.307 OA
HETATM    6  C14         0      52.595  38.778  40.480  1.00  0.00     0.107 C 
HETATM    7  C15         0      52.993  37.519  40.905  1.00  0.00     0.049 C 
HETATM    8  C16         0      52.144  36.423  40.811  1.00  0.00     0.093 C 
HETATM    9  C18         0      50.789  36.731  40.793  1.00  0.00     0.048 C 
HETATM   10  C19         0      50.358  37.996  40.418  1.00  0.00     0.096 C 
HETATM   11  C21         0      51.275  38.953  40.079  1.00  0.00     0.084 C 
ENDROOT
BRANCH  10  12
HETATM   12  O20         0      49.046  38.167  39.986  1.00  0.00    -0.359 OA
HETATM   13  H20         0      48.839  38.950  39.490  1.00  0.00     0.218 HD
ENDBRANCH  10  12
BRANCH   4  14
HETATM   14  C5          0      54.295  41.530  38.949  1.00  0.00     0.025 C 
HETATM   15  C6          0      55.331  42.115  39.663  1.00  0.00     0.004 C 
HETATM   16  C7          0      56.612  42.027  39.128  1.00  0.00     0.026 C 
HETATM   17  C8          0      56.841  41.493  37.865  1.00  0.00     0.112 C 
HETATM   18  C10         0      55.745  41.533  37.012  1.00  0.00     0.112 C 
HETATM   19  C12         0      54.473  41.535  37.572  1.00  0.00     0.028 C 
BRANCH  17  20
HETATM   20  O9          0      58.004  40.798  37.588  1.00  0.00    -0.357 OA
HETATM   21  H9          0      58.253  40.511  36.717  1.00  0.00     0.218 HD
ENDBRANCH  17  20
BRANCH  18  22
HETATM   22  O11         0      55.968  41.190  35.686  1.00  0.00    -0.357 OA
HETATM   23  H11         0      56.799  41.453  35.308  1.00  0.00     0.218 HD
ENDBRANCH  18  22
ENDBRANCH   4  14
BRANCH   8  24
HETATM   24  O17         0      52.618  35.164  40.425  1.00  0.00    -0.359 OA
HETATM   25  H17         0      52.359  34.372  40.881  1.00  0.00     0.218 HD
ENDBRANCH   8  24
TORSDOF 5
ENDMDL
MODEL 9
REMARK VINA RESULT:      -6.0      4.286      7.047
REMARK  5 active torsions:
REMARK  status: ('A' for Active; 'I' for Inactive)
REMARK    1  A    between atoms: C4_4  and  C5_5 
REMARK    2  A    between atoms: C8_8  and  O9_9 
REMARK    3  A    between atoms: C10_11  and  O11_12 
REMARK    4  A    between atoms: C16_18  and  O17_19 
REMARK    5  A    between atoms: C19_22  and  O20_23 
ROOT
HETATM    1  O1          0      51.454  39.790  39.988  1.00  0.00    -0.286 OA
HETATM    2  C2          0      50.692  38.997  40.605  1.00  0.00     0.201 C 
HETATM    3  C3          0      50.184  39.270  41.864  1.00  0.00     0.067 C 
HETATM    4  C4          0      49.431  38.335  42.564  1.00  0.00     0.103 C 
HETATM    5  O13         0      49.183  37.167  41.999  1.00  0.00    -0.307 OA
HETATM    6  C14         0      49.673  36.842  40.822  1.00  0.00     0.107 C 
HETATM    7  C15         0      49.761  35.522  40.406  1.00  0.00     0.049 C 
HETATM    8  C16         0      50.503  35.165  39.287  1.00  0.00     0.093 C 
HETATM    9  C18         0      50.680  36.179  38.353  1.00  0.00     0.048 C 
HETATM   10  C19         0      50.553  37.511  38.725  1.00  0.00     0.096 C 
HETATM   11  C21         0      50.235  37.827  40.017  1.00  0.00     0.084 C 
ENDROOT
BRANCH  10  12
HETATM   12  O20         0      51.142  38.496  37.938  1.00  0.00    -0.359 OA
HETATM   13  H20         0      50.615  39.249  37.700  1.00  0.00     0.218 HD
ENDBRANCH  10  12
BRANCH   4  14
HETATM   14  C5          0      49.449  38.421  44.026  1.00  0.00     0.025 C 
HETATM   15  C6          0      50.259  39.310  44.717  1.00  0.00     0.004 C 
HETATM   16  C7          0      49.730  39.913  45.854  1.00  0.00     0.026 C 
HETATM   17  C8          0      48.490  39.546  46.365  1.00  0.00     0.112 C 
HETATM   18  C10         0      48.070  38.271  46.009  1.00  0.00     0.112 C 
HETATM   19  C12         0      48.549  37.726  44.823  1.00  0.00     0.028 C 
BRANCH  17  20
HETATM   20  O9          0      47.678  40.475  46.990  1.00  0.00    -0.357 OA
HETATM   21  H9          0      47.281  40.341  47.843  1.00  0.00     0.218 HD
ENDBRANCH  17  20
BRANCH  18  22
HETATM   22  O11         0      46.935  37.784  46.640  1.00  0.00    -0.357 OA
HETATM   23  H11         0      46.584  38.303  47.354  1.00  0.00     0.218 HD
ENDBRANCH  18  22
ENDBRANCH   4  14
BRANCH   8  24
HETATM   24  O17         0      51.282  34.003  39.268  1.00  0.00    -0.359 OA
HETATM   25  H17         0      51.650  33.637  40.063  1.00  0.00     0.218 HD
ENDBRANCH   8  24
TORSDOF 5
ENDMDL
