MODEL 1
REMARK VINA RESULT:      -6.5      0.000      0.000
REMARK  5 active torsions:
REMARK  status: ('A' for Active; 'I' for Inactive)
REMARK    1  A    between atoms: C4_4  and  C5_5 
REMARK    2  A    between atoms: C8_8  and  O9_9 
REMARK    3  A    between atoms: C10_11  and  O11_12 
REMARK    4  A    between atoms: C16_18  and  O17_19 
REMARK    5  A    between atoms: C19_22  and  O20_23 
ROOT
HETATM    1  O1          0      44.692  45.842 -10.690  1.00  0.00    -0.286 OA
HETATM    2  C2          0      44.680  46.256 -11.882  1.00  0.00     0.201 C 
HETATM    3  C3          0      44.249  45.478 -12.943  1.00  0.00     0.067 C 
HETATM    4  C4          0      44.344  45.922 -14.257  1.00  0.00     0.103 C 
HETATM    5  O13         0      44.839  47.125 -14.487  1.00  0.00    -0.307 OA
HETATM    6  C14         0      45.297  47.889 -13.520  1.00  0.00     0.107 C 
HETATM    7  C15         0      46.163  48.944 -13.769  1.00  0.00     0.049 C 
HETATM    8  C16         0      46.840  49.582 -12.737  1.00  0.00     0.093 C 
HETATM    9  C18         0      46.231  49.489 -11.491  1.00  0.00     0.048 C 
HETATM   10  C19         0      45.325  48.473 -11.222  1.00  0.00     0.096 C 
HETATM   11  C21         0      45.015  47.565 -12.197  1.00  0.00     0.084 C 
ENDROOT
BRANCH  10  12
HETATM   12  O20         0      45.064  48.126  -9.900  1.00  0.00    -0.359 OA
HETATM   13  H20         0      45.714  47.609  -9.439  1.00  0.00     0.218 HD
ENDBRANCH  10  12
BRANCH   4  14
HETATM   14  C5          0      44.455  44.902 -15.302  1.00  0.00     0.025 C 
HETATM   15  C6          0      43.361  44.201 -15.788  1.00  0.00     0.004 C 
HETATM   16  C7          0      43.328  43.923 -17.151  1.00  0.00     0.026 C 
HETATM   17  C8          0      44.406  44.211 -17.981  1.00  0.00     0.112 C 
HETATM   18  C10         0      45.630  44.303 -17.330  1.00  0.00     0.112 C 
HETATM   19  C12         0      45.639  44.667 -15.989  1.00  0.00     0.028 C 
BRANCH  17  20
HETATM   20  O9          0      44.207  44.580 -19.299  1.00  0.00    -0.357 OA
HETATM   21  H9          0      43.938  43.975 -19.982  1.00  0.00     0.218 HD
ENDBRANCH  17  20
BRANCH  18  22
HETATM   22  O11         0      46.760  44.401 -18.129  1.00  0.00    -0.357 OA
HETATM   23  H11         0      46.638  44.281 -19.064  1.00  0.00     0.218 HD
ENDBRANCH  18  22
ENDBRANCH   4  14
BRANCH   8  24
HETATM   24  O17         0      48.174  49.981 -12.876  1.00  0.00    -0.359 OA
HETATM   25  H17         0      48.674  50.317 -12.142  1.00  0.00     0.218 HD
ENDBRANCH   8  24
TORSDOF 5
ENDMDL
MODEL 2
REMARK VINA RESULT:      -6.2      2.731      6.238
REMARK  5 active torsions:
REMARK  status: ('A' for Active; 'I' for Inactive)
REMARK    1  A    between atoms: C4_4  and  C5_5 
REMARK    2  A    between atoms: C8_8  and  O9_9 
REMARK    3  A    between atoms: C10_11  and  O11_12 
REMARK    4  A    between atoms: C16_18  and  O17_19 
REMARK    5  A    between atoms: C19_22  and  O20_23 
ROOT
HETATM    1  O1          0      43.713  43.906 -15.623  1.00  0.00    -0.286 OA
HETATM    2  C2          0      44.110  44.254 -14.477  1.00  0.00     0.201 C 
HETATM    3  C3          0      43.995  45.551 -14.005  1.00  0.00     0.067 C 
HETATM    4  C4          0      44.532  45.930 -12.780  1.00  0.00     0.103 C 
HETATM    5  O13         0      45.147  45.019 -12.048  1.00  0.00    -0.307 OA
HETATM    6  C14         0      45.317  43.784 -12.465  1.00  0.00     0.107 C 
HETATM    7  C15         0      46.278  42.951 -11.912  1.00  0.00     0.049 C 
HETATM    8  C16         0      46.626  41.749 -12.517  1.00  0.00     0.093 C 
HETATM    9  C18         0      45.646  41.198 -13.334  1.00  0.00     0.048 C 
HETATM   10  C19         0      44.642  41.994 -13.866  1.00  0.00     0.096 C 
HETATM   11  C21         0      44.606  43.330 -13.571  1.00  0.00     0.084 C 
ENDROOT
BRANCH  10  12
HETATM   12  O20         0      43.951  41.556 -14.992  1.00  0.00    -0.359 OA
HETATM   13  H20         0      44.070  42.036 -15.802  1.00  0.00     0.218 HD
ENDBRANCH  10  12
BRANCH   4  14
HETATM   14  C5          0      44.910  47.336 -12.622  1.00  0.00     0.025 C 
HETATM   15  C6          0      45.304  47.876 -11.406  1.00  0.00     0.004 C 
HETATM   16  C7          0      46.332  48.813 -11.420  1.00  0.00     0.026 C 
HETATM   17  C8          0      46.861  49.298 -12.611  1.00  0.00     0.112 C 
HETATM   18  C10         0      46.012  49.197 -13.706  1.00  0.00     0.112 C 
HETATM   19  C12         0      45.048  48.196 -13.703  1.00  0.00     0.028 C 
BRANCH  17  20
HETATM   20  O9          0      48.197  49.646 -12.705  1.00  0.00    -0.357 OA
HETATM   21  H9          0      48.852  49.113 -13.140  1.00  0.00     0.218 HD
ENDBRANCH  17  20
BRANCH  18  22
HETATM   22  O11         0      46.412  49.834 -14.872  1.00  0.00    -0.357 OA
HETATM   23  H11         0      46.921  50.631 -14.774  1.00  0.00     0.218 HD
ENDBRANCH  18  22
ENDBRANCH   4  14
BRANCH   8  24
HETATM   24  O17         0      47.956  41.317 -12.569  1.00  0.00    -0.359 OA
HETATM   25  H17         0      48.352  40.833 -11.854  1.00  0.00     0.218 HD
ENDBRANCH   8  24
TORSDOF 5
ENDMDL
MODEL 3
REMARK VINA RESULT:      -6.1      1.622      2.107
REMARK  5 active torsions:
REMARK  status: ('A' for Active; 'I' for Inactive)
REMARK    1  A    between atoms: C4_4  and  C5_5 
REMARK    2  A    between atoms: C8_8  and  O9_9 
REMARK    3  A    between atoms: C10_11  and  O11_12 
REMARK    4  A    between atoms: C16_18  and  O17_19 
REMARK    5  A    between atoms: C19_22  and  O20_23 
ROOT
HETATM    1  O1          0      45.007  45.644 -10.728  1.00  0.00    -0.286 OA
HETATM    2  C2          0      44.794  46.124 -11.875  1.00  0.00     0.201 C 
HETATM    3  C3          0      44.207  45.395 -12.896  1.00  0.00     0.067 C 
HETATM    4  C4          0      44.078  45.914 -14.179  1.00  0.00     0.103 C 
HETATM    5  O13         0      44.511  47.140 -14.415  1.00  0.00    -0.307 OA
HETATM    6  C14         0      45.109  47.860 -13.492  1.00  0.00     0.107 C 
HETATM    7  C15         0      45.905  48.949 -13.816  1.00  0.00     0.049 C 
HETATM    8  C16         0      46.731  49.545 -12.871  1.00  0.00     0.093 C 
HETATM    9  C18         0      46.337  49.368 -11.551  1.00  0.00     0.048 C 
HETATM   10  C19         0      45.502  48.316 -11.199  1.00  0.00     0.096 C 
HETATM   11  C21         0      45.051  47.456 -12.163  1.00  0.00     0.084 C 
ENDROOT
BRANCH  10  12
HETATM   12  O20         0      45.467  47.889  -9.875  1.00  0.00    -0.359 OA
HETATM   13  H20         0      46.013  47.151  -9.631  1.00  0.00     0.218 HD
ENDBRANCH  10  12
BRANCH   4  14
HETATM   14  C5          0      44.033  44.957 -15.287  1.00  0.00     0.025 C 
HETATM   15  C6          0      45.175  44.436 -15.877  1.00  0.00     0.004 C 
HETATM   16  C7          0      45.151  43.098 -16.259  1.00  0.00     0.026 C 
HETATM   17  C8          0      43.989  42.339 -16.181  1.00  0.00     0.112 C 
HETATM   18  C10         0      42.812  43.076 -16.195  1.00  0.00     0.112 C 
HETATM   19  C12         0      42.847  44.384 -15.728  1.00  0.00     0.028 C 
BRANCH  17  20
HETATM   20  O9          0      44.044  40.985 -15.898  1.00  0.00    -0.357 OA
HETATM   21  H9          0      43.347  40.374 -16.105  1.00  0.00     0.218 HD
ENDBRANCH  17  20
BRANCH  18  22
HETATM   22  O11         0      41.626  42.365 -16.310  1.00  0.00    -0.357 OA
HETATM   23  H11         0      41.594  41.687 -16.976  1.00  0.00     0.218 HD
ENDBRANCH  18  22
ENDBRANCH   4  14
BRANCH   8  24
HETATM   24  O17         0      48.018  49.985 -13.202  1.00  0.00    -0.359 OA
HETATM   25  H17         0      48.603  49.461 -13.736  1.00  0.00     0.218 HD
ENDBRANCH   8  24
TORSDOF 5
ENDMDL
MODEL 4
REMARK VINA RESULT:      -5.7      3.071      6.560
REMARK  5 active torsions:
REMARK  status: ('A' for Active; 'I' for Inactive)
REMARK    1  A    between atoms: C4_4  and  C5_5 
REMARK    2  A    between atoms: C8_8  and  O9_9 
REMARK    3  A    between atoms: C10_11  and  O11_12 
REMARK    4  A    between atoms: C16_18  and  O17_19 
REMARK    5  A    between atoms: C19_22  and  O20_23 
ROOT
HETATM    1  O1          0      47.943  44.558 -16.076  1.00  0.00    -0.286 OA
HETATM    2  C2          0      47.192  44.398 -15.075  1.00  0.00     0.201 C 
HETATM    3  C3          0      46.229  45.320 -14.703  1.00  0.00     0.067 C 
HETATM    4  C4          0      45.486  45.169 -13.538  1.00  0.00     0.103 C 
HETATM    5  O13         0      45.698  44.104 -12.784  1.00  0.00    -0.307 OA
HETATM    6  C14         0      46.626  43.218 -13.071  1.00  0.00     0.107 C 
HETATM    7  C15         0      47.123  42.344 -12.115  1.00  0.00     0.049 C 
HETATM    8  C16         0      48.268  41.593 -12.349  1.00  0.00     0.093 C 
HETATM    9  C18         0      48.551  41.357 -13.689  1.00  0.00     0.048 C 
HETATM   10  C19         0      48.032  42.184 -14.676  1.00  0.00     0.096 C 
HETATM   11  C21         0      47.221  43.230 -14.328  1.00  0.00     0.084 C 
ENDROOT
BRANCH  10  12
HETATM   12  O20         0      48.645  42.221 -15.925  1.00  0.00    -0.359 OA
HETATM   13  H20         0      49.207  42.961 -16.123  1.00  0.00     0.218 HD
ENDBRANCH  10  12
BRANCH   4  14
HETATM   14  C5          0      44.970  46.386 -12.910  1.00  0.00     0.025 C 
HETATM   15  C6          0      44.672  46.466 -11.557  1.00  0.00     0.004 C 
HETATM   16  C7          0      44.974  47.654 -10.900  1.00  0.00     0.026 C 
HETATM   17  C8          0      45.432  48.773 -11.588  1.00  0.00     0.112 C 
HETATM   18  C10         0      45.096  48.802 -12.935  1.00  0.00     0.112 C 
HETATM   19  C12         0      44.882  47.595 -13.589  1.00  0.00     0.028 C 
BRANCH  17  20
HETATM   20  O9          0      46.324  49.652 -11.000  1.00  0.00    -0.357 OA
HETATM   21  H9          0      46.865  49.432 -10.250  1.00  0.00     0.218 HD
ENDBRANCH  17  20
BRANCH  18  22
HETATM   22  O11         0      45.361  49.977 -13.623  1.00  0.00    -0.357 OA
HETATM   23  H11         0      44.613  50.504 -13.880  1.00  0.00     0.218 HD
ENDBRANCH  18  22
ENDBRANCH   4  14
BRANCH   8  24
HETATM   24  O17         0      49.224  41.389 -11.348  1.00  0.00    -0.359 OA
HETATM   25  H17         0      49.388  40.528 -10.983  1.00  0.00     0.218 HD
ENDBRANCH   8  24
TORSDOF 5
ENDMDL
MODEL 5
REMARK VINA RESULT:      -5.6      2.667      6.418
REMARK  5 active torsions:
REMARK  status: ('A' for Active; 'I' for Inactive)
REMARK    1  A    between atoms: C4_4  and  C5_5 
REMARK    2  A    between atoms: C8_8  and  O9_9 
REMARK    3  A    between atoms: C10_11  and  O11_12 
REMARK    4  A    between atoms: C16_18  and  O17_19 
REMARK    5  A    between atoms: C19_22  and  O20_23 
ROOT
HETATM    1  O1          0      45.477  42.454 -12.736  1.00  0.00    -0.286 OA
HETATM    2  C2          0      44.957  43.390 -13.404  1.00  0.00     0.201 C 
HETATM    3  C3          0      45.461  44.680 -13.406  1.00  0.00     0.067 C 
HETATM    4  C4          0      44.810  45.715 -14.068  1.00  0.00     0.103 C 
HETATM    5  O13         0      43.695  45.447 -14.723  1.00  0.00    -0.307 OA
HETATM    6  C14         0      43.154  44.249 -14.722  1.00  0.00     0.107 C 
HETATM    7  C15         0      41.821  44.048 -15.050  1.00  0.00     0.049 C 
HETATM    8  C16         0      41.191  42.834 -14.804  1.00  0.00     0.093 C 
HETATM    9  C18         0      42.041  41.736 -14.733  1.00  0.00     0.048 C 
HETATM   10  C19         0      43.390  41.905 -14.452  1.00  0.00     0.096 C 
HETATM   11  C21         0      43.891  43.163 -14.260  1.00  0.00     0.084 C 
ENDROOT
BRANCH  10  12
HETATM   12  O20         0      44.122  40.829 -13.960  1.00  0.00    -0.359 OA
HETATM   13  H20         0      43.813  39.953 -14.157  1.00  0.00     0.218 HD
ENDBRANCH  10  12
BRANCH   4  14
HETATM   14  C5          0      45.020  47.072 -13.558  1.00  0.00     0.025 C 
HETATM   15  C6          0      45.167  47.354 -12.208  1.00  0.00     0.004 C 
HETATM   16  C7          0      46.089  48.333 -11.851  1.00  0.00     0.026 C 
HETATM   17  C8          0      46.744  49.101 -12.807  1.00  0.00     0.112 C 
HETATM   18  C10         0      46.088  49.191 -14.028  1.00  0.00     0.112 C 
HETATM   19  C12         0      45.238  48.156 -14.398  1.00  0.00     0.028 C 
BRANCH  17  20
HETATM   20  O9          0      48.038  49.544 -12.596  1.00  0.00    -0.357 OA
HETATM   21  H9          0      48.703  49.035 -12.147  1.00  0.00     0.218 HD
ENDBRANCH  17  20
BRANCH  18  22
HETATM   22  O11         0      46.599  50.093 -14.950  1.00  0.00    -0.357 OA
HETATM   23  H11         0      47.521  50.311 -14.874  1.00  0.00     0.218 HD
ENDBRANCH  18  22
ENDBRANCH   4  14
BRANCH   8  24
HETATM   24  O17         0      39.875  42.777 -14.332  1.00  0.00    -0.359 OA
HETATM   25  H17         0      39.310  42.036 -14.517  1.00  0.00     0.218 HD
ENDBRANCH   8  24
TORSDOF 5
ENDMDL
MODEL 6
REMARK VINA RESULT:      -5.4      2.117      3.162
REMARK  5 active torsions:
REMARK  status: ('A' for Active; 'I' for Inactive)
REMARK    1  A    between atoms: C4_4  and  C5_5 
REMARK    2  A    between atoms: C8_8  and  O9_9 
REMARK    3  A    between atoms: C10_11  and  O11_12 
REMARK    4  A    between atoms: C16_18  and  O17_19 
REMARK    5  A    between atoms: C19_22  and  O20_23 
ROOT
HETATM    1  O1          0      44.922  43.467 -12.433  1.00  0.00    -0.286 OA
HETATM    2  C2          0      44.203  43.963 -13.344  1.00  0.00     0.201 C 
HETATM    3  C3          0      43.423  43.192 -14.188  1.00  0.00     0.067 C 
HETATM    4  C4          0      42.721  43.754 -15.248  1.00  0.00     0.103 C 
HETATM    5  O13         0      42.791  45.060 -15.434  1.00  0.00    -0.307 OA
HETATM    6  C14         0      43.546  45.833 -14.685  1.00  0.00     0.107 C 
HETATM    7  C15         0      43.938  47.098 -15.101  1.00  0.00     0.049 C 
HETATM    8  C16         0      44.931  47.802 -14.432  1.00  0.00     0.093 C 
HETATM    9  C18         0      45.108  47.447 -13.101  1.00  0.00     0.048 C 
HETATM   10  C19         0      44.686  46.207 -12.639  1.00  0.00     0.096 C 
HETATM   11  C21         0      44.075  45.335 -13.499  1.00  0.00     0.084 C 
ENDROOT
BRANCH  10  12
HETATM   12  O20         0      45.237  45.692 -11.470  1.00  0.00    -0.359 OA
HETATM   13  H20         0      44.659  45.554 -10.729  1.00  0.00     0.218 HD
ENDBRANCH  10  12
BRANCH   4  14
HETATM   14  C5          0      42.442  42.892 -16.398  1.00  0.00     0.025 C 
HETATM   15  C6          0      41.248  42.204 -16.550  1.00  0.00     0.004 C 
HETATM   16  C7          0      40.715  42.110 -17.832  1.00  0.00     0.026 C 
HETATM   17  C8          0      41.411  42.568 -18.946  1.00  0.00     0.112 C 
HETATM   18  C10         0      42.788  42.640 -18.780  1.00  0.00     0.112 C 
HETATM   19  C12         0      43.290  42.819 -17.496  1.00  0.00     0.028 C 
BRANCH  17  20
HETATM   20  O9          0      40.740  43.100 -20.032  1.00  0.00    -0.357 OA
HETATM   21  H9          0      40.822  44.004 -20.313  1.00  0.00     0.218 HD
ENDBRANCH  17  20
BRANCH  18  22
HETATM   22  O11         0      43.544  42.907 -19.912  1.00  0.00    -0.357 OA
HETATM   23  H11         0      44.167  43.623 -19.854  1.00  0.00     0.218 HD
ENDBRANCH  18  22
ENDBRANCH   4  14
BRANCH   8  24
HETATM   24  O17         0      45.888  48.551 -15.127  1.00  0.00    -0.359 OA
HETATM   25  H17         0      46.716  48.794 -14.730  1.00  0.00     0.218 HD
ENDBRANCH   8  24
TORSDOF 5
ENDMDL
MODEL 7
REMARK VINA RESULT:      -5.2      4.069      6.505
REMARK  5 active torsions:
REMARK  status: ('A' for Active; 'I' for Inactive)
REMARK    1  A    between atoms: C4_4  and  C5_5 
REMARK    2  A    between atoms: C8_8  and  O9_9 
REMARK    3  A    between atoms: C10_11  and  O11_12 
REMARK    4  A    between atoms: C16_18  and  O17_19 
REMARK    5  A    between atoms: C19_22  and  O20_23 
ROOT
HETATM    1  O1          0      50.528  44.503 -15.945  1.00  0.00    -0.286 OA
HETATM    2  C2          0      49.466  44.128 -15.376  1.00  0.00     0.201 C 
HETATM    3  C3          0      48.240  44.730 -15.602  1.00  0.00     0.067 C 
HETATM    4  C4          0      47.106  44.365 -14.886  1.00  0.00     0.103 C 
HETATM    5  O13         0      47.206  43.404 -13.985  1.00  0.00    -0.307 OA
HETATM    6  C14         0      48.353  42.825 -13.704  1.00  0.00     0.107 C 
HETATM    7  C15         0      48.551  42.129 -12.521  1.00  0.00     0.049 C 
HETATM    8  C16         0      49.822  41.742 -12.115  1.00  0.00     0.093 C 
HETATM    9  C18         0      50.749  41.604 -13.141  1.00  0.00     0.048 C 
HETATM   10  C19         0      50.559  42.250 -14.355  1.00  0.00     0.096 C 
HETATM   11  C21         0      49.441  43.015 -14.549  1.00  0.00     0.084 C 
ENDROOT
BRANCH  10  12
HETATM   12  O20         0      51.652  42.469 -15.188  1.00  0.00    -0.359 OA
HETATM   13  H20         0      51.708  41.965 -15.991  1.00  0.00     0.218 HD
ENDBRANCH  10  12
BRANCH   4  14
HETATM   14  C5          0      46.061  45.378 -14.723  1.00  0.00     0.025 C 
HETATM   15  C6          0      44.982  45.214 -13.868  1.00  0.00     0.004 C 
HETATM   16  C7          0      44.543  46.331 -13.163  1.00  0.00     0.026 C 
HETATM   17  C8          0      45.070  47.596 -13.398  1.00  0.00     0.112 C 
HETATM   18  C10         0      45.644  47.760 -14.652  1.00  0.00     0.112 C 
HETATM   19  C12         0      46.152  46.639 -15.298  1.00  0.00     0.028 C 
BRANCH  17  20
HETATM   20  O9          0      45.187  48.518 -12.373  1.00  0.00    -0.357 OA
HETATM   21  H9          0      46.016  48.777 -11.988  1.00  0.00     0.218 HD
ENDBRANCH  17  20
BRANCH  18  22
HETATM   22  O11         0      46.014  49.049 -15.009  1.00  0.00    -0.357 OA
HETATM   23  H11         0      45.333  49.711 -14.998  1.00  0.00     0.218 HD
ENDBRANCH  18  22
ENDBRANCH   4  14
BRANCH   8  24
HETATM   24  O17         0      50.215  41.820 -10.774  1.00  0.00    -0.359 OA
HETATM   25  H17         0      50.914  42.397 -10.491  1.00  0.00     0.218 HD
ENDBRANCH   8  24
TORSDOF 5
ENDMDL
MODEL 8
REMARK VINA RESULT:      -5.2      2.394      6.399
REMARK  5 active torsions:
REMARK  status: ('A' for Active; 'I' for Inactive)
REMARK    1  A    between atoms: C4_4  and  C5_5 
REMARK    2  A    between atoms: C8_8  and  O9_9 
REMARK    3  A    between atoms: C10_11  and  O11_12 
REMARK    4  A    between atoms: C16_18  and  O17_19 
REMARK    5  A    between atoms: C19_22  and  O20_23 
ROOT
HETATM    1  O1          0      45.767  44.591 -18.241  1.00  0.00    -0.286 OA
HETATM    2  C2          0      46.131  44.630 -17.033  1.00  0.00     0.201 C 
HETATM    3  C3          0      45.297  45.052 -16.012  1.00  0.00     0.067 C 
HETATM    4  C4          0      45.754  45.184 -14.706  1.00  0.00     0.103 C 
HETATM    5  O13         0      47.012  44.877 -14.439  1.00  0.00    -0.307 OA
HETATM    6  C14         0      47.855  44.507 -15.378  1.00  0.00     0.107 C 
HETATM    7  C15         0      49.229  44.572 -15.194  1.00  0.00     0.049 C 
HETATM    8  C16         0      50.108  44.427 -16.260  1.00  0.00     0.093 C 
HETATM    9  C18         0      49.606  43.713 -17.342  1.00  0.00     0.048 C 
HETATM   10  C19         0      48.236  43.588 -17.530  1.00  0.00     0.096 C 
HETATM   11  C21         0      47.373  44.159 -16.635  1.00  0.00     0.084 C 
ENDROOT
BRANCH  10  12
HETATM   12  O20         0      47.749  43.271 -18.795  1.00  0.00    -0.359 OA
HETATM   13  H20         0      48.372  43.212 -19.509  1.00  0.00     0.218 HD
ENDBRANCH  10  12
BRANCH   4  14
HETATM   14  C5          0      45.070  46.157 -13.851  1.00  0.00     0.025 C 
HETATM   15  C6          0      44.642  45.858 -12.566  1.00  0.00     0.004 C 
HETATM   16  C7          0      44.769  46.849 -11.598  1.00  0.00     0.026 C 
HETATM   17  C8          0      45.182  48.137 -11.922  1.00  0.00     0.112 C 
HETATM   18  C10         0      44.970  48.497 -13.247  1.00  0.00     0.112 C 
HETATM   19  C12         0      44.933  47.492 -14.206  1.00  0.00     0.028 C 
BRANCH  17  20
HETATM   20  O9          0      45.929  48.888 -11.032  1.00  0.00    -0.357 OA
HETATM   21  H9          0      46.547  48.514 -10.415  1.00  0.00     0.218 HD
ENDBRANCH  17  20
BRANCH  18  22
HETATM   22  O11         0      45.187  49.827 -13.579  1.00  0.00    -0.357 OA
HETATM   23  H11         0      45.897  50.009 -14.183  1.00  0.00     0.218 HD
ENDBRANCH  18  22
ENDBRANCH   4  14
BRANCH   8  24
HETATM   24  O17         0      51.258  45.217 -16.370  1.00  0.00    -0.359 OA
HETATM   25  H17         0      51.302  45.954 -16.968  1.00  0.00     0.218 HD
ENDBRANCH   8  24
TORSDOF 5
ENDMDL
MODEL 9
REMARK VINA RESULT:      -5.2     10.310     12.006
REMARK  5 active torsions:
REMARK  status: ('A' for Active; 'I' for Inactive)
REMARK    1  A    between atoms: C4_4  and  C5_5 
REMARK    2  A    between atoms: C8_8  and  O9_9 
REMARK    3  A    between atoms: C10_11  and  O11_12 
REMARK    4  A    between atoms: C16_18  and  O17_19 
REMARK    5  A    between atoms: C19_22  and  O20_23 
ROOT
HETATM    1  O1          0      54.933  55.138 -11.148  1.00  0.00    -0.286 OA
HETATM    2  C2          0      54.595  53.981 -11.523  1.00  0.00     0.201 C 
HETATM    3  C3          0      55.229  52.834 -11.079  1.00  0.00     0.067 C 
HETATM    4  C4          0      54.906  51.580 -11.586  1.00  0.00     0.103 C 
HETATM    5  O13         0      53.955  51.491 -12.499  1.00  0.00    -0.307 OA
HETATM    6  C14         0      53.347  52.552 -12.982  1.00  0.00     0.107 C 
HETATM    7  C15         0      52.661  52.516 -14.187  1.00  0.00     0.049 C 
HETATM    8  C16         0      52.244  53.684 -14.815  1.00  0.00     0.093 C 
HETATM    9  C18         0      52.066  54.773 -13.970  1.00  0.00     0.048 C 
HETATM   10  C19         0      52.701  54.820 -12.737  1.00  0.00     0.096 C 
HETATM   11  C21         0      53.495  53.778 -12.341  1.00  0.00     0.084 C 
ENDROOT
BRANCH  10  12
HETATM   12  O20         0      52.878  56.049 -12.108  1.00  0.00    -0.359 OA
HETATM   13  H20         0      52.129  56.437 -11.671  1.00  0.00     0.218 HD
ENDBRANCH  10  12
BRANCH   4  14
HETATM   14  C5          0      55.950  50.555 -11.553  1.00  0.00     0.025 C 
HETATM   15  C6          0      56.939  50.519 -10.581  1.00  0.00     0.004 C 
HETATM   16  C7          0      57.331  49.271 -10.105  1.00  0.00     0.026 C 
HETATM   17  C8          0      56.855  48.093 -10.671  1.00  0.00     0.112 C 
HETATM   18  C10         0      56.407  48.217 -11.979  1.00  0.00     0.112 C 
HETATM   19  C12         0      55.942  49.456 -12.403  1.00  0.00     0.028 C 
BRANCH  17  20
HETATM   20  O9          0      56.659  46.964  -9.896  1.00  0.00    -0.357 OA
HETATM   21  H9          0      57.147  46.777  -9.102  1.00  0.00     0.218 HD
ENDBRANCH  17  20
BRANCH  18  22
HETATM   22  O11         0      56.100  47.043 -12.652  1.00  0.00    -0.357 OA
HETATM   23  H11         0      56.824  46.463 -12.857  1.00  0.00     0.218 HD
ENDBRANCH  18  22
ENDBRANCH   4  14
BRANCH   8  24
HETATM   24  O17         0      52.328  53.836 -16.203  1.00  0.00    -0.359 OA
HETATM   25  H17         0      53.155  54.007 -16.638  1.00  0.00     0.218 HD
ENDBRANCH   8  24
TORSDOF 5
ENDMDL
