MODEL 1
REMARK VINA RESULT:      -7.6      0.000      0.000
REMARK  5 active torsions:
REMARK  status: ('A' for Active; 'I' for Inactive)
REMARK    1  A    between atoms: C4_4  and  C5_5 
REMARK    2  A    between atoms: C8_8  and  O9_9 
REMARK    3  A    between atoms: C10_11  and  O11_12 
REMARK    4  A    between atoms: C16_18  and  O17_19 
REMARK    5  A    between atoms: C19_22  and  O20_23 
ROOT
HETATM    1  O1          0      26.687  66.280  -0.841  1.00  0.00    -0.286 OA
HETATM    2  C2          0      25.577  65.859  -1.268  1.00  0.00     0.201 C 
HETATM    3  C3          0      25.409  65.346  -2.543  1.00  0.00     0.067 C 
HETATM    4  C4          0      24.156  64.985  -3.024  1.00  0.00     0.103 C 
HETATM    5  O13         0      23.109  65.118  -2.230  1.00  0.00    -0.307 OA
HETATM    6  C14         0      23.207  65.634  -1.024  1.00  0.00     0.107 C 
HETATM    7  C15         0      22.103  66.141  -0.354  1.00  0.00     0.049 C 
HETATM    8  C16         0      22.247  66.907   0.797  1.00  0.00     0.093 C 
HETATM    9  C18         0      23.423  66.690   1.503  1.00  0.00     0.048 C 
HETATM   10  C19         0      24.533  66.140   0.875  1.00  0.00     0.096 C 
HETATM   11  C21         0      24.462  65.794  -0.447  1.00  0.00     0.084 C 
ENDROOT
BRANCH  10  12
HETATM   12  O20         0      25.793  66.327   1.434  1.00  0.00    -0.359 OA
HETATM   13  H20         0      25.968  65.931   2.280  1.00  0.00     0.218 HD
ENDBRANCH  10  12
BRANCH   4  14
HETATM   14  C5          0      23.953  65.040  -4.473  1.00  0.00     0.025 C 
HETATM   15  C6          0      22.734  65.366  -5.050  1.00  0.00     0.004 C 
HETATM   16  C7          0      22.755  66.151  -6.199  1.00  0.00     0.026 C 
HETATM   17  C8          0      23.946  66.488  -6.831  1.00  0.00     0.112 C 
HETATM   18  C10         0      25.004  65.626  -6.572  1.00  0.00     0.112 C 
HETATM   19  C12         0      25.001  64.917  -5.377  1.00  0.00     0.028 C 
BRANCH  17  20
HETATM   20  O9          0      24.086  67.701  -7.481  1.00  0.00    -0.357 OA
HETATM   21  H9          0      23.505  68.000  -8.171  1.00  0.00     0.218 HD
ENDBRANCH  17  20
BRANCH  18  22
HETATM   22  O11         0      26.158  65.804  -7.322  1.00  0.00    -0.357 OA
HETATM   23  H11         0      26.150  66.505  -7.963  1.00  0.00     0.218 HD
ENDBRANCH  18  22
ENDBRANCH   4  14
BRANCH   8  24
HETATM   24  O17         0      21.445  68.031   1.029  1.00  0.00    -0.359 OA
HETATM   25  H17         0      21.756  68.768   1.540  1.00  0.00     0.218 HD
ENDBRANCH   8  24
TORSDOF 5
ENDMDL
MODEL 2
REMARK VINA RESULT:      -7.2      1.845      6.930
REMARK  5 active torsions:
REMARK  status: ('A' for Active; 'I' for Inactive)
REMARK    1  A    between atoms: C4_4  and  C5_5 
REMARK    2  A    between atoms: C8_8  and  O9_9 
REMARK    3  A    between atoms: C10_11  and  O11_12 
REMARK    4  A    between atoms: C16_18  and  O17_19 
REMARK    5  A    between atoms: C19_22  and  O20_23 
ROOT
HETATM    1  O1          0      21.354  68.717  -4.916  1.00  0.00    -0.286 OA
HETATM    2  C2          0      21.743  67.749  -4.206  1.00  0.00     0.201 C 
HETATM    3  C3          0      21.424  67.626  -2.864  1.00  0.00     0.067 C 
HETATM    4  C4          0      21.950  66.605  -2.081  1.00  0.00     0.103 C 
HETATM    5  O13         0      22.757  65.724  -2.645  1.00  0.00    -0.307 OA
HETATM    6  C14         0      23.122  65.816  -3.905  1.00  0.00     0.107 C 
HETATM    7  C15         0      24.245  65.163  -4.390  1.00  0.00     0.049 C 
HETATM    8  C16         0      24.769  65.462  -5.642  1.00  0.00     0.093 C 
HETATM    9  C18         0      23.861  66.001  -6.545  1.00  0.00     0.048 C 
HETATM   10  C19         0      22.703  66.621  -6.095  1.00  0.00     0.096 C 
HETATM   11  C21         0      22.445  66.686  -4.753  1.00  0.00     0.084 C 
ENDROOT
BRANCH  10  12
HETATM   12  O20         0      22.042  67.516  -6.931  1.00  0.00    -0.359 OA
HETATM   13  H20         0      21.152  67.760  -6.707  1.00  0.00     0.218 HD
ENDBRANCH  10  12
BRANCH   4  14
HETATM   14  C5          0      22.078  66.861  -0.645  1.00  0.00     0.025 C 
HETATM   15  C6          0      23.152  66.406   0.106  1.00  0.00     0.004 C 
HETATM   16  C7          0      23.646  67.246   1.099  1.00  0.00     0.026 C 
HETATM   17  C8          0      23.012  68.440   1.425  1.00  0.00     0.112 C 
HETATM   18  C10         0      21.665  68.492   1.094  1.00  0.00     0.112 C 
HETATM   19  C12         0      21.214  67.704   0.041  1.00  0.00     0.028 C 
BRANCH  17  20
HETATM   20  O9          0      23.742  69.538   1.847  1.00  0.00    -0.357 OA
HETATM   21  H9          0      24.597  69.768   1.501  1.00  0.00     0.218 HD
ENDBRANCH  17  20
BRANCH  18  22
HETATM   22  O11         0      20.943  69.579   1.564  1.00  0.00    -0.357 OA
HETATM   23  H11         0      20.814  70.303   0.962  1.00  0.00     0.218 HD
ENDBRANCH  18  22
ENDBRANCH   4  14
BRANCH   8  24
HETATM   24  O17         0      26.150  65.532  -5.857  1.00  0.00    -0.359 OA
HETATM   25  H17         0      26.524  66.104  -6.517  1.00  0.00     0.218 HD
ENDBRANCH   8  24
TORSDOF 5
ENDMDL
MODEL 3
REMARK VINA RESULT:      -7.2      2.986      5.531
REMARK  5 active torsions:
REMARK  status: ('A' for Active; 'I' for Inactive)
REMARK    1  A    between atoms: C4_4  and  C5_5 
REMARK    2  A    between atoms: C8_8  and  O9_9 
REMARK    3  A    between atoms: C10_11  and  O11_12 
REMARK    4  A    between atoms: C16_18  and  O17_19 
REMARK    5  A    between atoms: C19_22  and  O20_23 
ROOT
HETATM    1  O1          0      25.163  65.981   2.170  1.00  0.00    -0.286 OA
HETATM    2  C2          0      24.601  66.115   1.048  1.00  0.00     0.201 C 
HETATM    3  C3          0      23.229  66.030   0.881  1.00  0.00     0.067 C 
HETATM    4  C4          0      22.645  66.078  -0.380  1.00  0.00     0.103 C 
HETATM    5  O13         0      23.425  66.229  -1.435  1.00  0.00    -0.307 OA
HETATM    6  C14         0      24.735  66.277  -1.335  1.00  0.00     0.107 C 
HETATM    7  C15         0      25.561  66.034  -2.424  1.00  0.00     0.049 C 
HETATM    8  C16         0      26.927  65.834  -2.263  1.00  0.00     0.093 C 
HETATM    9  C18         0      27.472  66.400  -1.117  1.00  0.00     0.048 C 
HETATM   10  C19         0      26.666  66.700  -0.027  1.00  0.00     0.096 C 
HETATM   11  C21         0      25.322  66.452  -0.087  1.00  0.00     0.084 C 
ENDROOT
BRANCH  10  12
HETATM   12  O20         0      27.248  66.844   1.230  1.00  0.00    -0.359 OA
HETATM   13  H20         0      26.675  66.846   1.987  1.00  0.00     0.218 HD
ENDBRANCH  10  12
BRANCH   4  14
HETATM   14  C5          0      21.356  65.405  -0.546  1.00  0.00     0.025 C 
HETATM   15  C6          0      20.615  65.479  -1.717  1.00  0.00     0.004 C 
HETATM   16  C7          0      19.946  64.331  -2.130  1.00  0.00     0.026 C 
HETATM   17  C8          0      19.903  63.187  -1.339  1.00  0.00     0.112 C 
HETATM   18  C10         0      20.105  63.412   0.016  1.00  0.00     0.112 C 
HETATM   19  C12         0      20.850  64.522   0.398  1.00  0.00     0.028 C 
BRANCH  17  20
HETATM   20  O9          0      19.875  61.929  -1.914  1.00  0.00    -0.357 OA
HETATM   21  H9          0      20.651  61.464  -2.204  1.00  0.00     0.218 HD
ENDBRANCH  17  20
BRANCH  18  22
HETATM   22  O11         0      19.886  62.340   0.870  1.00  0.00    -0.357 OA
HETATM   23  H11         0      19.477  62.533   1.706  1.00  0.00     0.218 HD
ENDBRANCH  18  22
ENDBRANCH   4  14
BRANCH   8  24
HETATM   24  O17         0      27.615  64.867  -3.005  1.00  0.00    -0.359 OA
HETATM   25  H17         0      27.533  64.812  -3.949  1.00  0.00     0.218 HD
ENDBRANCH   8  24
TORSDOF 5
ENDMDL
MODEL 4
REMARK VINA RESULT:      -7.1      3.357      7.374
REMARK  5 active torsions:
REMARK  status: ('A' for Active; 'I' for Inactive)
REMARK    1  A    between atoms: C4_4  and  C5_5 
REMARK    2  A    between atoms: C8_8  and  O9_9 
REMARK    3  A    between atoms: C10_11  and  O11_12 
REMARK    4  A    between atoms: C16_18  and  O17_19 
REMARK    5  A    between atoms: C19_22  and  O20_23 
ROOT
HETATM    1  O1          0      21.615  67.665  -7.957  1.00  0.00    -0.286 OA
HETATM    2  C2          0      21.768  66.609  -7.283  1.00  0.00     0.201 C 
HETATM    3  C3          0      22.144  66.617  -5.951  1.00  0.00     0.067 C 
HETATM    4  C4          0      22.404  65.439  -5.260  1.00  0.00     0.103 C 
HETATM    5  O13         0      22.268  64.288  -5.894  1.00  0.00    -0.307 OA
HETATM    6  C14         0      21.950  64.225  -7.169  1.00  0.00     0.107 C 
HETATM    7  C15         0      22.191  63.089  -7.927  1.00  0.00     0.049 C 
HETATM    8  C16         0      22.093  63.112  -9.313  1.00  0.00     0.093 C 
HETATM    9  C18         0      21.262  64.101  -9.826  1.00  0.00     0.048 C 
HETATM   10  C19         0      20.962  65.230  -9.076  1.00  0.00     0.096 C 
HETATM   11  C21         0      21.474  65.362  -7.814  1.00  0.00     0.084 C 
ENDROOT
BRANCH  10  12
HETATM   12  O20         0      20.516  66.378  -9.722  1.00  0.00    -0.359 OA
HETATM   13  H20         0      21.167  67.002 -10.021  1.00  0.00     0.218 HD
ENDBRANCH  10  12
BRANCH   4  14
HETATM   14  C5          0      23.334  65.516  -4.132  1.00  0.00     0.025 C 
HETATM   15  C6          0      23.705  64.407  -3.386  1.00  0.00     0.004 C 
HETATM   16  C7          0      25.027  64.329  -2.960  1.00  0.00     0.026 C 
HETATM   17  C8          0      25.918  65.380  -3.152  1.00  0.00     0.112 C 
HETATM   18  C10         0      25.322  66.624  -3.310  1.00  0.00     0.112 C 
HETATM   19  C12         0      24.030  66.677  -3.818  1.00  0.00     0.028 C 
BRANCH  17  20
HETATM   20  O9          0      27.262  65.137  -3.374  1.00  0.00    -0.357 OA
HETATM   21  H9          0      27.953  65.411  -2.782  1.00  0.00     0.218 HD
ENDBRANCH  17  20
BRANCH  18  22
HETATM   22  O11         0      26.163  67.727  -3.315  1.00  0.00    -0.357 OA
HETATM   23  H11         0      26.537  67.987  -2.481  1.00  0.00     0.218 HD
ENDBRANCH  18  22
ENDBRANCH   4  14
BRANCH   8  24
HETATM   24  O17         0      23.008  62.429 -10.121  1.00  0.00    -0.359 OA
HETATM   25  H17         0      23.365  61.585  -9.867  1.00  0.00     0.218 HD
ENDBRANCH   8  24
TORSDOF 5
ENDMDL
MODEL 5
REMARK VINA RESULT:      -7.0      1.689      1.877
REMARK  5 active torsions:
REMARK  status: ('A' for Active; 'I' for Inactive)
REMARK    1  A    between atoms: C4_4  and  C5_5 
REMARK    2  A    between atoms: C8_8  and  O9_9 
REMARK    3  A    between atoms: C10_11  and  O11_12 
REMARK    4  A    between atoms: C16_18  and  O17_19 
REMARK    5  A    between atoms: C19_22  and  O20_23 
ROOT
HETATM    1  O1          0      26.103  65.495  -1.203  1.00  0.00    -0.286 OA
HETATM    2  C2          0      24.881  65.184  -1.251  1.00  0.00     0.201 C 
HETATM    3  C3          0      24.354  64.364  -2.234  1.00  0.00     0.067 C 
HETATM    4  C4          0      22.988  64.120  -2.323  1.00  0.00     0.103 C 
HETATM    5  O13         0      22.185  64.672  -1.432  1.00  0.00    -0.307 OA
HETATM    6  C14         0      22.629  65.488  -0.501  1.00  0.00     0.107 C 
HETATM    7  C15         0      21.786  66.366   0.165  1.00  0.00     0.049 C 
HETATM    8  C16         0      22.290  67.393   0.954  1.00  0.00     0.093 C 
HETATM    9  C18         0      23.568  67.174   1.456  1.00  0.00     0.048 C 
HETATM   10  C19         0      24.421  66.267   0.842  1.00  0.00     0.096 C 
HETATM   11  C21         0      23.996  65.571  -0.257  1.00  0.00     0.084 C 
ENDROOT
BRANCH  10  12
HETATM   12  O20         0      25.792  66.368   1.059  1.00  0.00    -0.359 OA
HETATM   13  H20         0      26.123  66.144   1.920  1.00  0.00     0.218 HD
ENDBRANCH  10  12
BRANCH   4  14
HETATM   14  C5          0      22.452  63.788  -3.645  1.00  0.00     0.025 C 
HETATM   15  C6          0      21.093  63.772  -3.923  1.00  0.00     0.004 C 
HETATM   16  C7          0      20.684  64.246  -5.165  1.00  0.00     0.026 C 
HETATM   17  C8          0      21.600  64.599  -6.150  1.00  0.00     0.112 C 
HETATM   18  C10         0      22.847  64.000  -6.023  1.00  0.00     0.112 C 
HETATM   19  C12         0      23.267  63.612  -4.756  1.00  0.00     0.028 C 
BRANCH  17  20
HETATM   20  O9          0      21.328  65.624  -7.038  1.00  0.00    -0.357 OA
HETATM   21  H9          0      21.199  66.529  -6.776  1.00  0.00     0.218 HD
ENDBRANCH  17  20
BRANCH  18  22
HETATM   22  O11         0      23.734  64.167  -7.076  1.00  0.00    -0.357 OA
HETATM   23  H11         0      23.405  64.610  -7.850  1.00  0.00     0.218 HD
ENDBRANCH  18  22
ENDBRANCH   4  14
BRANCH   8  24
HETATM   24  O17         0      21.707  68.664   0.957  1.00  0.00    -0.359 OA
HETATM   25  H17         0      22.233  69.455   0.969  1.00  0.00     0.218 HD
ENDBRANCH   8  24
TORSDOF 5
ENDMDL
MODEL 6
REMARK VINA RESULT:      -6.9      1.312      1.477
REMARK  5 active torsions:
REMARK  status: ('A' for Active; 'I' for Inactive)
REMARK    1  A    between atoms: C4_4  and  C5_5 
REMARK    2  A    between atoms: C8_8  and  O9_9 
REMARK    3  A    between atoms: C10_11  and  O11_12 
REMARK    4  A    between atoms: C16_18  and  O17_19 
REMARK    5  A    between atoms: C19_22  and  O20_23 
ROOT
HETATM    1  O1          0      26.900  66.709  -1.851  1.00  0.00    -0.286 OA
HETATM    2  C2          0      25.868  66.002  -2.016  1.00  0.00     0.201 C 
HETATM    3  C3          0      25.597  65.336  -3.199  1.00  0.00     0.067 C 
HETATM    4  C4          0      24.404  64.648  -3.390  1.00  0.00     0.103 C 
HETATM    5  O13         0      23.523  64.619  -2.406  1.00  0.00    -0.307 OA
HETATM    6  C14         0      23.715  65.265  -1.277  1.00  0.00     0.107 C 
HETATM    7  C15         0      22.665  65.572  -0.423  1.00  0.00     0.049 C 
HETATM    8  C16         0      22.828  66.466   0.629  1.00  0.00     0.093 C 
HETATM    9  C18         0      24.132  66.599   1.089  1.00  0.00     0.048 C 
HETATM   10  C19         0      25.205  66.257   0.277  1.00  0.00     0.096 C 
HETATM   11  C21         0      24.977  65.769  -0.980  1.00  0.00     0.084 C 
ENDROOT
BRANCH  10  12
HETATM   12  O20         0      26.463  66.785   0.554  1.00  0.00    -0.359 OA
HETATM   13  H20         0      27.037  66.291   1.127  1.00  0.00     0.218 HD
ENDBRANCH  10  12
BRANCH   4  14
HETATM   14  C5          0      23.927  64.505  -4.767  1.00  0.00     0.025 C 
HETATM   15  C6          0      23.334  65.544  -5.470  1.00  0.00     0.004 C 
HETATM   16  C7          0      23.634  65.660  -6.823  1.00  0.00     0.026 C 
HETATM   17  C8          0      24.390  64.701  -7.488  1.00  0.00     0.112 C 
HETATM   18  C10         0      24.387  63.446  -6.894  1.00  0.00     0.112 C 
HETATM   19  C12         0      24.169  63.365  -5.523  1.00  0.00     0.028 C 
BRANCH  17  20
HETATM   20  O9          0      25.231  65.056  -8.528  1.00  0.00    -0.357 OA
HETATM   21  H9          0      25.807  64.446  -8.973  1.00  0.00     0.218 HD
ENDBRANCH  17  20
BRANCH  18  22
HETATM   22  O11         0      24.966  62.409  -7.611  1.00  0.00    -0.357 OA
HETATM   23  H11         0      25.211  62.593  -8.511  1.00  0.00     0.218 HD
ENDBRANCH  18  22
ENDBRANCH   4  14
BRANCH   8  24
HETATM   24  O17         0      21.833  67.393   0.958  1.00  0.00    -0.359 OA
HETATM   25  H17         0      21.416  67.395   1.812  1.00  0.00     0.218 HD
ENDBRANCH   8  24
TORSDOF 5
ENDMDL
MODEL 7
REMARK VINA RESULT:      -6.9      2.452      3.755
REMARK  5 active torsions:
REMARK  status: ('A' for Active; 'I' for Inactive)
REMARK    1  A    between atoms: C4_4  and  C5_5 
REMARK    2  A    between atoms: C8_8  and  O9_9 
REMARK    3  A    between atoms: C10_11  and  O11_12 
REMARK    4  A    between atoms: C16_18  and  O17_19 
REMARK    5  A    between atoms: C19_22  and  O20_23 
ROOT
HETATM    1  O1          0      20.248  63.402  -1.299  1.00  0.00    -0.286 OA
HETATM    2  C2          0      20.545  64.480  -1.883  1.00  0.00     0.201 C 
HETATM    3  C3          0      20.284  64.704  -3.224  1.00  0.00     0.067 C 
HETATM    4  C4          0      20.713  65.860  -3.867  1.00  0.00     0.103 C 
HETATM    5  O13         0      21.368  66.769  -3.168  1.00  0.00    -0.307 OA
HETATM    6  C14         0      21.675  66.590  -1.901  1.00  0.00     0.107 C 
HETATM    7  C15         0      22.677  67.322  -1.281  1.00  0.00     0.049 C 
HETATM    8  C16         0      23.168  66.960  -0.033  1.00  0.00     0.093 C 
HETATM    9  C18         0      22.291  66.219   0.751  1.00  0.00     0.048 C 
HETATM   10  C19         0      21.249  65.512   0.167  1.00  0.00     0.096 C 
HETATM   11  C21         0      21.073  65.558  -1.189  1.00  0.00     0.084 C 
ENDROOT
BRANCH  10  12
HETATM   12  O20         0      20.667  64.459   0.865  1.00  0.00    -0.359 OA
HETATM   13  H20         0      19.800  64.592   1.230  1.00  0.00     0.218 HD
ENDBRANCH  10  12
BRANCH   4  14
HETATM   14  C5          0      20.950  65.775  -5.310  1.00  0.00     0.025 C 
HETATM   15  C6          0      20.050  65.187  -6.186  1.00  0.00     0.004 C 
HETATM   16  C7          0      19.878  65.784  -7.431  1.00  0.00     0.026 C 
HETATM   17  C8          0      20.670  66.850  -7.844  1.00  0.00     0.112 C 
HETATM   18  C10         0      21.900  66.940  -7.206  1.00  0.00     0.112 C 
HETATM   19  C12         0      22.020  66.409  -5.927  1.00  0.00     0.028 C 
BRANCH  17  20
HETATM   20  O9          0      20.156  67.838  -8.665  1.00  0.00    -0.357 OA
HETATM   21  H9          0      20.616  68.190  -9.418  1.00  0.00     0.218 HD
ENDBRANCH  17  20
BRANCH  18  22
HETATM   22  O11         0      22.802  67.866  -7.709  1.00  0.00    -0.357 OA
HETATM   23  H11         0      22.496  68.427  -8.413  1.00  0.00     0.218 HD
ENDBRANCH  18  22
ENDBRANCH   4  14
BRANCH   8  24
HETATM   24  O17         0      24.533  67.039   0.265  1.00  0.00    -0.359 OA
HETATM   25  H17         0      25.170  67.312  -0.385  1.00  0.00     0.218 HD
ENDBRANCH   8  24
TORSDOF 5
ENDMDL
MODEL 8
REMARK VINA RESULT:      -6.9      1.741      6.514
REMARK  5 active torsions:
REMARK  status: ('A' for Active; 'I' for Inactive)
REMARK    1  A    between atoms: C4_4  and  C5_5 
REMARK    2  A    between atoms: C8_8  and  O9_9 
REMARK    3  A    between atoms: C10_11  and  O11_12 
REMARK    4  A    between atoms: C16_18  and  O17_19 
REMARK    5  A    between atoms: C19_22  and  O20_23 
ROOT
HETATM    1  O1          0      22.129  63.037  -3.893  1.00  0.00    -0.286 OA
HETATM    2  C2          0      22.816  64.008  -3.473  1.00  0.00     0.201 C 
HETATM    3  C3          0      22.783  64.437  -2.157  1.00  0.00     0.067 C 
HETATM    4  C4          0      23.470  65.572  -1.743  1.00  0.00     0.103 C 
HETATM    5  O13         0      24.186  66.240  -2.630  1.00  0.00    -0.307 OA
HETATM    6  C14         0      24.222  65.897  -3.899  1.00  0.00     0.107 C 
HETATM    7  C15         0      24.623  66.787  -4.885  1.00  0.00     0.049 C 
HETATM    8  C16         0      24.419  66.512  -6.232  1.00  0.00     0.093 C 
HETATM    9  C18         0      24.311  65.163  -6.546  1.00  0.00     0.048 C 
HETATM   10  C19         0      23.958  64.238  -5.572  1.00  0.00     0.096 C 
HETATM   11  C21         0      23.730  64.656  -4.290  1.00  0.00     0.084 C 
ENDROOT
BRANCH  10  12
HETATM   12  O20         0      23.435  63.008  -5.960  1.00  0.00    -0.359 OA
HETATM   13  H20         0      23.672  62.674  -6.817  1.00  0.00     0.218 HD
ENDBRANCH  10  12
BRANCH   4  14
HETATM   14  C5          0      22.941  66.289  -0.581  1.00  0.00     0.025 C 
HETATM   15  C6          0      23.364  66.036   0.716  1.00  0.00     0.004 C 
HETATM   16  C7          0      23.500  67.124   1.573  1.00  0.00     0.026 C 
HETATM   17  C8          0      23.100  68.402   1.198  1.00  0.00     0.112 C 
HETATM   18  C10         0      22.145  68.439   0.192  1.00  0.00     0.112 C 
HETATM   19  C12         0      22.088  67.378  -0.704  1.00  0.00     0.028 C 
BRANCH  17  20
HETATM   20  O9          0      23.775  69.519   1.659  1.00  0.00    -0.357 OA
HETATM   21  H9          0      23.950  70.286   1.127  1.00  0.00     0.218 HD
ENDBRANCH  17  20
BRANCH  18  22
HETATM   22  O11         0      21.575  69.673  -0.089  1.00  0.00    -0.357 OA
HETATM   23  H11         0      22.112  70.298  -0.561  1.00  0.00     0.218 HD
ENDBRANCH  18  22
ENDBRANCH   4  14
BRANCH   8  24
HETATM   24  O17         0      24.018  67.510  -7.128  1.00  0.00    -0.359 OA
HETATM   25  H17         0      23.703  68.354  -6.827  1.00  0.00     0.218 HD
ENDBRANCH   8  24
TORSDOF 5
ENDMDL
MODEL 9
REMARK VINA RESULT:      -6.7      1.657      2.922
REMARK  5 active torsions:
REMARK  status: ('A' for Active; 'I' for Inactive)
REMARK    1  A    between atoms: C4_4  and  C5_5 
REMARK    2  A    between atoms: C8_8  and  O9_9 
REMARK    3  A    between atoms: C10_11  and  O11_12 
REMARK    4  A    between atoms: C16_18  and  O17_19 
REMARK    5  A    between atoms: C19_22  and  O20_23 
ROOT
HETATM    1  O1          0      20.934  63.545  -1.488  1.00  0.00    -0.286 OA
HETATM    2  C2          0      21.858  64.267  -1.955  1.00  0.00     0.201 C 
HETATM    3  C3          0      22.312  64.154  -3.258  1.00  0.00     0.067 C 
HETATM    4  C4          0      23.400  64.889  -3.716  1.00  0.00     0.103 C 
HETATM    5  O13         0      23.994  65.728  -2.886  1.00  0.00    -0.307 OA
HETATM    6  C14         0      23.626  65.846  -1.629  1.00  0.00     0.107 C 
HETATM    7  C15         0      24.464  66.398  -0.671  1.00  0.00     0.049 C 
HETATM    8  C16         0      24.180  66.289   0.685  1.00  0.00     0.093 C 
HETATM    9  C18         0      22.837  66.105   0.990  1.00  0.00     0.048 C 
HETATM   10  C19         0      21.961  65.598   0.040  1.00  0.00     0.096 C 
HETATM   11  C21         0      22.419  65.295  -1.213  1.00  0.00     0.084 C 
ENDROOT
BRANCH  10  12
HETATM   12  O20         0      20.767  65.017   0.457  1.00  0.00    -0.359 OA
HETATM   13  H20         0      19.963  65.501   0.313  1.00  0.00     0.218 HD
ENDBRANCH  10  12
BRANCH   4  14
HETATM   14  C5          0      24.177  64.319  -4.819  1.00  0.00     0.025 C 
HETATM   15  C6          0      23.772  63.194  -5.521  1.00  0.00     0.004 C 
HETATM   16  C7          0      24.002  63.172  -6.893  1.00  0.00     0.026 C 
HETATM   17  C8          0      24.730  64.173  -7.526  1.00  0.00     0.112 C 
HETATM   18  C10         0      25.598  64.871  -6.697  1.00  0.00     0.112 C 
HETATM   19  C12         0      25.298  64.949  -5.342  1.00  0.00     0.028 C 
BRANCH  17  20
HETATM   20  O9          0      24.432  64.555  -8.822  1.00  0.00    -0.357 OA
HETATM   21  H9          0      25.088  64.703  -9.493  1.00  0.00     0.218 HD
ENDBRANCH  17  20
BRANCH  18  22
HETATM   22  O11         0      26.482  65.749  -7.309  1.00  0.00    -0.357 OA
HETATM   23  H11         0      26.390  65.868  -8.247  1.00  0.00     0.218 HD
ENDBRANCH  18  22
ENDBRANCH   4  14
BRANCH   8  24
HETATM   24  O17         0      25.189  66.045   1.624  1.00  0.00    -0.359 OA
HETATM   25  H17         0      26.093  65.915   1.363  1.00  0.00     0.218 HD
ENDBRANCH   8  24
TORSDOF 5
ENDMDL
