MODEL 1
REMARK VINA RESULT:      -5.1      0.000      0.000
REMARK  5 active torsions:
REMARK  status: ('A' for Active; 'I' for Inactive)
REMARK    1  A    between atoms: C4_4  and  C5_5 
REMARK    2  A    between atoms: C8_8  and  O9_9 
REMARK    3  A    between atoms: C10_11  and  O11_12 
REMARK    4  A    between atoms: C16_18  and  O17_19 
REMARK    5  A    between atoms: C19_22  and  O20_23 
ROOT
HETATM    1  O1          0      54.278  50.364 -12.253  1.00  0.00    -0.286 OA
HETATM    2  C2          0      54.353  51.483 -12.830  1.00  0.00     0.201 C 
HETATM    3  C3          0      53.329  52.414 -12.799  1.00  0.00     0.067 C 
HETATM    4  C4          0      53.397  53.596 -13.528  1.00  0.00     0.103 C 
HETATM    5  O13         0      54.478  53.836 -14.249  1.00  0.00    -0.307 OA
HETATM    6  C14         0      55.463  52.970 -14.342  1.00  0.00     0.107 C 
HETATM    7  C15         0      56.386  53.022 -15.376  1.00  0.00     0.049 C 
HETATM    8  C16         0      57.261  51.969 -15.616  1.00  0.00     0.093 C 
HETATM    9  C18         0      57.527  51.164 -14.514  1.00  0.00     0.048 C 
HETATM   10  C19         0      56.647  51.124 -13.441  1.00  0.00     0.096 C 
HETATM   11  C21         0      55.517  51.896 -13.461  1.00  0.00     0.084 C 
ENDROOT
BRANCH  10  12
HETATM   12  O20         0      56.678  50.035 -12.576  1.00  0.00    -0.359 OA
HETATM   13  H20         0      56.600  50.203 -11.645  1.00  0.00     0.218 HD
ENDBRANCH  10  12
BRANCH   4  14
HETATM   14  C5          0      52.129  54.206 -13.935  1.00  0.00     0.025 C 
HETATM   15  C6          0      51.785  55.510 -13.611  1.00  0.00     0.004 C 
HETATM   16  C7          0      51.106  56.254 -14.571  1.00  0.00     0.026 C 
HETATM   17  C8          0      50.666  55.683 -15.760  1.00  0.00     0.112 C 
HETATM   18  C10         0      50.490  54.307 -15.712  1.00  0.00     0.112 C 
HETATM   19  C12         0      51.244  53.577 -14.800  1.00  0.00     0.028 C 
BRANCH  17  20
HETATM   20  O9          0      50.623  56.422 -16.929  1.00  0.00    -0.357 OA
HETATM   21  H9          0      51.203  56.276 -17.667  1.00  0.00     0.218 HD
ENDBRANCH  17  20
BRANCH  18  22
HETATM   22  O11         0      49.875  53.713 -16.805  1.00  0.00    -0.357 OA
HETATM   23  H11         0      49.000  53.367 -16.671  1.00  0.00     0.218 HD
ENDBRANCH  18  22
ENDBRANCH   4  14
BRANCH   8  24
HETATM   24  O17         0      57.570  51.560 -16.918  1.00  0.00    -0.359 OA
HETATM   25  H17         0      58.233  50.900 -17.090  1.00  0.00     0.218 HD
ENDBRANCH   8  24
TORSDOF 5
ENDMDL
MODEL 2
REMARK VINA RESULT:      -4.8      2.822      3.439
REMARK  5 active torsions:
REMARK  status: ('A' for Active; 'I' for Inactive)
REMARK    1  A    between atoms: C4_4  and  C5_5 
REMARK    2  A    between atoms: C8_8  and  O9_9 
REMARK    3  A    between atoms: C10_11  and  O11_12 
REMARK    4  A    between atoms: C16_18  and  O17_19 
REMARK    5  A    between atoms: C19_22  and  O20_23 
ROOT
HETATM    1  O1          0      53.774  51.693 -12.651  1.00  0.00    -0.286 OA
HETATM    2  C2          0      53.338  52.875 -12.711  1.00  0.00     0.201 C 
HETATM    3  C3          0      52.291  53.248 -13.537  1.00  0.00     0.067 C 
HETATM    4  C4          0      51.897  54.575 -13.661  1.00  0.00     0.103 C 
HETATM    5  O13         0      52.531  55.494 -12.953  1.00  0.00    -0.307 OA
HETATM    6  C14         0      53.555  55.199 -12.183  1.00  0.00     0.107 C 
HETATM    7  C15         0      54.458  56.167 -11.765  1.00  0.00     0.049 C 
HETATM    8  C16         0      55.666  55.819 -11.172  1.00  0.00     0.093 C 
HETATM    9  C18         0      55.680  54.573 -10.557  1.00  0.00     0.048 C 
HETATM   10  C19         0      54.761  53.597 -10.918  1.00  0.00     0.096 C 
HETATM   11  C21         0      53.823  53.870 -11.875  1.00  0.00     0.084 C 
ENDROOT
BRANCH  10  12
HETATM   12  O20         0      55.041  52.263 -10.640  1.00  0.00    -0.359 OA
HETATM   13  H20         0      54.600  51.860  -9.902  1.00  0.00     0.218 HD
ENDBRANCH  10  12
BRANCH   4  14
HETATM   14  C5          0      51.259  54.970 -14.918  1.00  0.00     0.025 C 
HETATM   15  C6          0      50.652  56.205 -15.097  1.00  0.00     0.004 C 
HETATM   16  C7          0      50.802  56.823 -16.335  1.00  0.00     0.026 C 
HETATM   17  C8          0      51.419  56.178 -17.402  1.00  0.00     0.112 C 
HETATM   18  C10         0      51.409  54.792 -17.326  1.00  0.00     0.112 C 
HETATM   19  C12         0      51.344  54.200 -16.070  1.00  0.00     0.028 C 
BRANCH  17  20
HETATM   20  O9          0      52.155  56.892 -18.331  1.00  0.00    -0.357 OA
HETATM   21  H9          0      52.227  57.839 -18.333  1.00  0.00     0.218 HD
ENDBRANCH  17  20
BRANCH  18  22
HETATM   22  O11         0      51.839  54.098 -18.448  1.00  0.00    -0.357 OA
HETATM   23  H11         0      52.316  53.290 -18.297  1.00  0.00     0.218 HD
ENDBRANCH  18  22
ENDBRANCH   4  14
BRANCH   8  24
HETATM   24  O17         0      56.847  56.508 -11.466  1.00  0.00    -0.359 OA
HETATM   25  H17         0      56.977  57.411 -11.201  1.00  0.00     0.218 HD
ENDBRANCH   8  24
TORSDOF 5
ENDMDL
MODEL 3
REMARK VINA RESULT:      -4.8      1.956      6.415
REMARK  5 active torsions:
REMARK  status: ('A' for Active; 'I' for Inactive)
REMARK    1  A    between atoms: C4_4  and  C5_5 
REMARK    2  A    between atoms: C8_8  and  O9_9 
REMARK    3  A    between atoms: C10_11  and  O11_12 
REMARK    4  A    between atoms: C16_18  and  O17_19 
REMARK    5  A    between atoms: C19_22  and  O20_23 
ROOT
HETATM    1  O1          0      52.358  55.717 -12.159  1.00  0.00    -0.286 OA
HETATM    2  C2          0      52.482  54.721 -12.923  1.00  0.00     0.201 C 
HETATM    3  C3          0      53.184  53.583 -12.563  1.00  0.00     0.067 C 
HETATM    4  C4          0      53.392  52.542 -13.461  1.00  0.00     0.103 C 
HETATM    5  O13         0      52.888  52.642 -14.678  1.00  0.00    -0.307 OA
HETATM    6  C14         0      52.247  53.717 -15.082  1.00  0.00     0.107 C 
HETATM    7  C15         0      52.071  54.000 -16.429  1.00  0.00     0.049 C 
HETATM    8  C16         0      51.626  55.246 -16.853  1.00  0.00     0.093 C 
HETATM    9  C18         0      50.887  55.956 -15.913  1.00  0.00     0.048 C 
HETATM   10  C19         0      51.003  55.667 -14.560  1.00  0.00     0.096 C 
HETATM   11  C21         0      51.838  54.664 -14.149  1.00  0.00     0.084 C 
ENDROOT
BRANCH  10  12
HETATM   12  O20         0      50.625  56.625 -13.625  1.00  0.00    -0.359 OA
HETATM   13  H20         0      50.031  57.311 -13.906  1.00  0.00     0.218 HD
ENDBRANCH  10  12
BRANCH   4  14
HETATM   14  C5          0      54.579  51.709 -13.256  1.00  0.00     0.025 C 
HETATM   15  C6          0      55.684  51.755 -14.095  1.00  0.00     0.004 C 
HETATM   16  C7          0      56.941  51.645 -13.510  1.00  0.00     0.026 C 
HETATM   17  C8          0      57.095  51.364 -12.157  1.00  0.00     0.112 C 
HETATM   18  C10         0      56.009  50.726 -11.571  1.00  0.00     0.112 C 
HETATM   19  C12         0      54.750  50.922 -12.125  1.00  0.00     0.028 C 
BRANCH  17  20
HETATM   20  O9          0      58.160  51.881 -11.442  1.00  0.00    -0.357 OA
HETATM   21  H9          0      58.090  52.624 -10.853  1.00  0.00     0.218 HD
ENDBRANCH  17  20
BRANCH  18  22
HETATM   22  O11         0      56.181  50.255 -10.277  1.00  0.00    -0.357 OA
HETATM   23  H11         0      57.033  50.393  -9.878  1.00  0.00     0.218 HD
ENDBRANCH  18  22
ENDBRANCH   4  14
BRANCH   8  24
HETATM   24  O17         0      52.161  55.865 -17.988  1.00  0.00    -0.359 OA
HETATM   25  H17         0      53.086  56.066 -18.057  1.00  0.00     0.218 HD
ENDBRANCH   8  24
TORSDOF 5
ENDMDL
MODEL 4
REMARK VINA RESULT:      -4.8      1.545      2.922
REMARK  5 active torsions:
REMARK  status: ('A' for Active; 'I' for Inactive)
REMARK    1  A    between atoms: C4_4  and  C5_5 
REMARK    2  A    between atoms: C8_8  and  O9_9 
REMARK    3  A    between atoms: C10_11  and  O11_12 
REMARK    4  A    between atoms: C16_18  and  O17_19 
REMARK    5  A    between atoms: C19_22  and  O20_23 
ROOT
HETATM    1  O1          0      57.005  52.888 -15.098  1.00  0.00    -0.286 OA
HETATM    2  C2          0      55.973  52.432 -14.534  1.00  0.00     0.201 C 
HETATM    3  C3          0      54.702  52.918 -14.787  1.00  0.00     0.067 C 
HETATM    4  C4          0      53.595  52.468 -14.077  1.00  0.00     0.103 C 
HETATM    5  O13         0      53.767  51.539 -13.154  1.00  0.00    -0.307 OA
HETATM    6  C14         0      54.957  51.070 -12.848  1.00  0.00     0.107 C 
HETATM    7  C15         0      55.199  50.418 -11.648  1.00  0.00     0.049 C 
HETATM    8  C16         0      56.495  50.154 -11.219  1.00  0.00     0.093 C 
HETATM    9  C18         0      57.444  50.078 -12.230  1.00  0.00     0.048 C 
HETATM   10  C19         0      57.214  50.680 -13.460  1.00  0.00     0.096 C 
HETATM   11  C21         0      56.036  51.338 -13.684  1.00  0.00     0.084 C 
ENDROOT
BRANCH  10  12
HETATM   12  O20         0      58.295  50.978 -14.284  1.00  0.00    -0.359 OA
HETATM   13  H20         0      58.247  51.764 -14.814  1.00  0.00     0.218 HD
ENDBRANCH  10  12
BRANCH   4  14
HETATM   14  C5          0      52.463  53.388 -13.948  1.00  0.00     0.025 C 
HETATM   15  C6          0      52.283  54.209 -12.845  1.00  0.00     0.004 C 
HETATM   16  C7          0      51.795  55.492 -13.069  1.00  0.00     0.026 C 
HETATM   17  C8          0      51.372  55.902 -14.329  1.00  0.00     0.112 C 
HETATM   18  C10         0      50.999  54.870 -15.180  1.00  0.00     0.112 C 
HETATM   19  C12         0      51.568  53.617 -14.986  1.00  0.00     0.028 C 
BRANCH  17  20
HETATM   20  O9          0      51.527  57.215 -14.736  1.00  0.00    -0.357 OA
HETATM   21  H9          0      50.808  57.832 -14.814  1.00  0.00     0.218 HD
ENDBRANCH  17  20
BRANCH  18  22
HETATM   22  O11         0      50.394  55.229 -16.376  1.00  0.00    -0.357 OA
HETATM   23  H11         0      49.494  54.952 -16.502  1.00  0.00     0.218 HD
ENDBRANCH  18  22
ENDBRANCH   4  14
BRANCH   8  24
HETATM   24  O17         0      56.860  50.293  -9.875  1.00  0.00    -0.359 OA
HETATM   25  H17         0      57.127  49.547  -9.351  1.00  0.00     0.218 HD
ENDBRANCH   8  24
TORSDOF 5
ENDMDL
MODEL 5
REMARK VINA RESULT:      -4.7      1.708      3.246
REMARK  5 active torsions:
REMARK  status: ('A' for Active; 'I' for Inactive)
REMARK    1  A    between atoms: C4_4  and  C5_5 
REMARK    2  A    between atoms: C8_8  and  O9_9 
REMARK    3  A    between atoms: C10_11  and  O11_12 
REMARK    4  A    between atoms: C16_18  and  O17_19 
REMARK    5  A    between atoms: C19_22  and  O20_23 
ROOT
HETATM    1  O1          0      56.232  53.903 -16.104  1.00  0.00    -0.286 OA
HETATM    2  C2          0      55.083  53.567 -15.707  1.00  0.00     0.201 C 
HETATM    3  C3          0      53.922  54.141 -16.196  1.00  0.00     0.067 C 
HETATM    4  C4          0      52.674  53.826 -15.669  1.00  0.00     0.103 C 
HETATM    5  O13         0      52.605  52.940 -14.690  1.00  0.00    -0.307 OA
HETATM    6  C14         0      53.679  52.394 -14.164  1.00  0.00     0.107 C 
HETATM    7  C15         0      53.656  51.795 -12.912  1.00  0.00     0.049 C 
HETATM    8  C16         0      54.831  51.451 -12.255  1.00  0.00     0.093 C 
HETATM    9  C18         0      55.926  51.238 -13.084  1.00  0.00     0.048 C 
HETATM   10  C19         0      55.961  51.784 -14.360  1.00  0.00     0.096 C 
HETATM   11  C21         0      54.902  52.523 -14.812  1.00  0.00     0.084 C 
ENDROOT
BRANCH  10  12
HETATM   12  O20         0      57.187  51.943 -14.998  1.00  0.00    -0.359 OA
HETATM   13  H20         0      57.213  51.849 -15.943  1.00  0.00     0.218 HD
ENDBRANCH  10  12
BRANCH   4  14
HETATM   14  C5          0      51.625  54.841 -15.777  1.00  0.00     0.025 C 
HETATM   15  C6          0      50.868  55.259 -14.692  1.00  0.00     0.004 C 
HETATM   16  C7          0      50.544  56.609 -14.614  1.00  0.00     0.026 C 
HETATM   17  C8          0      50.844  57.492 -15.645  1.00  0.00     0.112 C 
HETATM   18  C10         0      51.004  56.898 -16.890  1.00  0.00     0.112 C 
HETATM   19  C12         0      51.412  55.570 -16.940  1.00  0.00     0.028 C 
BRANCH  17  20
HETATM   20  O9          0      51.161  58.812 -15.378  1.00  0.00    -0.357 OA
HETATM   21  H9          0      50.557  59.431 -14.985  1.00  0.00     0.218 HD
ENDBRANCH  17  20
BRANCH  18  22
HETATM   22  O11         0      51.117  57.746 -17.982  1.00  0.00    -0.357 OA
HETATM   23  H11         0      50.599  57.531 -18.749  1.00  0.00     0.218 HD
ENDBRANCH  18  22
ENDBRANCH   4  14
BRANCH   8  24
HETATM   24  O17         0      54.977  51.638 -10.876  1.00  0.00    -0.359 OA
HETATM   25  H17         0      55.820  51.836 -10.486  1.00  0.00     0.218 HD
ENDBRANCH   8  24
TORSDOF 5
ENDMDL
MODEL 6
REMARK VINA RESULT:      -4.7      2.742      7.096
REMARK  5 active torsions:
REMARK  status: ('A' for Active; 'I' for Inactive)
REMARK    1  A    between atoms: C4_4  and  C5_5 
REMARK    2  A    between atoms: C8_8  and  O9_9 
REMARK    3  A    between atoms: C10_11  and  O11_12 
REMARK    4  A    between atoms: C16_18  and  O17_19 
REMARK    5  A    between atoms: C19_22  and  O20_23 
ROOT
HETATM    1  O1          0      54.603  58.603 -15.322  1.00  0.00    -0.286 OA
HETATM    2  C2          0      53.570  57.887 -15.203  1.00  0.00     0.201 C 
HETATM    3  C3          0      53.592  56.628 -14.629  1.00  0.00     0.067 C 
HETATM    4  C4          0      52.461  55.820 -14.604  1.00  0.00     0.103 C 
HETATM    5  O13         0      51.338  56.282 -15.126  1.00  0.00    -0.307 OA
HETATM    6  C14         0      51.273  57.455 -15.716  1.00  0.00     0.107 C 
HETATM    7  C15         0      50.249  57.774 -16.597  1.00  0.00     0.049 C 
HETATM    8  C16         0      50.319  58.902 -17.406  1.00  0.00     0.093 C 
HETATM    9  C18         0      51.139  59.917 -16.929  1.00  0.00     0.048 C 
HETATM   10  C19         0      52.143  59.641 -16.011  1.00  0.00     0.096 C 
HETATM   11  C21         0      52.317  58.361 -15.560  1.00  0.00     0.084 C 
ENDROOT
BRANCH  10  12
HETATM   12  O20         0      53.205  60.530 -15.876  1.00  0.00    -0.359 OA
HETATM   13  H20         0      54.074  60.169 -15.746  1.00  0.00     0.218 HD
ENDBRANCH  10  12
BRANCH   4  14
HETATM   14  C5          0      52.673  54.372 -14.559  1.00  0.00     0.025 C 
HETATM   15  C6          0      53.857  53.773 -14.964  1.00  0.00     0.004 C 
HETATM   16  C7          0      54.315  52.686 -14.226  1.00  0.00     0.026 C 
HETATM   17  C8          0      53.556  52.128 -13.202  1.00  0.00     0.112 C 
HETATM   18  C10         0      52.191  52.364 -13.298  1.00  0.00     0.112 C 
HETATM   19  C12         0      51.764  53.504 -13.968  1.00  0.00     0.028 C 
BRANCH  17  20
HETATM   20  O9          0      54.164  51.575 -12.090  1.00  0.00    -0.357 OA
HETATM   21  H9          0      54.170  51.985 -11.233  1.00  0.00     0.218 HD
ENDBRANCH  17  20
BRANCH  18  22
HETATM   22  O11         0      51.371  51.676 -12.414  1.00  0.00    -0.357 OA
HETATM   23  H11         0      50.492  52.015 -12.291  1.00  0.00     0.218 HD
ENDBRANCH  18  22
ENDBRANCH   4  14
BRANCH   8  24
HETATM   24  O17         0      49.879  58.874 -18.734  1.00  0.00    -0.359 OA
HETATM   25  H17         0      50.089  58.152 -19.314  1.00  0.00     0.218 HD
ENDBRANCH   8  24
TORSDOF 5
ENDMDL
MODEL 7
REMARK VINA RESULT:      -4.3      4.416      6.851
REMARK  5 active torsions:
REMARK  status: ('A' for Active; 'I' for Inactive)
REMARK    1  A    between atoms: C4_4  and  C5_5 
REMARK    2  A    between atoms: C8_8  and  O9_9 
REMARK    3  A    between atoms: C10_11  and  O11_12 
REMARK    4  A    between atoms: C16_18  and  O17_19 
REMARK    5  A    between atoms: C19_22  and  O20_23 
ROOT
HETATM    1  O1          0      53.869  59.704 -15.680  1.00  0.00    -0.286 OA
HETATM    2  C2          0      54.198  58.778 -14.889  1.00  0.00     0.201 C 
HETATM    3  C3          0      53.681  57.497 -14.977  1.00  0.00     0.067 C 
HETATM    4  C4          0      53.981  56.523 -14.032  1.00  0.00     0.103 C 
HETATM    5  O13         0      54.797  56.832 -13.040  1.00  0.00    -0.307 OA
HETATM    6  C14         0      55.286  58.043 -12.888  1.00  0.00     0.107 C 
HETATM    7  C15         0      55.797  58.479 -11.674  1.00  0.00     0.049 C 
HETATM    8  C16         0      56.074  59.822 -11.448  1.00  0.00     0.093 C 
HETATM    9  C18         0      56.323  60.571 -12.591  1.00  0.00     0.048 C 
HETATM   10  C19         0      55.867  60.140 -13.830  1.00  0.00     0.096 C 
HETATM   11  C21         0      55.181  58.961 -13.928  1.00  0.00     0.084 C 
ENDROOT
BRANCH  10  12
HETATM   12  O20         0      55.730  61.063 -14.863  1.00  0.00    -0.359 OA
HETATM   13  H20         0      56.487  61.587 -15.094  1.00  0.00     0.218 HD
ENDBRANCH  10  12
BRANCH   4  14
HETATM   14  C5          0      52.995  55.460 -13.828  1.00  0.00     0.025 C 
HETATM   15  C6          0      52.790  54.439 -14.744  1.00  0.00     0.004 C 
HETATM   16  C7          0      52.538  53.166 -14.243  1.00  0.00     0.026 C 
HETATM   17  C8          0      52.361  52.938 -12.883  1.00  0.00     0.112 C 
HETATM   18  C10         0      51.958  54.051 -12.157  1.00  0.00     0.112 C 
HETATM   19  C12         0      52.298  55.311 -12.636  1.00  0.00     0.028 C 
BRANCH  17  20
HETATM   20  O9          0      52.769  51.749 -12.304  1.00  0.00    -0.357 OA
HETATM   21  H9          0      52.912  51.638 -11.371  1.00  0.00     0.218 HD
ENDBRANCH  17  20
BRANCH  18  22
HETATM   22  O11         0      51.587  53.839 -10.837  1.00  0.00    -0.357 OA
HETATM   23  H11         0      52.154  54.202 -10.166  1.00  0.00     0.218 HD
ENDBRANCH  18  22
ENDBRANCH   4  14
BRANCH   8  24
HETATM   24  O17         0      55.789  60.428 -10.219  1.00  0.00    -0.359 OA
HETATM   25  H17         0      55.291  59.981  -9.546  1.00  0.00     0.218 HD
ENDBRANCH   8  24
TORSDOF 5
ENDMDL
MODEL 8
REMARK VINA RESULT:      -4.2      3.687      7.751
REMARK  5 active torsions:
REMARK  status: ('A' for Active; 'I' for Inactive)
REMARK    1  A    between atoms: C4_4  and  C5_5 
REMARK    2  A    between atoms: C8_8  and  O9_9 
REMARK    3  A    between atoms: C10_11  and  O11_12 
REMARK    4  A    between atoms: C16_18  and  O17_19 
REMARK    5  A    between atoms: C19_22  and  O20_23 
ROOT
HETATM    1  O1          0      51.099  60.620 -16.387  1.00  0.00    -0.286 OA
HETATM    2  C2          0      51.072  59.446 -16.848  1.00  0.00     0.201 C 
HETATM    3  C3          0      50.634  58.360 -16.110  1.00  0.00     0.067 C 
HETATM    4  C4          0      50.711  57.063 -16.605  1.00  0.00     0.103 C 
HETATM    5  O13         0      51.197  56.876 -17.820  1.00  0.00    -0.307 OA
HETATM    6  C14         0      51.661  57.868 -18.548  1.00  0.00     0.107 C 
HETATM    7  C15         0      52.517  57.650 -19.618  1.00  0.00     0.049 C 
HETATM    8  C16         0      53.202  58.700 -20.218  1.00  0.00     0.093 C 
HETATM    9  C18         0      52.608  59.948 -20.073  1.00  0.00     0.048 C 
HETATM   10  C19         0      51.711  60.186 -19.041  1.00  0.00     0.096 C 
HETATM   11  C21         0      51.395  59.179 -18.170  1.00  0.00     0.084 C 
ENDROOT
BRANCH  10  12
HETATM   12  O20         0      51.467  61.496 -18.640  1.00  0.00    -0.359 OA
HETATM   13  H20         0      52.194  61.997 -18.291  1.00  0.00     0.218 HD
ENDBRANCH  10  12
BRANCH   4  14
HETATM   14  C5          0      50.816  55.978 -15.628  1.00  0.00     0.025 C 
HETATM   15  C6          0      50.948  54.647 -15.995  1.00  0.00     0.004 C 
HETATM   16  C7          0      51.791  53.848 -15.230  1.00  0.00     0.026 C 
HETATM   17  C8          0      52.380  54.319 -14.061  1.00  0.00     0.112 C 
HETATM   18  C10         0      51.713  55.379 -13.463  1.00  0.00     0.112 C 
HETATM   19  C12         0      50.944  56.213 -14.266  1.00  0.00     0.028 C 
BRANCH  17  20
HETATM   20  O9          0      53.636  53.885 -13.676  1.00  0.00    -0.357 OA
HETATM   21  H9          0      53.845  53.587 -12.798  1.00  0.00     0.218 HD
ENDBRANCH  17  20
BRANCH  18  22
HETATM   22  O11         0      52.147  55.763 -12.202  1.00  0.00    -0.357 OA
HETATM   23  H11         0      53.063  56.001 -12.116  1.00  0.00     0.218 HD
ENDBRANCH  18  22
ENDBRANCH   4  14
BRANCH   8  24
HETATM   24  O17         0      54.532  58.562 -20.631  1.00  0.00    -0.359 OA
HETATM   25  H17         0      54.815  58.823 -21.500  1.00  0.00     0.218 HD
ENDBRANCH   8  24
TORSDOF 5
ENDMDL
MODEL 9
REMARK VINA RESULT:      -4.2      4.113      6.355
REMARK  5 active torsions:
REMARK  status: ('A' for Active; 'I' for Inactive)
REMARK    1  A    between atoms: C4_4  and  C5_5 
REMARK    2  A    between atoms: C8_8  and  O9_9 
REMARK    3  A    between atoms: C10_11  and  O11_12 
REMARK    4  A    between atoms: C16_18  and  O17_19 
REMARK    5  A    between atoms: C19_22  and  O20_23 
ROOT
HETATM    1  O1          0      54.778  52.486 -19.223  1.00  0.00    -0.286 OA
HETATM    2  C2          0      53.697  53.125 -19.108  1.00  0.00     0.201 C 
HETATM    3  C3          0      53.338  53.791 -17.948  1.00  0.00     0.067 C 
HETATM    4  C4          0      52.096  54.401 -17.813  1.00  0.00     0.103 C 
HETATM    5  O13         0      51.253  54.356 -18.829  1.00  0.00    -0.307 OA
HETATM    6  C14         0      51.529  53.706 -19.939  1.00  0.00     0.107 C 
HETATM    7  C15         0      50.534  53.317 -20.824  1.00  0.00     0.049 C 
HETATM    8  C16         0      50.795  52.419 -21.853  1.00  0.00     0.093 C 
HETATM    9  C18         0      52.121  52.365 -22.263  1.00  0.00     0.048 C 
HETATM   10  C19         0      53.138  52.791 -21.419  1.00  0.00     0.096 C 
HETATM   11  C21         0      52.831  53.283 -20.180  1.00  0.00     0.084 C 
ENDROOT
BRANCH  10  12
HETATM   12  O20         0      54.437  52.343 -21.640  1.00  0.00    -0.359 OA
HETATM   13  H20         0      54.975  52.146 -20.882  1.00  0.00     0.218 HD
ENDBRANCH  10  12
BRANCH   4  14
HETATM   14  C5          0      51.560  54.534 -16.457  1.00  0.00     0.025 C 
HETATM   15  C6          0      51.809  53.607 -15.456  1.00  0.00     0.004 C 
HETATM   16  C7          0      52.011  54.090 -14.166  1.00  0.00     0.026 C 
HETATM   17  C8          0      51.838  55.435 -13.856  1.00  0.00     0.112 C 
HETATM   18  C10         0      51.005  56.128 -14.723  1.00  0.00     0.112 C 
HETATM   19  C12         0      50.888  55.672 -16.031  1.00  0.00     0.028 C 
BRANCH  17  20
HETATM   20  O9          0      52.615  56.043 -12.886  1.00  0.00    -0.357 OA
HETATM   21  H9          0      52.863  55.625 -12.069  1.00  0.00     0.218 HD
ENDBRANCH  17  20
BRANCH  18  22
HETATM   22  O11         0      50.649  57.418 -14.356  1.00  0.00    -0.357 OA
HETATM   23  H11         0      50.005  57.505 -13.662  1.00  0.00     0.218 HD
ENDBRANCH  18  22
ENDBRANCH   4  14
BRANCH   8  24
HETATM   24  O17         0      49.876  51.423 -22.202  1.00  0.00    -0.359 OA
HETATM   25  H17         0      48.961  51.478 -21.951  1.00  0.00     0.218 HD
ENDBRANCH   8  24
TORSDOF 5
ENDMDL
