MODEL 1
REMARK VINA RESULT:      -5.6      0.000      0.000
REMARK  5 active torsions:
REMARK  status: ('A' for Active; 'I' for Inactive)
REMARK    1  A    between atoms: C4_4  and  C5_5 
REMARK    2  A    between atoms: C8_8  and  O9_9 
REMARK    3  A    between atoms: C10_11  and  O11_12 
REMARK    4  A    between atoms: C16_18  and  O17_19 
REMARK    5  A    between atoms: C19_22  and  O20_23 
ROOT
HETATM    1  O1          0      37.908  33.983  -0.077  1.00  0.00    -0.286 OA
HETATM    2  C2          0      37.285  34.836  -0.767  1.00  0.00     0.201 C 
HETATM    3  C3          0      35.903  34.918  -0.790  1.00  0.00     0.067 C 
HETATM    4  C4          0      35.240  35.799  -1.637  1.00  0.00     0.103 C 
HETATM    5  O13         0      35.955  36.587  -2.420  1.00  0.00    -0.307 OA
HETATM    6  C14         0      37.268  36.523  -2.464  1.00  0.00     0.107 C 
HETATM    7  C15         0      37.989  37.034  -3.534  1.00  0.00     0.049 C 
HETATM    8  C16         0      39.337  36.743  -3.701  1.00  0.00     0.093 C 
HETATM    9  C18         0      40.012  36.401  -2.535  1.00  0.00     0.048 C 
HETATM   10  C19         0      39.317  35.930  -1.429  1.00  0.00     0.096 C 
HETATM   11  C21         0      37.954  35.818  -1.482  1.00  0.00     0.084 C 
ENDROOT
BRANCH  10  12
HETATM   12  O20         0      39.995  35.197  -0.461  1.00  0.00    -0.359 OA
HETATM   13  H20         0      40.441  35.674   0.228  1.00  0.00     0.218 HD
ENDBRANCH  10  12
BRANCH   4  14
HETATM   14  C5          0      33.884  35.436  -2.052  1.00  0.00     0.025 C 
HETATM   15  C6          0      33.468  35.470  -3.376  1.00  0.00     0.004 C 
HETATM   16  C7          0      32.615  34.460  -3.810  1.00  0.00     0.026 C 
HETATM   17  C8          0      32.085  33.524  -2.928  1.00  0.00     0.112 C 
HETATM   18  C10         0      32.038  33.937  -1.603  1.00  0.00     0.112 C 
HETATM   19  C12         0      32.958  34.886  -1.174  1.00  0.00     0.028 C 
BRANCH  17  20
HETATM   20  O9          0      31.836  32.226  -3.338  1.00  0.00    -0.357 OA
HETATM   21  H9          0      31.294  31.615  -2.853  1.00  0.00     0.218 HD
ENDBRANCH  17  20
BRANCH  18  22
HETATM   22  O11         0      31.349  33.123  -0.715  1.00  0.00    -0.357 OA
HETATM   23  H11         0      30.649  33.527  -0.216  1.00  0.00     0.218 HD
ENDBRANCH  18  22
ENDBRANCH   4  14
BRANCH   8  24
HETATM   24  O17         0      39.877  36.485  -4.966  1.00  0.00    -0.359 OA
HETATM   25  H17         0      40.232  37.180  -5.507  1.00  0.00     0.218 HD
ENDBRANCH   8  24
TORSDOF 5
ENDMDL
MODEL 2
REMARK VINA RESULT:      -5.3      3.289      5.990
REMARK  5 active torsions:
REMARK  status: ('A' for Active; 'I' for Inactive)
REMARK    1  A    between atoms: C4_4  and  C5_5 
REMARK    2  A    between atoms: C8_8  and  O9_9 
REMARK    3  A    between atoms: C10_11  and  O11_12 
REMARK    4  A    between atoms: C16_18  and  O17_19 
REMARK    5  A    between atoms: C19_22  and  O20_23 
ROOT
HETATM    1  O1          0      35.405  36.740  -2.508  1.00  0.00    -0.286 OA
HETATM    2  C2          0      34.602  35.973  -3.107  1.00  0.00     0.201 C 
HETATM    3  C3          0      34.379  36.038  -4.471  1.00  0.00     0.067 C 
HETATM    4  C4          0      33.414  35.251  -5.090  1.00  0.00     0.103 C 
HETATM    5  O13         0      32.712  34.409  -4.352  1.00  0.00    -0.307 OA
HETATM    6  C14         0      32.858  34.335  -3.047  1.00  0.00     0.107 C 
HETATM    7  C15         0      31.884  33.774  -2.233  1.00  0.00     0.049 C 
HETATM    8  C16         0      31.923  33.925  -0.852  1.00  0.00     0.093 C 
HETATM    9  C18         0      33.185  34.168  -0.323  1.00  0.00     0.048 C 
HETATM   10  C19         0      34.196  34.685  -1.121  1.00  0.00     0.096 C 
HETATM   11  C21         0      33.954  34.942  -2.443  1.00  0.00     0.084 C 
ENDROOT
BRANCH  10  12
HETATM   12  O20         0      35.278  35.321  -0.521  1.00  0.00    -0.359 OA
HETATM   13  H20         0      35.098  36.024   0.091  1.00  0.00     0.218 HD
ENDBRANCH  10  12
BRANCH   4  14
HETATM   14  C5          0      32.823  35.764  -6.327  1.00  0.00     0.025 C 
HETATM   15  C6          0      32.501  34.949  -7.402  1.00  0.00     0.004 C 
HETATM   16  C7          0      31.334  35.236  -8.103  1.00  0.00     0.026 C 
HETATM   17  C8          0      30.582  36.374  -7.831  1.00  0.00     0.112 C 
HETATM   18  C10         0      31.288  37.404  -7.225  1.00  0.00     0.112 C 
HETATM   19  C12         0      32.402  37.081  -6.460  1.00  0.00     0.028 C 
BRANCH  17  20
HETATM   20  O9          0      29.205  36.363  -7.970  1.00  0.00    -0.357 OA
HETATM   21  H9          0      28.741  36.811  -8.667  1.00  0.00     0.218 HD
ENDBRANCH  17  20
BRANCH  18  22
HETATM   22  O11         0      30.638  38.625  -7.104  1.00  0.00    -0.357 OA
HETATM   23  H11         0      30.323  38.860  -6.239  1.00  0.00     0.218 HD
ENDBRANCH  18  22
ENDBRANCH   4  14
BRANCH   8  24
HETATM   24  O17         0      30.758  34.152  -0.111  1.00  0.00    -0.359 OA
HETATM   25  H17         0      30.118  34.804  -0.373  1.00  0.00     0.218 HD
ENDBRANCH   8  24
TORSDOF 5
ENDMDL
MODEL 3
REMARK VINA RESULT:      -5.2     10.859     12.397
REMARK  5 active torsions:
REMARK  status: ('A' for Active; 'I' for Inactive)
REMARK    1  A    between atoms: C4_4  and  C5_5 
REMARK    2  A    between atoms: C8_8  and  O9_9 
REMARK    3  A    between atoms: C10_11  and  O11_12 
REMARK    4  A    between atoms: C16_18  and  O17_19 
REMARK    5  A    between atoms: C19_22  and  O20_23 
ROOT
HETATM    1  O1          0      29.108  29.332  -5.511  1.00  0.00    -0.286 OA
HETATM    2  C2          0      28.010  28.844  -5.127  1.00  0.00     0.201 C 
HETATM    3  C3          0      26.935  29.626  -4.743  1.00  0.00     0.067 C 
HETATM    4  C4          0      25.772  29.064  -4.227  1.00  0.00     0.103 C 
HETATM    5  O13         0      25.695  27.749  -4.123  1.00  0.00    -0.307 OA
HETATM    6  C14         0      26.701  26.963  -4.438  1.00  0.00     0.107 C 
HETATM    7  C15         0      26.784  25.659  -3.971  1.00  0.00     0.049 C 
HETATM    8  C16         0      27.957  24.923  -4.091  1.00  0.00     0.093 C 
HETATM    9  C18         0      28.799  25.324  -5.121  1.00  0.00     0.048 C 
HETATM   10  C19         0      28.711  26.607  -5.645  1.00  0.00     0.096 C 
HETATM   11  C21         0      27.776  27.478  -5.155  1.00  0.00     0.084 C 
ENDROOT
BRANCH  10  12
HETATM   12  O20         0      29.797  27.136  -6.334  1.00  0.00    -0.359 OA
HETATM   13  H20         0      29.632  27.831  -6.960  1.00  0.00     0.218 HD
ENDBRANCH  10  12
BRANCH   4  14
HETATM   14  C5          0      24.974  29.890  -3.319  1.00  0.00     0.025 C 
HETATM   15  C6          0      24.670  29.504  -2.022  1.00  0.00     0.004 C 
HETATM   16  C7          0      24.672  30.489  -1.039  1.00  0.00     0.026 C 
HETATM   17  C8          0      24.839  31.833  -1.354  1.00  0.00     0.112 C 
HETATM   18  C10         0      24.502  32.169  -2.658  1.00  0.00     0.112 C 
HETATM   19  C12         0      24.590  31.187  -3.637  1.00  0.00     0.028 C 
BRANCH  17  20
HETATM   20  O9          0      25.489  32.690  -0.483  1.00  0.00    -0.357 OA
HETATM   21  H9          0      26.185  32.418   0.104  1.00  0.00     0.218 HD
ENDBRANCH  17  20
BRANCH  18  22
HETATM   22  O11         0      24.468  33.521  -2.970  1.00  0.00    -0.357 OA
HETATM   23  H11         0      25.072  34.086  -2.501  1.00  0.00     0.218 HD
ENDBRANCH  18  22
ENDBRANCH   4  14
BRANCH   8  24
HETATM   24  O17         0      28.400  24.085  -3.062  1.00  0.00    -0.359 OA
HETATM   25  H17         0      29.297  23.774  -3.023  1.00  0.00     0.218 HD
ENDBRANCH   8  24
TORSDOF 5
ENDMDL
MODEL 4
REMARK VINA RESULT:      -5.2      1.358      2.895
REMARK  5 active torsions:
REMARK  status: ('A' for Active; 'I' for Inactive)
REMARK    1  A    between atoms: C4_4  and  C5_5 
REMARK    2  A    between atoms: C8_8  and  O9_9 
REMARK    3  A    between atoms: C10_11  and  O11_12 
REMARK    4  A    between atoms: C16_18  and  O17_19 
REMARK    5  A    between atoms: C19_22  and  O20_23 
ROOT
HETATM    1  O1          0      37.284  37.774  -5.135  1.00  0.00    -0.286 OA
HETATM    2  C2          0      36.973  36.862  -4.320  1.00  0.00     0.201 C 
HETATM    3  C3          0      35.720  36.273  -4.294  1.00  0.00     0.067 C 
HETATM    4  C4          0      35.371  35.344  -3.321  1.00  0.00     0.103 C 
HETATM    5  O13         0      36.272  35.007  -2.414  1.00  0.00    -0.307 OA
HETATM    6  C14         0      37.463  35.562  -2.371  1.00  0.00     0.107 C 
HETATM    7  C15         0      38.247  35.522  -1.227  1.00  0.00     0.049 C 
HETATM    8  C16         0      39.379  36.318  -1.100  1.00  0.00     0.093 C 
HETATM    9  C18         0      39.958  36.711  -2.301  1.00  0.00     0.048 C 
HETATM   10  C19         0      39.215  36.718  -3.474  1.00  0.00     0.096 C 
HETATM   11  C21         0      37.906  36.319  -3.450  1.00  0.00     0.084 C 
ENDROOT
BRANCH  10  12
HETATM   12  O20         0      39.640  37.499  -4.544  1.00  0.00    -0.359 OA
HETATM   13  H20         0      40.226  37.104  -5.178  1.00  0.00     0.218 HD
ENDBRANCH  10  12
BRANCH   4  14
HETATM   14  C5          0      33.952  35.232  -2.980  1.00  0.00     0.025 C 
HETATM   15  C6          0      33.090  34.359  -3.628  1.00  0.00     0.004 C 
HETATM   16  C7          0      32.125  33.716  -2.859  1.00  0.00     0.026 C 
HETATM   17  C8          0      31.934  34.029  -1.518  1.00  0.00     0.112 C 
HETATM   18  C10         0      32.371  35.294  -1.150  1.00  0.00     0.112 C 
HETATM   19  C12         0      33.396  35.879  -1.884  1.00  0.00     0.028 C 
BRANCH  17  20
HETATM   20  O9          0      31.538  33.059  -0.614  1.00  0.00    -0.357 OA
HETATM   21  H9          0      31.182  33.253   0.246  1.00  0.00     0.218 HD
ENDBRANCH  17  20
BRANCH  18  22
HETATM   22  O11         0      32.035  35.729   0.125  1.00  0.00    -0.357 OA
HETATM   23  H11         0      31.110  35.843   0.311  1.00  0.00     0.218 HD
ENDBRANCH  18  22
ENDBRANCH   4  14
BRANCH   8  24
HETATM   24  O17         0      39.700  36.943   0.110  1.00  0.00    -0.359 OA
HETATM   25  H17         0      39.894  36.442   0.894  1.00  0.00     0.218 HD
ENDBRANCH   8  24
TORSDOF 5
ENDMDL
MODEL 5
REMARK VINA RESULT:      -5.1      9.539     13.369
REMARK  5 active torsions:
REMARK  status: ('A' for Active; 'I' for Inactive)
REMARK    1  A    between atoms: C4_4  and  C5_5 
REMARK    2  A    between atoms: C8_8  and  O9_9 
REMARK    3  A    between atoms: C10_11  and  O11_12 
REMARK    4  A    between atoms: C16_18  and  O17_19 
REMARK    5  A    between atoms: C19_22  and  O20_23 
ROOT
HETATM    1  O1          0      24.386  29.300  -1.181  1.00  0.00    -0.286 OA
HETATM    2  C2          0      24.278  29.619  -2.397  1.00  0.00     0.201 C 
HETATM    3  C3          0      25.150  29.166  -3.372  1.00  0.00     0.067 C 
HETATM    4  C4          0      25.071  29.615  -4.686  1.00  0.00     0.103 C 
HETATM    5  O13         0      24.124  30.479  -5.005  1.00  0.00    -0.307 OA
HETATM    6  C14         0      23.295  30.970  -4.110  1.00  0.00     0.107 C 
HETATM    7  C15         0      22.585  32.141  -4.336  1.00  0.00     0.049 C 
HETATM    8  C16         0      21.914  32.788  -3.305  1.00  0.00     0.093 C 
HETATM    9  C18         0      21.550  31.974  -2.240  1.00  0.00     0.048 C 
HETATM   10  C19         0      22.208  30.772  -2.012  1.00  0.00     0.096 C 
HETATM   11  C21         0      23.212  30.379  -2.854  1.00  0.00     0.084 C 
ENDROOT
BRANCH  10  12
HETATM   12  O20         0      22.153  30.195  -0.748  1.00  0.00    -0.359 OA
HETATM   13  H20         0      21.394  29.666  -0.532  1.00  0.00     0.218 HD
ENDBRANCH  10  12
BRANCH   4  14
HETATM   14  C5          0      26.303  29.595  -5.475  1.00  0.00     0.025 C 
HETATM   15  C6          0      26.654  30.615  -6.348  1.00  0.00     0.004 C 
HETATM   16  C7          0      27.997  30.971  -6.418  1.00  0.00     0.026 C 
HETATM   17  C8          0      28.978  30.251  -5.746  1.00  0.00     0.112 C 
HETATM   18  C10         0      28.632  28.939  -5.447  1.00  0.00     0.112 C 
HETATM   19  C12         0      27.286  28.629  -5.299  1.00  0.00     0.028 C 
BRANCH  17  20
HETATM   20  O9          0      30.103  30.881  -5.245  1.00  0.00    -0.357 OA
HETATM   21  H9          0      30.893  31.031  -5.752  1.00  0.00     0.218 HD
ENDBRANCH  17  20
BRANCH  18  22
HETATM   22  O11         0      29.637  28.122  -4.949  1.00  0.00    -0.357 OA
HETATM   23  H11         0      29.586  27.890  -4.029  1.00  0.00     0.218 HD
ENDBRANCH  18  22
ENDBRANCH   4  14
BRANCH   8  24
HETATM   24  O17         0      21.913  34.183  -3.199  1.00  0.00    -0.359 OA
HETATM   25  H17         0      21.109  34.687  -3.250  1.00  0.00     0.218 HD
ENDBRANCH   8  24
TORSDOF 5
ENDMDL
MODEL 6
REMARK VINA RESULT:      -5.1     11.679     13.165
REMARK  5 active torsions:
REMARK  status: ('A' for Active; 'I' for Inactive)
REMARK    1  A    between atoms: C4_4  and  C5_5 
REMARK    2  A    between atoms: C8_8  and  O9_9 
REMARK    3  A    between atoms: C10_11  and  O11_12 
REMARK    4  A    between atoms: C16_18  and  O17_19 
REMARK    5  A    between atoms: C19_22  and  O20_23 
ROOT
HETATM    1  O1          0      24.164  32.463  -5.376  1.00  0.00    -0.286 OA
HETATM    2  C2          0      24.751  31.653  -4.607  1.00  0.00     0.201 C 
HETATM    3  C3          0      25.662  30.714  -5.061  1.00  0.00     0.067 C 
HETATM    4  C4          0      26.217  29.766  -4.209  1.00  0.00     0.103 C 
HETATM    5  O13         0      25.875  29.782  -2.933  1.00  0.00    -0.307 OA
HETATM    6  C14         0      24.986  30.627  -2.458  1.00  0.00     0.107 C 
HETATM    7  C15         0      24.335  30.402  -1.254  1.00  0.00     0.049 C 
HETATM    8  C16         0      23.226  31.153  -0.882  1.00  0.00     0.093 C 
HETATM    9  C18         0      23.146  32.411  -1.467  1.00  0.00     0.048 C 
HETATM   10  C19         0      23.823  32.684  -2.648  1.00  0.00     0.096 C 
HETATM   11  C21         0      24.589  31.712  -3.232  1.00  0.00     0.084 C 
ENDROOT
BRANCH  10  12
HETATM   12  O20         0      23.407  33.750  -3.440  1.00  0.00    -0.359 OA
HETATM   13  H20         0      23.368  33.618  -4.379  1.00  0.00     0.218 HD
ENDBRANCH  10  12
BRANCH   4  14
HETATM   14  C5          0      26.653  28.502  -4.806  1.00  0.00     0.025 C 
HETATM   15  C6          0      27.695  28.422  -5.718  1.00  0.00     0.004 C 
HETATM   16  C7          0      28.546  27.325  -5.629  1.00  0.00     0.026 C 
HETATM   17  C8          0      28.293  26.275  -4.752  1.00  0.00     0.112 C 
HETATM   18  C10         0      26.964  26.142  -4.375  1.00  0.00     0.112 C 
HETATM   19  C12         0      26.156  27.273  -4.392  1.00  0.00     0.028 C 
BRANCH  17  20
HETATM   20  O9          0      29.333  25.579  -4.161  1.00  0.00    -0.357 OA
HETATM   21  H9          0      29.629  25.728  -3.271  1.00  0.00     0.218 HD
ENDBRANCH  17  20
BRANCH  18  22
HETATM   22  O11         0      26.625  25.004  -3.657  1.00  0.00    -0.357 OA
HETATM   23  H11         0      25.751  24.656  -3.790  1.00  0.00     0.218 HD
ENDBRANCH  18  22
ENDBRANCH   4  14
BRANCH   8  24
HETATM   24  O17         0      22.125  30.564  -0.250  1.00  0.00    -0.359 OA
HETATM   25  H17         0      21.250  30.623  -0.614  1.00  0.00     0.218 HD
ENDBRANCH   8  24
TORSDOF 5
ENDMDL
MODEL 7
REMARK VINA RESULT:      -5.1     10.545     12.222
REMARK  5 active torsions:
REMARK  status: ('A' for Active; 'I' for Inactive)
REMARK    1  A    between atoms: C4_4  and  C5_5 
REMARK    2  A    between atoms: C8_8  and  O9_9 
REMARK    3  A    between atoms: C10_11  and  O11_12 
REMARK    4  A    between atoms: C16_18  and  O17_19 
REMARK    5  A    between atoms: C19_22  and  O20_23 
ROOT
HETATM    1  O1          0      25.335  26.597  -5.869  1.00  0.00    -0.286 OA
HETATM    2  C2          0      25.797  27.590  -5.243  1.00  0.00     0.201 C 
HETATM    3  C3          0      25.165  28.145  -4.143  1.00  0.00     0.067 C 
HETATM    4  C4          0      25.642  29.301  -3.536  1.00  0.00     0.103 C 
HETATM    5  O13         0      26.736  29.865  -4.015  1.00  0.00    -0.307 OA
HETATM    6  C14         0      27.354  29.401  -5.079  1.00  0.00     0.107 C 
HETATM    7  C15         0      28.234  30.183  -5.813  1.00  0.00     0.049 C 
HETATM    8  C16         0      28.683  29.782  -7.066  1.00  0.00     0.093 C 
HETATM    9  C18         0      28.652  28.411  -7.289  1.00  0.00     0.048 C 
HETATM   10  C19         0      27.817  27.593  -6.541  1.00  0.00     0.096 C 
HETATM   11  C21         0      27.030  28.138  -5.564  1.00  0.00     0.084 C 
ENDROOT
BRANCH  10  12
HETATM   12  O20         0      27.466  26.341  -7.039  1.00  0.00    -0.359 OA
HETATM   13  H20         0      27.179  25.681  -6.420  1.00  0.00     0.218 HD
ENDBRANCH  10  12
BRANCH   4  14
HETATM   14  C5          0      24.668  30.138  -2.832  1.00  0.00     0.025 C 
HETATM   15  C6          0      24.134  29.795  -1.598  1.00  0.00     0.004 C 
HETATM   16  C7          0      23.929  30.818  -0.678  1.00  0.00     0.026 C 
HETATM   17  C8          0      24.119  32.153  -1.017  1.00  0.00     0.112 C 
HETATM   18  C10         0      24.026  32.426  -2.375  1.00  0.00     0.112 C 
HETATM   19  C12         0      24.320  31.408  -3.275  1.00  0.00     0.028 C 
BRANCH  17  20
HETATM   20  O9          0      24.574  33.064  -0.080  1.00  0.00    -0.357 OA
HETATM   21  H9          0      24.224  33.135   0.800  1.00  0.00     0.218 HD
ENDBRANCH  17  20
BRANCH  18  22
HETATM   22  O11         0      24.020  33.762  -2.749  1.00  0.00    -0.357 OA
HETATM   23  H11         0      23.724  33.961  -3.630  1.00  0.00     0.218 HD
ENDBRANCH  18  22
ENDBRANCH   4  14
BRANCH   8  24
HETATM   24  O17         0      28.825  30.696  -8.116  1.00  0.00    -0.359 OA
HETATM   25  H17         0      29.463  31.399  -8.083  1.00  0.00     0.218 HD
ENDBRANCH   8  24
TORSDOF 5
ENDMDL
MODEL 8
REMARK VINA RESULT:      -4.9     10.408     12.388
REMARK  5 active torsions:
REMARK  status: ('A' for Active; 'I' for Inactive)
REMARK    1  A    between atoms: C4_4  and  C5_5 
REMARK    2  A    between atoms: C8_8  and  O9_9 
REMARK    3  A    between atoms: C10_11  and  O11_12 
REMARK    4  A    between atoms: C16_18  and  O17_19 
REMARK    5  A    between atoms: C19_22  and  O20_23 
ROOT
HETATM    1  O1          0      24.987  32.376  -6.337  1.00  0.00    -0.286 OA
HETATM    2  C2          0      25.144  31.427  -5.521  1.00  0.00     0.201 C 
HETATM    3  C3          0      24.387  31.294  -4.370  1.00  0.00     0.067 C 
HETATM    4  C4          0      24.650  30.297  -3.436  1.00  0.00     0.103 C 
HETATM    5  O13         0      25.635  29.449  -3.674  1.00  0.00    -0.307 OA
HETATM    6  C14         0      26.407  29.553  -4.732  1.00  0.00     0.107 C 
HETATM    7  C15         0      27.654  28.946  -4.790  1.00  0.00     0.049 C 
HETATM    8  C16         0      28.565  29.264  -5.790  1.00  0.00     0.093 C 
HETATM    9  C18         0      28.004  29.764  -6.959  1.00  0.00     0.048 C 
HETATM   10  C19         0      26.739  30.335  -6.946  1.00  0.00     0.096 C 
HETATM   11  C21         0      26.032  30.393  -5.776  1.00  0.00     0.084 C 
ENDROOT
BRANCH  10  12
HETATM   12  O20         0      26.373  31.200  -7.972  1.00  0.00    -0.359 OA
HETATM   13  H20         0      25.928  32.006  -7.738  1.00  0.00     0.218 HD
ENDBRANCH  10  12
BRANCH   4  14
HETATM   14  C5          0      24.266  30.561  -2.049  1.00  0.00     0.025 C 
HETATM   15  C6          0      25.063  31.283  -1.172  1.00  0.00     0.004 C 
HETATM   16  C7          0      24.428  32.146  -0.285  1.00  0.00     0.026 C 
HETATM   17  C8          0      23.042  32.191  -0.177  1.00  0.00     0.112 C 
HETATM   18  C10         0      22.390  31.040  -0.597  1.00  0.00     0.112 C 
HETATM   19  C12         0      23.010  30.239  -1.549  1.00  0.00     0.028 C 
BRANCH  17  20
HETATM   20  O9          0      22.393  33.376   0.124  1.00  0.00    -0.357 OA
HETATM   21  H9          0      22.023  33.956  -0.532  1.00  0.00     0.218 HD
ENDBRANCH  17  20
BRANCH  18  22
HETATM   22  O11         0      21.029  30.958  -0.338  1.00  0.00    -0.357 OA
HETATM   23  H11         0      20.441  31.182  -1.050  1.00  0.00     0.218 HD
ENDBRANCH  18  22
ENDBRANCH   4  14
BRANCH   8  24
HETATM   24  O17         0      29.932  29.391  -5.518  1.00  0.00    -0.359 OA
HETATM   25  H17         0      30.358  30.239  -5.487  1.00  0.00     0.218 HD
ENDBRANCH   8  24
TORSDOF 5
ENDMDL
MODEL 9
REMARK VINA RESULT:      -4.8     11.527     13.324
REMARK  5 active torsions:
REMARK  status: ('A' for Active; 'I' for Inactive)
REMARK    1  A    between atoms: C4_4  and  C5_5 
REMARK    2  A    between atoms: C8_8  and  O9_9 
REMARK    3  A    between atoms: C10_11  and  O11_12 
REMARK    4  A    between atoms: C16_18  and  O17_19 
REMARK    5  A    between atoms: C19_22  and  O20_23 
ROOT
HETATM    1  O1          0      23.702  32.354  -5.356  1.00  0.00    -0.286 OA
HETATM    2  C2          0      24.408  31.692  -4.547  1.00  0.00     0.201 C 
HETATM    3  C3          0      25.352  30.766  -4.958  1.00  0.00     0.067 C 
HETATM    4  C4          0      26.043  29.976  -4.046  1.00  0.00     0.103 C 
HETATM    5  O13         0      25.802  30.135  -2.757  1.00  0.00    -0.307 OA
HETATM    6  C14         0      24.890  30.973  -2.315  1.00  0.00     0.107 C 
HETATM    7  C15         0      24.354  30.865  -1.040  1.00  0.00     0.049 C 
HETATM    8  C16         0      23.222  31.582  -0.669  1.00  0.00     0.093 C 
HETATM    9  C18         0      22.999  32.744  -1.397  1.00  0.00     0.048 C 
HETATM   10  C19         0      23.559  32.905  -2.658  1.00  0.00     0.096 C 
HETATM   11  C21         0      24.351  31.919  -3.180  1.00  0.00     0.084 C 
ENDROOT
BRANCH  10  12
HETATM   12  O20         0      23.001  33.829  -3.536  1.00  0.00    -0.359 OA
HETATM   13  H20         0      23.232  34.743  -3.427  1.00  0.00     0.218 HD
ENDBRANCH  10  12
BRANCH   4  14
HETATM   14  C5          0      26.528  28.677  -4.517  1.00  0.00     0.025 C 
HETATM   15  C6          0      25.757  27.525  -4.469  1.00  0.00     0.004 C 
HETATM   16  C7          0      25.857  26.637  -5.536  1.00  0.00     0.026 C 
HETATM   17  C8          0      26.790  26.820  -6.552  1.00  0.00     0.112 C 
HETATM   18  C10         0      27.888  27.592  -6.198  1.00  0.00     0.112 C 
HETATM   19  C12         0      27.737  28.531  -5.185  1.00  0.00     0.028 C 
BRANCH  17  20
HETATM   20  O9          0      26.509  26.432  -7.850  1.00  0.00    -0.357 OA
HETATM   21  H9          0      26.994  25.761  -8.317  1.00  0.00     0.218 HD
ENDBRANCH  17  20
BRANCH  18  22
HETATM   22  O11         0      28.935  27.649  -7.107  1.00  0.00    -0.357 OA
HETATM   23  H11         0      29.776  27.318  -6.816  1.00  0.00     0.218 HD
ENDBRANCH  18  22
ENDBRANCH   4  14
BRANCH   8  24
HETATM   24  O17         0      22.224  31.008   0.125  1.00  0.00    -0.359 OA
HETATM   25  H17         0      22.145  31.208   1.050  1.00  0.00     0.218 HD
ENDBRANCH   8  24
TORSDOF 5
ENDMDL
