MODEL 1
REMARK VINA RESULT:      -5.8      0.000      0.000
REMARK  5 active torsions:
REMARK  status: ('A' for Active; 'I' for Inactive)
REMARK    1  A    between atoms: C4_4  and  C5_5 
REMARK    2  A    between atoms: C8_8  and  O9_9 
REMARK    3  A    between atoms: C10_11  and  O11_12 
REMARK    4  A    between atoms: C16_18  and  O17_19 
REMARK    5  A    between atoms: C19_22  and  O20_23 
ROOT
HETATM    1  O1          0      51.247  67.271  -1.703  1.00  0.00    -0.286 OA
HETATM    2  C2          0      51.540  68.225  -2.474  1.00  0.00     0.201 C 
HETATM    3  C3          0      51.198  69.540  -2.205  1.00  0.00     0.067 C 
HETATM    4  C4          0      51.441  70.558  -3.121  1.00  0.00     0.103 C 
HETATM    5  O13         0      52.032  70.256  -4.263  1.00  0.00    -0.307 OA
HETATM    6  C14         0      52.344  69.019  -4.584  1.00  0.00     0.107 C 
HETATM    7  C15         0      52.583  68.643  -5.898  1.00  0.00     0.049 C 
HETATM    8  C16         0      52.659  67.304  -6.263  1.00  0.00     0.093 C 
HETATM    9  C18         0      53.013  66.436  -5.238  1.00  0.00     0.048 C 
HETATM   10  C19         0      52.831  66.799  -3.910  1.00  0.00     0.096 C 
HETATM   11  C21         0      52.313  68.029  -3.608  1.00  0.00     0.084 C 
ENDROOT
BRANCH  10  12
HETATM   12  O20         0      52.768  65.808  -2.936  1.00  0.00    -0.359 OA
HETATM   13  H20         0      53.222  64.990  -3.103  1.00  0.00     0.218 HD
ENDBRANCH  10  12
BRANCH   4  14
HETATM   14  C5          0      50.564  71.729  -3.068  1.00  0.00     0.025 C 
HETATM   15  C6          0      50.069  72.245  -1.880  1.00  0.00     0.004 C 
HETATM   16  C7          0      49.981  73.628  -1.764  1.00  0.00     0.026 C 
HETATM   17  C8          0      50.249  74.468  -2.840  1.00  0.00     0.112 C 
HETATM   18  C10         0      50.108  73.875  -4.087  1.00  0.00     0.112 C 
HETATM   19  C12         0      50.285  72.501  -4.189  1.00  0.00     0.028 C 
BRANCH  17  20
HETATM   20  O9          0      50.811  75.717  -2.641  1.00  0.00    -0.357 OA
HETATM   21  H9          0      50.760  76.425  -3.272  1.00  0.00     0.218 HD
ENDBRANCH  17  20
BRANCH  18  22
HETATM   22  O11         0      50.178  74.712  -5.192  1.00  0.00    -0.357 OA
HETATM   23  H11         0      49.595  74.517  -5.917  1.00  0.00     0.218 HD
ENDBRANCH  18  22
ENDBRANCH   4  14
BRANCH   8  24
HETATM   24  O17         0      52.098  66.842  -7.458  1.00  0.00    -0.359 OA
HETATM   25  H17         0      52.488  67.038  -8.302  1.00  0.00     0.218 HD
ENDBRANCH   8  24
TORSDOF 5
ENDMDL
MODEL 2
REMARK VINA RESULT:      -5.8      2.322      7.086
REMARK  5 active torsions:
REMARK  status: ('A' for Active; 'I' for Inactive)
REMARK    1  A    between atoms: C4_4  and  C5_5 
REMARK    2  A    between atoms: C8_8  and  O9_9 
REMARK    3  A    between atoms: C10_11  and  O11_12 
REMARK    4  A    between atoms: C16_18  and  O17_19 
REMARK    5  A    between atoms: C19_22  and  O20_23 
ROOT
HETATM    1  O1          0      53.253  67.643  -1.124  1.00  0.00    -0.286 OA
HETATM    2  C2          0      52.693  67.521  -2.248  1.00  0.00     0.201 C 
HETATM    3  C3          0      53.012  66.512  -3.140  1.00  0.00     0.067 C 
HETATM    4  C4          0      52.454  66.461  -4.412  1.00  0.00     0.103 C 
HETATM    5  O13         0      51.584  67.393  -4.762  1.00  0.00    -0.307 OA
HETATM    6  C14         0      51.275  68.393  -3.967  1.00  0.00     0.107 C 
HETATM    7  C15         0      50.697  69.559  -4.450  1.00  0.00     0.049 C 
HETATM    8  C16         0      50.608  70.700  -3.662  1.00  0.00     0.093 C 
HETATM    9  C18         0      50.615  70.469  -2.292  1.00  0.00     0.048 C 
HETATM   10  C19         0      51.142  69.293  -1.777  1.00  0.00     0.096 C 
HETATM   11  C21         0      51.644  68.345  -2.627  1.00  0.00     0.084 C 
ENDROOT
BRANCH  10  12
HETATM   12  O20         0      51.542  69.252  -0.445  1.00  0.00    -0.359 OA
HETATM   13  H20         0      52.247  68.660  -0.210  1.00  0.00     0.218 HD
ENDBRANCH  10  12
BRANCH   4  14
HETATM   14  C5          0      53.233  65.796  -5.459  1.00  0.00     0.025 C 
HETATM   15  C6          0      53.489  66.379  -6.691  1.00  0.00     0.004 C 
HETATM   16  C7          0      54.744  66.172  -7.254  1.00  0.00     0.026 C 
HETATM   17  C8          0      55.668  65.306  -6.679  1.00  0.00     0.112 C 
HETATM   18  C10         0      55.115  64.330  -5.860  1.00  0.00     0.112 C 
HETATM   19  C12         0      53.899  64.597  -5.242  1.00  0.00     0.028 C 
BRANCH  17  20
HETATM   20  O9          0      57.025  65.559  -6.765  1.00  0.00    -0.357 OA
HETATM   21  H9          0      57.667  65.208  -6.158  1.00  0.00     0.218 HD
ENDBRANCH  17  20
BRANCH  18  22
HETATM   22  O11         0      55.966  63.329  -5.414  1.00  0.00    -0.357 OA
HETATM   23  H11         0      55.577  62.630  -4.902  1.00  0.00     0.218 HD
ENDBRANCH  18  22
ENDBRANCH   4  14
BRANCH   8  24
HETATM   24  O17         0      50.835  71.974  -4.195  1.00  0.00    -0.359 OA
HETATM   25  H17         0      51.707  72.348  -4.237  1.00  0.00     0.218 HD
ENDBRANCH   8  24
TORSDOF 5
ENDMDL
MODEL 3
REMARK VINA RESULT:      -5.5      1.745      2.581
REMARK  5 active torsions:
REMARK  status: ('A' for Active; 'I' for Inactive)
REMARK    1  A    between atoms: C4_4  and  C5_5 
REMARK    2  A    between atoms: C8_8  and  O9_9 
REMARK    3  A    between atoms: C10_11  and  O11_12 
REMARK    4  A    between atoms: C16_18  and  O17_19 
REMARK    5  A    between atoms: C19_22  and  O20_23 
ROOT
HETATM    1  O1          0      50.449  68.244  -5.520  1.00  0.00    -0.286 OA
HETATM    2  C2          0      50.607  68.859  -4.430  1.00  0.00     0.201 C 
HETATM    3  C3          0      50.030  70.091  -4.174  1.00  0.00     0.067 C 
HETATM    4  C4          0      50.303  70.794  -3.006  1.00  0.00     0.103 C 
HETATM    5  O13         0      51.119  70.256  -2.117  1.00  0.00    -0.307 OA
HETATM    6  C14         0      51.723  69.107  -2.327  1.00  0.00     0.107 C 
HETATM    7  C15         0      52.854  68.734  -1.616  1.00  0.00     0.049 C 
HETATM    8  C16         0      53.630  67.651  -2.011  1.00  0.00     0.093 C 
HETATM    9  C18         0      52.962  66.694  -2.764  1.00  0.00     0.048 C 
HETATM   10  C19         0      51.801  67.021  -3.451  1.00  0.00     0.096 C 
HETATM   11  C21         0      51.301  68.292  -3.372  1.00  0.00     0.084 C 
ENDROOT
BRANCH  10  12
HETATM   12  O20         0      51.394  66.224  -4.517  1.00  0.00    -0.359 OA
HETATM   13  H20         0      50.661  65.637  -4.380  1.00  0.00     0.218 HD
ENDBRANCH  10  12
BRANCH   4  14
HETATM   14  C5          0      50.180  72.252  -3.058  1.00  0.00     0.025 C 
HETATM   15  C6          0      50.502  73.073  -1.986  1.00  0.00     0.004 C 
HETATM   16  C7          0      51.127  74.284  -2.267  1.00  0.00     0.026 C 
HETATM   17  C8          0      51.305  74.727  -3.573  1.00  0.00     0.112 C 
HETATM   18  C10         0      50.422  74.183  -4.495  1.00  0.00     0.112 C 
HETATM   19  C12         0      49.877  72.932  -4.230  1.00  0.00     0.028 C 
BRANCH  17  20
HETATM   20  O9          0      52.413  75.480  -3.921  1.00  0.00    -0.357 OA
HETATM   21  H9          0      53.284  75.118  -4.028  1.00  0.00     0.218 HD
ENDBRANCH  17  20
BRANCH  18  22
HETATM   22  O11         0      50.430  74.729  -5.771  1.00  0.00    -0.357 OA
HETATM   23  H11         0      51.279  74.930  -6.147  1.00  0.00     0.218 HD
ENDBRANCH  18  22
ENDBRANCH   4  14
BRANCH   8  24
HETATM   24  O17         0      55.028  67.694  -1.946  1.00  0.00    -0.359 OA
HETATM   25  H17         0      55.549  66.902  -1.888  1.00  0.00     0.218 HD
ENDBRANCH   8  24
TORSDOF 5
ENDMDL
MODEL 4
REMARK VINA RESULT:      -5.5      1.591      6.579
REMARK  5 active torsions:
REMARK  status: ('A' for Active; 'I' for Inactive)
REMARK    1  A    between atoms: C4_4  and  C5_5 
REMARK    2  A    between atoms: C8_8  and  O9_9 
REMARK    3  A    between atoms: C10_11  and  O11_12 
REMARK    4  A    between atoms: C16_18  and  O17_19 
REMARK    5  A    between atoms: C19_22  and  O20_23 
ROOT
HETATM    1  O1          0      53.810  72.014  -1.610  1.00  0.00    -0.286 OA
HETATM    2  C2          0      52.692  71.607  -2.030  1.00  0.00     0.201 C 
HETATM    3  C3          0      52.382  70.264  -2.156  1.00  0.00     0.067 C 
HETATM    4  C4          0      51.181  69.843  -2.718  1.00  0.00     0.103 C 
HETATM    5  O13         0      50.314  70.756  -3.118  1.00  0.00    -0.307 OA
HETATM    6  C14         0      50.574  72.043  -3.056  1.00  0.00     0.107 C 
HETATM    7  C15         0      49.875  72.968  -3.817  1.00  0.00     0.049 C 
HETATM    8  C16         0      50.315  74.281  -3.942  1.00  0.00     0.093 C 
HETATM    9  C18         0      51.116  74.733  -2.900  1.00  0.00     0.048 C 
HETATM   10  C19         0      51.793  73.832  -2.088  1.00  0.00     0.096 C 
HETATM   11  C21         0      51.658  72.488  -2.306  1.00  0.00     0.084 C 
ENDROOT
BRANCH  10  12
HETATM   12  O20         0      52.896  74.268  -1.362  1.00  0.00    -0.359 OA
HETATM   13  H20         0      53.006  75.203  -1.236  1.00  0.00     0.218 HD
ENDBRANCH  10  12
BRANCH   4  14
HETATM   14  C5          0      51.167  68.527  -3.359  1.00  0.00     0.025 C 
HETATM   15  C6          0      50.657  68.316  -4.632  1.00  0.00     0.004 C 
HETATM   16  C7          0      51.326  67.415  -5.453  1.00  0.00     0.026 C 
HETATM   17  C8          0      52.385  66.647  -4.982  1.00  0.00     0.112 C 
HETATM   18  C10         0      52.400  66.460  -3.606  1.00  0.00     0.112 C 
HETATM   19  C12         0      51.797  67.421  -2.803  1.00  0.00     0.028 C 
BRANCH  17  20
HETATM   20  O9          0      53.433  66.297  -5.816  1.00  0.00    -0.357 OA
HETATM   21  H9          0      53.317  65.883  -6.663  1.00  0.00     0.218 HD
ENDBRANCH  17  20
BRANCH  18  22
HETATM   22  O11         0      53.321  65.551  -3.105  1.00  0.00    -0.357 OA
HETATM   23  H11         0      53.367  64.705  -3.534  1.00  0.00     0.218 HD
ENDBRANCH  18  22
ENDBRANCH   4  14
BRANCH   8  24
HETATM   24  O17         0      50.242  74.962  -5.162  1.00  0.00    -0.359 OA
HETATM   25  H17         0      51.000  75.055  -5.728  1.00  0.00     0.218 HD
ENDBRANCH   8  24
TORSDOF 5
ENDMDL
MODEL 5
REMARK VINA RESULT:      -5.3      3.318      5.236
REMARK  5 active torsions:
REMARK  status: ('A' for Active; 'I' for Inactive)
REMARK    1  A    between atoms: C4_4  and  C5_5 
REMARK    2  A    between atoms: C8_8  and  O9_9 
REMARK    3  A    between atoms: C10_11  and  O11_12 
REMARK    4  A    between atoms: C16_18  and  O17_19 
REMARK    5  A    between atoms: C19_22  and  O20_23 
ROOT
HETATM    1  O1          0      56.474  65.500  -1.637  1.00  0.00    -0.286 OA
HETATM    2  C2          0      55.844  65.806  -2.686  1.00  0.00     0.201 C 
HETATM    3  C3          0      54.784  66.697  -2.692  1.00  0.00     0.067 C 
HETATM    4  C4          0      54.041  66.938  -3.842  1.00  0.00     0.103 C 
HETATM    5  O13         0      54.375  66.311  -4.956  1.00  0.00    -0.307 OA
HETATM    6  C14         0      55.347  65.427  -4.996  1.00  0.00     0.107 C 
HETATM    7  C15         0      55.445  64.493  -6.018  1.00  0.00     0.049 C 
HETATM    8  C16         0      56.311  63.411  -5.926  1.00  0.00     0.093 C 
HETATM    9  C18         0      57.397  63.598  -5.078  1.00  0.00     0.048 C 
HETATM   10  C19         0      57.351  64.556  -4.075  1.00  0.00     0.096 C 
HETATM   11  C21         0      56.235  65.334  -3.929  1.00  0.00     0.084 C 
ENDROOT
BRANCH  10  12
HETATM   12  O20         0      58.217  64.448  -2.991  1.00  0.00    -0.359 OA
HETATM   13  H20         0      59.045  64.004  -3.125  1.00  0.00     0.218 HD
ENDBRANCH  10  12
BRANCH   4  14
HETATM   14  C5          0      52.653  67.370  -3.664  1.00  0.00     0.025 C 
HETATM   15  C6          0      52.233  68.120  -2.576  1.00  0.00     0.004 C 
HETATM   16  C7          0      51.284  69.112  -2.804  1.00  0.00     0.026 C 
HETATM   17  C8          0      50.674  69.265  -4.045  1.00  0.00     0.112 C 
HETATM   18  C10         0      50.677  68.125  -4.837  1.00  0.00     0.112 C 
HETATM   19  C12         0      51.687  67.190  -4.645  1.00  0.00     0.028 C 
BRANCH  17  20
HETATM   20  O9          0      50.299  70.517  -4.500  1.00  0.00    -0.357 OA
HETATM   21  H9          0      50.081  70.706  -5.406  1.00  0.00     0.218 HD
ENDBRANCH  17  20
BRANCH  18  22
HETATM   22  O11         0      49.921  68.166  -6.000  1.00  0.00    -0.357 OA
HETATM   23  H11         0      48.978  68.224  -5.898  1.00  0.00     0.218 HD
ENDBRANCH  18  22
ENDBRANCH   4  14
BRANCH   8  24
HETATM   24  O17         0      55.940  62.139  -6.375  1.00  0.00    -0.359 OA
HETATM   25  H17         0      55.182  61.687  -6.022  1.00  0.00     0.218 HD
ENDBRANCH   8  24
TORSDOF 5
ENDMDL
MODEL 6
REMARK VINA RESULT:      -5.3      1.826      6.705
REMARK  5 active torsions:
REMARK  status: ('A' for Active; 'I' for Inactive)
REMARK    1  A    between atoms: C4_4  and  C5_5 
REMARK    2  A    between atoms: C8_8  and  O9_9 
REMARK    3  A    between atoms: C10_11  and  O11_12 
REMARK    4  A    between atoms: C16_18  and  O17_19 
REMARK    5  A    between atoms: C19_22  and  O20_23 
ROOT
HETATM    1  O1          0      53.139  73.320  -0.881  1.00  0.00    -0.286 OA
HETATM    2  C2          0      52.481  72.924  -1.882  1.00  0.00     0.201 C 
HETATM    3  C3          0      52.423  71.595  -2.264  1.00  0.00     0.067 C 
HETATM    4  C4          0      51.775  71.199  -3.429  1.00  0.00     0.103 C 
HETATM    5  O13         0      51.186  72.119  -4.172  1.00  0.00    -0.307 OA
HETATM    6  C14         0      51.243  73.399  -3.875  1.00  0.00     0.107 C 
HETATM    7  C15         0      50.991  74.381  -4.821  1.00  0.00     0.049 C 
HETATM    8  C16         0      51.297  75.715  -4.577  1.00  0.00     0.093 C 
HETATM    9  C18         0      51.346  76.069  -3.234  1.00  0.00     0.048 C 
HETATM   10  C19         0      51.550  75.105  -2.257  1.00  0.00     0.096 C 
HETATM   11  C21         0      51.688  73.792  -2.617  1.00  0.00     0.084 C 
ENDROOT
BRANCH  10  12
HETATM   12  O20         0      52.026  75.492  -1.008  1.00  0.00    -0.359 OA
HETATM   13  H20         0      51.620  76.243  -0.590  1.00  0.00     0.218 HD
ENDBRANCH  10  12
BRANCH   4  14
HETATM   14  C5          0      52.243  69.969  -4.071  1.00  0.00     0.025 C 
HETATM   15  C6          0      53.210  69.148  -3.509  1.00  0.00     0.004 C 
HETATM   16  C7          0      53.048  67.773  -3.646  1.00  0.00     0.026 C 
HETATM   17  C8          0      52.034  67.233  -4.429  1.00  0.00     0.112 C 
HETATM   18  C10         0      51.549  68.081  -5.415  1.00  0.00     0.112 C 
HETATM   19  C12         0      51.647  69.452  -5.214  1.00  0.00     0.028 C 
BRANCH  17  20
HETATM   20  O9          0      51.438  66.032  -4.086  1.00  0.00    -0.357 OA
HETATM   21  H9          0      51.556  65.226  -4.576  1.00  0.00     0.218 HD
ENDBRANCH  17  20
BRANCH  18  22
HETATM   22  O11         0      50.673  67.531  -6.341  1.00  0.00    -0.357 OA
HETATM   23  H11         0      49.997  66.955  -6.005  1.00  0.00     0.218 HD
ENDBRANCH  18  22
ENDBRANCH   4  14
BRANCH   8  24
HETATM   24  O17         0      51.840  76.533  -5.574  1.00  0.00    -0.359 OA
HETATM   25  H17         0      52.530  77.158  -5.386  1.00  0.00     0.218 HD
ENDBRANCH   8  24
TORSDOF 5
ENDMDL
MODEL 7
REMARK VINA RESULT:      -5.3      2.213      6.486
REMARK  5 active torsions:
REMARK  status: ('A' for Active; 'I' for Inactive)
REMARK    1  A    between atoms: C4_4  and  C5_5 
REMARK    2  A    between atoms: C8_8  and  O9_9 
REMARK    3  A    between atoms: C10_11  and  O11_12 
REMARK    4  A    between atoms: C16_18  and  O17_19 
REMARK    5  A    between atoms: C19_22  and  O20_23 
ROOT
HETATM    1  O1          0      54.763  72.735  -2.931  1.00  0.00    -0.286 OA
HETATM    2  C2          0      53.519  72.527  -2.949  1.00  0.00     0.201 C 
HETATM    3  C3          0      52.938  71.400  -2.392  1.00  0.00     0.067 C 
HETATM    4  C4          0      51.577  71.146  -2.516  1.00  0.00     0.103 C 
HETATM    5  O13         0      50.825  72.017  -3.165  1.00  0.00    -0.307 OA
HETATM    6  C14         0      51.331  73.083  -3.744  1.00  0.00     0.107 C 
HETATM    7  C15         0      50.649  73.769  -4.739  1.00  0.00     0.049 C 
HETATM    8  C16         0      51.283  74.728  -5.519  1.00  0.00     0.093 C 
HETATM    9  C18         0      52.394  75.322  -4.932  1.00  0.00     0.048 C 
HETATM   10  C19         0      53.072  74.685  -3.903  1.00  0.00     0.096 C 
HETATM   11  C21         0      52.634  73.470  -3.450  1.00  0.00     0.084 C 
ENDROOT
BRANCH  10  12
HETATM   12  O20         0      54.387  75.048  -3.627  1.00  0.00    -0.359 OA
HETATM   13  H20         0      55.079  74.616  -4.114  1.00  0.00     0.218 HD
ENDBRANCH  10  12
BRANCH   4  14
HETATM   14  C5          0      51.150  69.746  -2.465  1.00  0.00     0.025 C 
HETATM   15  C6          0      50.855  69.008  -3.601  1.00  0.00     0.004 C 
HETATM   16  C7          0      51.242  67.671  -3.620  1.00  0.00     0.026 C 
HETATM   17  C8          0      51.783  67.053  -2.498  1.00  0.00     0.112 C 
HETATM   18  C10         0      51.453  67.653  -1.290  1.00  0.00     0.112 C 
HETATM   19  C12         0      51.153  69.010  -1.287  1.00  0.00     0.028 C 
BRANCH  17  20
HETATM   20  O9          0      52.735  66.057  -2.627  1.00  0.00    -0.357 OA
HETATM   21  H9          0      53.579  66.185  -3.043  1.00  0.00     0.218 HD
ENDBRANCH  17  20
BRANCH  18  22
HETATM   22  O11         0      51.806  66.973  -0.133  1.00  0.00    -0.357 OA
HETATM   23  H11         0      51.107  66.773   0.479  1.00  0.00     0.218 HD
ENDBRANCH  18  22
ENDBRANCH   4  14
BRANCH   8  24
HETATM   24  O17         0      51.030  74.835  -6.892  1.00  0.00    -0.359 OA
HETATM   25  H17         0      51.509  75.444  -7.441  1.00  0.00     0.218 HD
ENDBRANCH   8  24
TORSDOF 5
ENDMDL
MODEL 8
REMARK VINA RESULT:      -5.2      3.791      6.661
REMARK  5 active torsions:
REMARK  status: ('A' for Active; 'I' for Inactive)
REMARK    1  A    between atoms: C4_4  and  C5_5 
REMARK    2  A    between atoms: C8_8  and  O9_9 
REMARK    3  A    between atoms: C10_11  and  O11_12 
REMARK    4  A    between atoms: C16_18  and  O17_19 
REMARK    5  A    between atoms: C19_22  and  O20_23 
ROOT
HETATM    1  O1          0      53.383  71.086  -2.795  1.00  0.00    -0.286 OA
HETATM    2  C2          0      53.002  70.111  -2.092  1.00  0.00     0.201 C 
HETATM    3  C3          0      53.383  69.942  -0.772  1.00  0.00     0.067 C 
HETATM    4  C4          0      53.033  68.806  -0.052  1.00  0.00     0.103 C 
HETATM    5  O13         0      52.300  67.880  -0.644  1.00  0.00    -0.307 OA
HETATM    6  C14         0      51.942  67.973  -1.906  1.00  0.00     0.107 C 
HETATM    7  C15         0      51.536  66.864  -2.634  1.00  0.00     0.049 C 
HETATM    8  C16         0      51.406  66.917  -4.017  1.00  0.00     0.093 C 
HETATM    9  C18         0      51.178  68.185  -4.537  1.00  0.00     0.048 C 
HETATM   10  C19         0      51.530  69.318  -3.815  1.00  0.00     0.096 C 
HETATM   11  C21         0      52.089  69.184  -2.573  1.00  0.00     0.084 C 
ENDROOT
BRANCH  10  12
HETATM   12  O20         0      51.709  70.524  -4.485  1.00  0.00    -0.359 OA
HETATM   13  H20         0      51.106  70.737  -5.187  1.00  0.00     0.218 HD
ENDBRANCH  10  12
BRANCH   4  14
HETATM   14  C5          0      53.916  68.409   1.046  1.00  0.00     0.025 C 
HETATM   15  C6          0      53.452  68.140   2.326  1.00  0.00     0.004 C 
HETATM   16  C7          0      54.047  67.092   3.020  1.00  0.00     0.026 C 
HETATM   17  C8          0      55.155  66.419   2.516  1.00  0.00     0.112 C 
HETATM   18  C10         0      55.903  67.142   1.595  1.00  0.00     0.112 C 
HETATM   19  C12         0      55.263  68.127   0.853  1.00  0.00     0.028 C 
BRANCH  17  20
HETATM   20  O9          0      55.343  65.072   2.771  1.00  0.00    -0.357 OA
HETATM   21  H9          0      56.189  64.685   2.964  1.00  0.00     0.218 HD
ENDBRANCH  17  20
BRANCH  18  22
HETATM   22  O11         0      57.117  66.596   1.205  1.00  0.00    -0.357 OA
HETATM   23  H11         0      57.217  65.655   1.301  1.00  0.00     0.218 HD
ENDBRANCH  18  22
ENDBRANCH   4  14
BRANCH   8  24
HETATM   24  O17         0      51.808  65.850  -4.829  1.00  0.00    -0.359 OA
HETATM   25  H17         0      52.157  65.991  -5.701  1.00  0.00     0.218 HD
ENDBRANCH   8  24
TORSDOF 5
ENDMDL
MODEL 9
REMARK VINA RESULT:      -4.9     11.200     14.171
REMARK  5 active torsions:
REMARK  status: ('A' for Active; 'I' for Inactive)
REMARK    1  A    between atoms: C4_4  and  C5_5 
REMARK    2  A    between atoms: C8_8  and  O9_9 
REMARK    3  A    between atoms: C10_11  and  O11_12 
REMARK    4  A    between atoms: C16_18  and  O17_19 
REMARK    5  A    between atoms: C19_22  and  O20_23 
ROOT
HETATM    1  O1          0      63.819  66.294   2.785  1.00  0.00    -0.286 OA
HETATM    2  C2          0      63.117  65.250   2.696  1.00  0.00     0.201 C 
HETATM    3  C3          0      62.475  64.875   1.528  1.00  0.00     0.067 C 
HETATM    4  C4          0      61.625  63.775   1.485  1.00  0.00     0.103 C 
HETATM    5  O13         0      61.450  63.065   2.585  1.00  0.00    -0.307 OA
HETATM    6  C14         0      62.006  63.399   3.729  1.00  0.00     0.107 C 
HETATM    7  C15         0      61.529  62.922   4.941  1.00  0.00     0.049 C 
HETATM    8  C16         0      61.949  63.470   6.148  1.00  0.00     0.093 C 
HETATM    9  C18         0      63.192  64.089   6.110  1.00  0.00     0.048 C 
HETATM   10  C19         0      63.721  64.536   4.907  1.00  0.00     0.096 C 
HETATM   11  C21         0      63.021  64.350   3.746  1.00  0.00     0.084 C 
ENDROOT
BRANCH  10  12
HETATM   12  O20         0      64.714  65.511   4.921  1.00  0.00    -0.359 OA
HETATM   13  H20         0      64.448  66.415   5.045  1.00  0.00     0.218 HD
ENDBRANCH  10  12
BRANCH   4  14
HETATM   14  C5          0      60.562  63.789   0.478  1.00  0.00     0.025 C 
HETATM   15  C6          0      60.495  62.867  -0.557  1.00  0.00     0.004 C 
HETATM   16  C7          0      59.236  62.404  -0.926  1.00  0.00     0.026 C 
HETATM   17  C8          0      58.074  62.936  -0.380  1.00  0.00     0.112 C 
HETATM   18  C10         0      58.208  64.222   0.128  1.00  0.00     0.112 C 
HETATM   19  C12         0      59.461  64.630   0.570  1.00  0.00     0.028 C 
BRANCH  17  20
HETATM   20  O9          0      56.956  62.145  -0.184  1.00  0.00    -0.357 OA
HETATM   21  H9          0      56.950  61.365   0.359  1.00  0.00     0.218 HD
ENDBRANCH  17  20
BRANCH  18  22
HETATM   22  O11         0      57.043  64.870   0.512  1.00  0.00    -0.357 OA
HETATM   23  H11         0      56.221  64.463   0.262  1.00  0.00     0.218 HD
ENDBRANCH  18  22
ENDBRANCH   4  14
BRANCH   8  24
HETATM   24  O17         0      61.056  63.676   7.205  1.00  0.00    -0.359 OA
HETATM   25  H17         0      60.375  63.046   7.414  1.00  0.00     0.218 HD
ENDBRANCH   8  24
TORSDOF 5
ENDMDL
