MODEL 1
REMARK VINA RESULT:      -2.7      0.000      0.000
REMARK  5 active torsions:
REMARK  status: ('A' for Active; 'I' for Inactive)
REMARK    1  A    between atoms: C4_4  and  C5_5 
REMARK    2  A    between atoms: C8_8  and  O9_9 
REMARK    3  A    between atoms: C10_11  and  O11_12 
REMARK    4  A    between atoms: C16_18  and  O17_19 
REMARK    5  A    between atoms: C19_22  and  O20_23 
ROOT
HETATM    1  O1          0      19.665  26.741  16.725  1.00  0.00    -0.286 OA
HETATM    2  C2          0      19.741  26.116  15.632  1.00  0.00     0.201 C 
HETATM    3  C3          0      19.823  26.755  14.406  1.00  0.00     0.067 C 
HETATM    4  C4          0      19.803  26.044  13.211  1.00  0.00     0.103 C 
HETATM    5  O13         0      19.724  24.726  13.258  1.00  0.00    -0.307 OA
HETATM    6  C14         0      19.607  24.073  14.393  1.00  0.00     0.107 C 
HETATM    7  C15         0      19.131  22.770  14.442  1.00  0.00     0.049 C 
HETATM    8  C16         0      18.770  22.178  15.646  1.00  0.00     0.093 C 
HETATM    9  C18         0      19.387  22.712  16.771  1.00  0.00     0.048 C 
HETATM   10  C19         0      19.916  23.995  16.743  1.00  0.00     0.096 C 
HETATM   11  C21         0      19.845  24.734  15.593  1.00  0.00     0.084 C 
ENDROOT
BRANCH  10  12
HETATM   12  O20         0      20.125  24.671  17.941  1.00  0.00    -0.359 OA
HETATM   13  H20         0      20.964  24.564  18.372  1.00  0.00     0.218 HD
ENDBRANCH  10  12
BRANCH   4  14
HETATM   14  C5          0      19.294  26.739  12.027  1.00  0.00     0.025 C 
HETATM   15  C6          0      18.586  26.094  11.023  1.00  0.00     0.004 C 
HETATM   16  C7          0      17.523  26.777  10.442  1.00  0.00     0.026 C 
HETATM   17  C8          0      17.254  28.106  10.752  1.00  0.00     0.112 C 
HETATM   18  C10         0      18.341  28.819  11.241  1.00  0.00     0.112 C 
HETATM   19  C12         0      19.350  28.120  11.893  1.00  0.00     0.028 C 
BRANCH  17  20
HETATM   20  O9          0      15.955  28.582  10.762  1.00  0.00    -0.357 OA
HETATM   21  H9          0      15.719  29.477  10.546  1.00  0.00     0.218 HD
ENDBRANCH  17  20
BRANCH  18  22
HETATM   22  O11         0      18.179  30.189  11.387  1.00  0.00    -0.357 OA
HETATM   23  H11         0      18.000  30.688  10.598  1.00  0.00     0.218 HD
ENDBRANCH  18  22
ENDBRANCH   4  14
BRANCH   8  24
HETATM   24  O17         0      17.641  21.358  15.745  1.00  0.00    -0.359 OA
HETATM   25  H17         0      17.679  20.505  16.161  1.00  0.00     0.218 HD
ENDBRANCH   8  24
TORSDOF 5
ENDMDL
MODEL 2
REMARK VINA RESULT:      -2.5      2.658      3.802
REMARK  5 active torsions:
REMARK  status: ('A' for Active; 'I' for Inactive)
REMARK    1  A    between atoms: C4_4  and  C5_5 
REMARK    2  A    between atoms: C8_8  and  O9_9 
REMARK    3  A    between atoms: C10_11  and  O11_12 
REMARK    4  A    between atoms: C16_18  and  O17_19 
REMARK    5  A    between atoms: C19_22  and  O20_23 
ROOT
HETATM    1  O1          0      17.255  28.312  14.405  1.00  0.00    -0.286 OA
HETATM    2  C2          0      17.749  27.366  13.733  1.00  0.00     0.201 C 
HETATM    3  C3          0      17.322  27.051  12.454  1.00  0.00     0.067 C 
HETATM    4  C4          0      17.812  25.941  11.776  1.00  0.00     0.103 C 
HETATM    5  O13         0      18.722  25.186  12.366  1.00  0.00    -0.307 OA
HETATM    6  C14         0      19.135  25.419  13.592  1.00  0.00     0.107 C 
HETATM    7  C15         0      19.761  24.442  14.351  1.00  0.00     0.049 C 
HETATM    8  C16         0      19.964  24.606  15.716  1.00  0.00     0.093 C 
HETATM    9  C18         0      20.009  25.926  16.148  1.00  0.00     0.048 C 
HETATM   10  C19         0      19.433  26.937  15.390  1.00  0.00     0.096 C 
HETATM   11  C21         0      18.829  26.633  14.200  1.00  0.00     0.084 C 
ENDROOT
BRANCH  10  12
HETATM   12  O20         0      19.097  28.140  16.003  1.00  0.00    -0.359 OA
HETATM   13  H20         0      18.265  28.191  16.457  1.00  0.00     0.218 HD
ENDBRANCH  10  12
BRANCH   4  14
HETATM   14  C5          0      16.941  25.335  10.766  1.00  0.00     0.025 C 
HETATM   15  C6          0      17.244  24.139  10.132  1.00  0.00     0.004 C 
HETATM   16  C7          0      16.195  23.262   9.875  1.00  0.00     0.026 C 
HETATM   17  C8          0      14.872  23.616  10.117  1.00  0.00     0.112 C 
HETATM   18  C10         0      14.632  24.983  10.134  1.00  0.00     0.112 C 
HETATM   19  C12         0      15.677  25.833  10.478  1.00  0.00     0.028 C 
BRANCH  17  20
HETATM   20  O9          0      13.946  22.668  10.514  1.00  0.00    -0.357 OA
HETATM   21  H9          0      13.333  22.248   9.922  1.00  0.00     0.218 HD
ENDBRANCH  17  20
BRANCH  18  22
HETATM   22  O11         0      13.306  25.388  10.182  1.00  0.00    -0.357 OA
HETATM   23  H11         0      12.912  25.669   9.364  1.00  0.00     0.218 HD
ENDBRANCH  18  22
ENDBRANCH   4  14
BRANCH   8  24
HETATM   24  O17         0      19.793  23.545  16.612  1.00  0.00    -0.359 OA
HETATM   25  H17         0      19.097  23.545  17.259  1.00  0.00     0.218 HD
ENDBRANCH   8  24
TORSDOF 5
ENDMDL
MODEL 3
REMARK VINA RESULT:      -2.3      3.984      6.408
REMARK  5 active torsions:
REMARK  status: ('A' for Active; 'I' for Inactive)
REMARK    1  A    between atoms: C4_4  and  C5_5 
REMARK    2  A    between atoms: C8_8  and  O9_9 
REMARK    3  A    between atoms: C10_11  and  O11_12 
REMARK    4  A    between atoms: C16_18  and  O17_19 
REMARK    5  A    between atoms: C19_22  and  O20_23 
ROOT
HETATM    1  O1          0      15.451  27.865  17.909  1.00  0.00    -0.286 OA
HETATM    2  C2          0      16.612  28.232  17.578  1.00  0.00     0.201 C 
HETATM    3  C3          0      17.325  27.630  16.555  1.00  0.00     0.067 C 
HETATM    4  C4          0      18.641  27.984  16.278  1.00  0.00     0.103 C 
HETATM    5  O13         0      19.208  28.933  17.001  1.00  0.00    -0.307 OA
HETATM    6  C14         0      18.589  29.511  18.007  1.00  0.00     0.107 C 
HETATM    7  C15         0      19.281  30.193  18.997  1.00  0.00     0.049 C 
HETATM    8  C16         0      18.658  30.577  20.179  1.00  0.00     0.093 C 
HETATM    9  C18         0      17.280  30.729  20.093  1.00  0.00     0.048 C 
HETATM   10  C19         0      16.561  30.099  19.087  1.00  0.00     0.096 C 
HETATM   11  C21         0      17.218  29.334  18.161  1.00  0.00     0.084 C 
ENDROOT
BRANCH  10  12
HETATM   12  O20         0      15.195  29.892  19.252  1.00  0.00    -0.359 OA
HETATM   13  H20         0      14.672  30.615  19.577  1.00  0.00     0.218 HD
ENDBRANCH  10  12
BRANCH   4  14
HETATM   14  C5          0      19.492  26.967  15.658  1.00  0.00     0.025 C 
HETATM   15  C6          0      20.061  25.924  16.374  1.00  0.00     0.004 C 
HETATM   16  C7          0      20.125  24.678  15.758  1.00  0.00     0.026 C 
HETATM   17  C8          0      19.760  24.503  14.427  1.00  0.00     0.112 C 
HETATM   18  C10         0      19.822  25.654  13.653  1.00  0.00     0.112 C 
HETATM   19  C12         0      19.670  26.883  14.283  1.00  0.00     0.028 C 
BRANCH  17  20
HETATM   20  O9          0      19.185  23.319  14.000  1.00  0.00    -0.357 OA
HETATM   21  H9          0      19.684  22.552  13.745  1.00  0.00     0.218 HD
ENDBRANCH  17  20
BRANCH  18  22
HETATM   22  O11         0      19.653  25.500  12.284  1.00  0.00    -0.357 OA
HETATM   23  H11         0      20.197  24.851  11.854  1.00  0.00     0.218 HD
ENDBRANCH  18  22
ENDBRANCH   4  14
BRANCH   8  24
HETATM   24  O17         0      19.313  30.483  21.412  1.00  0.00    -0.359 OA
HETATM   25  H17         0      18.832  30.407  22.228  1.00  0.00     0.218 HD
ENDBRANCH   8  24
TORSDOF 5
ENDMDL
MODEL 4
REMARK VINA RESULT:      -2.3      3.597      5.309
REMARK  5 active torsions:
REMARK  status: ('A' for Active; 'I' for Inactive)
REMARK    1  A    between atoms: C4_4  and  C5_5 
REMARK    2  A    between atoms: C8_8  and  O9_9 
REMARK    3  A    between atoms: C10_11  and  O11_12 
REMARK    4  A    between atoms: C16_18  and  O17_19 
REMARK    5  A    between atoms: C19_22  and  O20_23 
ROOT
HETATM    1  O1          0      17.831  24.569  17.900  1.00  0.00    -0.286 OA
HETATM    2  C2          0      18.501  25.555  17.485  1.00  0.00     0.201 C 
HETATM    3  C3          0      18.519  26.777  18.135  1.00  0.00     0.067 C 
HETATM    4  C4          0      19.182  27.877  17.602  1.00  0.00     0.103 C 
HETATM    5  O13         0      19.825  27.736  16.457  1.00  0.00    -0.307 OA
HETATM    6  C14         0      19.809  26.608  15.780  1.00  0.00     0.107 C 
HETATM    7  C15         0      20.124  26.561  14.430  1.00  0.00     0.049 C 
HETATM    8  C16         0      19.862  25.430  13.666  1.00  0.00     0.093 C 
HETATM    9  C18         0      19.791  24.242  14.383  1.00  0.00     0.048 C 
HETATM   10  C19         0      19.524  24.255  15.745  1.00  0.00     0.096 C 
HETATM   11  C21         0      19.346  25.448  16.391  1.00  0.00     0.084 C 
ENDROOT
BRANCH  10  12
HETATM   12  O20         0      19.030  23.104  16.352  1.00  0.00    -0.359 OA
HETATM   13  H20         0      19.467  22.792  17.135  1.00  0.00     0.218 HD
ENDBRANCH  10  12
BRANCH   4  14
HETATM   14  C5          0      18.686  29.203  17.973  1.00  0.00     0.025 C 
HETATM   15  C6          0      19.499  30.184  18.521  1.00  0.00     0.004 C 
HETATM   16  C7          0      19.282  31.499  18.121  1.00  0.00     0.026 C 
HETATM   17  C8          0      18.207  31.846  17.309  1.00  0.00     0.112 C 
HETATM   18  C10         0      17.141  30.957  17.346  1.00  0.00     0.112 C 
HETATM   19  C12         0      17.400  29.629  17.666  1.00  0.00     0.028 C 
BRANCH  17  20
HETATM   20  O9          0      18.314  32.880  16.396  1.00  0.00    -0.357 OA
HETATM   21  H9          0      18.998  33.539  16.422  1.00  0.00     0.218 HD
ENDBRANCH  17  20
BRANCH  18  22
HETATM   22  O11         0      15.974  31.348  16.706  1.00  0.00    -0.357 OA
HETATM   23  H11         0      15.775  32.277  16.706  1.00  0.00     0.218 HD
ENDBRANCH  18  22
ENDBRANCH   4  14
BRANCH   8  24
HETATM   24  O17         0      19.378  25.530  12.357  1.00  0.00    -0.359 OA
HETATM   25  H17         0      19.143  26.367  11.974  1.00  0.00     0.218 HD
ENDBRANCH   8  24
TORSDOF 5
ENDMDL
MODEL 5
REMARK VINA RESULT:      -2.2      2.649      3.866
REMARK  5 active torsions:
REMARK  status: ('A' for Active; 'I' for Inactive)
REMARK    1  A    between atoms: C4_4  and  C5_5 
REMARK    2  A    between atoms: C8_8  and  O9_9 
REMARK    3  A    between atoms: C10_11  and  O11_12 
REMARK    4  A    between atoms: C16_18  and  O17_19 
REMARK    5  A    between atoms: C19_22  and  O20_23 
ROOT
HETATM    1  O1          0      15.698  28.254  16.041  1.00  0.00    -0.286 OA
HETATM    2  C2          0      16.705  27.966  15.338  1.00  0.00     0.201 C 
HETATM    3  C3          0      16.679  27.966  13.954  1.00  0.00     0.067 C 
HETATM    4  C4          0      17.772  27.545  13.205  1.00  0.00     0.103 C 
HETATM    5  O13         0      18.864  27.156  13.838  1.00  0.00    -0.307 OA
HETATM    6  C14         0      18.928  27.101  15.151  1.00  0.00     0.107 C 
HETATM    7  C15         0      19.885  26.338  15.804  1.00  0.00     0.049 C 
HETATM    8  C16         0      19.795  26.079  17.166  1.00  0.00     0.093 C 
HETATM    9  C18         0      19.064  27.011  17.894  1.00  0.00     0.048 C 
HETATM   10  C19         0      18.131  27.823  17.264  1.00  0.00     0.096 C 
HETATM   11  C21         0      17.942  27.718  15.913  1.00  0.00     0.084 C 
ENDROOT
BRANCH  10  12
HETATM   12  O20         0      17.125  28.416  18.019  1.00  0.00    -0.359 OA
HETATM   13  H20         0      17.378  29.054  18.676  1.00  0.00     0.218 HD
ENDBRANCH  10  12
BRANCH   4  14
HETATM   14  C5          0      17.501  27.006  11.870  1.00  0.00     0.025 C 
HETATM   15  C6          0      18.468  26.936  10.878  1.00  0.00     0.004 C 
HETATM   16  C7          0      18.466  25.814  10.054  1.00  0.00     0.026 C 
HETATM   17  C8          0      17.457  24.859  10.125  1.00  0.00     0.112 C 
HETATM   18  C10         0      16.260  25.319  10.659  1.00  0.00     0.112 C 
HETATM   19  C12         0      16.301  26.387  11.547  1.00  0.00     0.028 C 
BRANCH  17  20
HETATM   20  O9          0      17.725  23.525   9.875  1.00  0.00    -0.357 OA
HETATM   21  H9          0      18.588  23.136   9.958  1.00  0.00     0.218 HD
ENDBRANCH  17  20
BRANCH  18  22
HETATM   22  O11         0      15.168  24.466  10.579  1.00  0.00    -0.357 OA
HETATM   23  H11         0      14.508  24.673   9.929  1.00  0.00     0.218 HD
ENDBRANCH  18  22
ENDBRANCH   4  14
BRANCH   8  24
HETATM   24  O17         0      20.117  24.823  17.693  1.00  0.00    -0.359 OA
HETATM   25  H17         0      19.558  24.067  17.558  1.00  0.00     0.218 HD
ENDBRANCH   8  24
TORSDOF 5
ENDMDL
MODEL 6
REMARK VINA RESULT:      -2.2      2.215      3.055
REMARK  5 active torsions:
REMARK  status: ('A' for Active; 'I' for Inactive)
REMARK    1  A    between atoms: C4_4  and  C5_5 
REMARK    2  A    between atoms: C8_8  and  O9_9 
REMARK    3  A    between atoms: C10_11  and  O11_12 
REMARK    4  A    between atoms: C16_18  and  O17_19 
REMARK    5  A    between atoms: C19_22  and  O20_23 
ROOT
HETATM    1  O1          0      19.330  26.484  14.970  1.00  0.00    -0.286 OA
HETATM    2  C2          0      19.051  26.377  13.744  1.00  0.00     0.201 C 
HETATM    3  C3          0      19.399  27.336  12.808  1.00  0.00     0.067 C 
HETATM    4  C4          0      18.990  27.243  11.483  1.00  0.00     0.103 C 
HETATM    5  O13         0      18.269  26.199  11.113  1.00  0.00    -0.307 OA
HETATM    6  C14         0      17.880  25.279  11.969  1.00  0.00     0.107 C 
HETATM    7  C15         0      16.822  24.425  11.693  1.00  0.00     0.049 C 
HETATM    8  C16         0      16.254  23.636  12.687  1.00  0.00     0.093 C 
HETATM    9  C18         0      17.091  23.349  13.758  1.00  0.00     0.048 C 
HETATM   10  C19         0      18.186  24.156  14.034  1.00  0.00     0.096 C 
HETATM   11  C21         0      18.454  25.234  13.235  1.00  0.00     0.084 C 
ENDROOT
BRANCH  10  12
HETATM   12  O20         0      18.742  24.136  15.310  1.00  0.00    -0.359 OA
HETATM   13  H20         0      18.764  24.950  15.799  1.00  0.00     0.218 HD
ENDBRANCH  10  12
BRANCH   4  14
HETATM   14  C5          0      18.854  28.494  10.734  1.00  0.00     0.025 C 
HETATM   15  C6          0      17.742  28.790   9.960  1.00  0.00     0.004 C 
HETATM   16  C7          0      17.287  30.105   9.963  1.00  0.00     0.026 C 
HETATM   17  C8          0      17.989  31.119  10.604  1.00  0.00     0.112 C 
HETATM   18  C10         0      19.342  30.863  10.783  1.00  0.00     0.112 C 
HETATM   19  C12         0      19.759  29.539  10.862  1.00  0.00     0.028 C 
BRANCH  17  20
HETATM   20  O9          0      17.324  32.181  11.191  1.00  0.00    -0.357 OA
HETATM   21  H9          0      17.242  32.299  12.130  1.00  0.00     0.218 HD
ENDBRANCH  17  20
BRANCH  18  22
HETATM   22  O11         0      20.125  31.912  11.245  1.00  0.00    -0.357 OA
HETATM   23  H11         0      19.723  32.773  11.260  1.00  0.00     0.218 HD
ENDBRANCH  18  22
ENDBRANCH   4  14
BRANCH   8  24
HETATM   24  O17         0      14.871  23.441  12.760  1.00  0.00    -0.359 OA
HETATM   25  H17         0      14.448  22.699  12.343  1.00  0.00     0.218 HD
ENDBRANCH   8  24
TORSDOF 5
ENDMDL
MODEL 7
REMARK VINA RESULT:      -2.2      1.851      6.570
REMARK  5 active torsions:
REMARK  status: ('A' for Active; 'I' for Inactive)
REMARK    1  A    between atoms: C4_4  and  C5_5 
REMARK    2  A    between atoms: C8_8  and  O9_9 
REMARK    3  A    between atoms: C10_11  and  O11_12 
REMARK    4  A    between atoms: C16_18  and  O17_19 
REMARK    5  A    between atoms: C19_22  and  O20_23 
ROOT
HETATM    1  O1          0      17.815  28.426  15.647  1.00  0.00    -0.286 OA
HETATM    2  C2          0      17.964  27.368  14.977  1.00  0.00     0.201 C 
HETATM    3  C3          0      18.331  26.162  15.550  1.00  0.00     0.067 C 
HETATM    4  C4          0      18.588  25.036  14.777  1.00  0.00     0.103 C 
HETATM    5  O13         0      18.455  25.123  13.465  1.00  0.00    -0.307 OA
HETATM    6  C14         0      18.146  26.253  12.867  1.00  0.00     0.107 C 
HETATM    7  C15         0      18.393  26.458  11.517  1.00  0.00     0.049 C 
HETATM    8  C16         0      18.303  27.724  10.951  1.00  0.00     0.093 C 
HETATM    9  C18         0      17.475  28.612  11.627  1.00  0.00     0.048 C 
HETATM   10  C19         0      17.170  28.412  12.966  1.00  0.00     0.096 C 
HETATM   11  C21         0      17.674  27.322  13.622  1.00  0.00     0.084 C 
ENDROOT
BRANCH  10  12
HETATM   12  O20         0      16.728  29.487  13.731  1.00  0.00    -0.359 OA
HETATM   13  H20         0      15.813  29.508  13.983  1.00  0.00     0.218 HD
ENDBRANCH  10  12
BRANCH   4  14
HETATM   14  C5          0      19.510  24.041  15.327  1.00  0.00     0.025 C 
HETATM   15  C6          0      19.984  24.095  16.630  1.00  0.00     0.004 C 
HETATM   16  C7          0      20.125  22.892  17.315  1.00  0.00     0.026 C 
HETATM   17  C8          0      19.930  21.667  16.685  1.00  0.00     0.112 C 
HETATM   18  C10         0      20.090  21.692  15.306  1.00  0.00     0.112 C 
HETATM   19  C12         0      19.860  22.888  14.636  1.00  0.00     0.028 C 
BRANCH  17  20
HETATM   20  O9          0      19.414  20.588  17.379  1.00  0.00    -0.357 OA
HETATM   21  H9          0      19.924  19.825  17.626  1.00  0.00     0.218 HD
ENDBRANCH  17  20
BRANCH  18  22
HETATM   22  O11         0      20.095  20.469  14.652  1.00  0.00    -0.357 OA
HETATM   23  H11         0      19.632  20.422  13.823  1.00  0.00     0.218 HD
ENDBRANCH  18  22
ENDBRANCH   4  14
BRANCH   8  24
HETATM   24  O17         0      19.224  28.160   9.992  1.00  0.00    -0.359 OA
HETATM   25  H17         0      19.017  28.859   9.383  1.00  0.00     0.218 HD
ENDBRANCH   8  24
TORSDOF 5
ENDMDL
MODEL 8
REMARK VINA RESULT:      -2.1      2.486      3.323
REMARK  5 active torsions:
REMARK  status: ('A' for Active; 'I' for Inactive)
REMARK    1  A    between atoms: C4_4  and  C5_5 
REMARK    2  A    between atoms: C8_8  and  O9_9 
REMARK    3  A    between atoms: C10_11  and  O11_12 
REMARK    4  A    between atoms: C16_18  and  O17_19 
REMARK    5  A    between atoms: C19_22  and  O20_23 
ROOT
HETATM    1  O1          0      19.339  28.495  18.539  1.00  0.00    -0.286 OA
HETATM    2  C2          0      19.531  27.384  17.972  1.00  0.00     0.201 C 
HETATM    3  C3          0      19.875  27.274  16.635  1.00  0.00     0.067 C 
HETATM    4  C4          0      19.980  26.036  16.010  1.00  0.00     0.103 C 
HETATM    5  O13         0      19.764  24.945  16.723  1.00  0.00    -0.307 OA
HETATM    6  C14         0      19.399  24.995  17.985  1.00  0.00     0.107 C 
HETATM    7  C15         0      18.794  23.916  18.614  1.00  0.00     0.049 C 
HETATM    8  C16         0      18.183  24.054  19.855  1.00  0.00     0.093 C 
HETATM    9  C18         0      18.658  25.106  20.629  1.00  0.00     0.048 C 
HETATM   10  C19         0      19.309  26.180  20.037  1.00  0.00     0.096 C 
HETATM   11  C21         0      19.501  26.194  18.682  1.00  0.00     0.084 C 
ENDROOT
BRANCH  10  12
HETATM   12  O20         0      19.386  27.390  20.719  1.00  0.00    -0.359 OA
HETATM   13  H20         0      19.909  27.422  21.511  1.00  0.00     0.218 HD
ENDBRANCH  10  12
BRANCH   4  14
HETATM   14  C5          0      19.743  25.993  14.566  1.00  0.00     0.025 C 
HETATM   15  C6          0      18.992  24.999  13.956  1.00  0.00     0.004 C 
HETATM   16  C7          0      18.166  25.371  12.901  1.00  0.00     0.026 C 
HETATM   17  C8          0      18.183  26.660  12.380  1.00  0.00     0.112 C 
HETATM   18  C10         0      19.360  27.361  12.607  1.00  0.00     0.112 C 
HETATM   19  C12         0      20.125  27.025  13.718  1.00  0.00     0.028 C 
BRANCH  17  20
HETATM   20  O9          0      17.032  27.236  11.873  1.00  0.00    -0.357 OA
HETATM   21  H9          0      16.199  27.243  12.332  1.00  0.00     0.218 HD
ENDBRANCH  17  20
BRANCH  18  22
HETATM   22  O11         0      19.505  28.575  11.951  1.00  0.00    -0.357 OA
HETATM   23  H11         0      18.985  29.302  12.272  1.00  0.00     0.218 HD
ENDBRANCH  18  22
ENDBRANCH   4  14
BRANCH   8  24
HETATM   24  O17         0      16.977  23.409  20.150  1.00  0.00    -0.359 OA
HETATM   25  H17         0      16.140  23.845  20.044  1.00  0.00     0.218 HD
ENDBRANCH   8  24
TORSDOF 5
ENDMDL
MODEL 9
REMARK VINA RESULT:      -2.1      1.457      6.980
REMARK  5 active torsions:
REMARK  status: ('A' for Active; 'I' for Inactive)
REMARK    1  A    between atoms: C4_4  and  C5_5 
REMARK    2  A    between atoms: C8_8  and  O9_9 
REMARK    3  A    between atoms: C10_11  and  O11_12 
REMARK    4  A    between atoms: C16_18  and  O17_19 
REMARK    5  A    between atoms: C19_22  and  O20_23 
ROOT
HETATM    1  O1          0      15.393  27.075  11.895  1.00  0.00    -0.286 OA
HETATM    2  C2          0      16.654  27.066  11.921  1.00  0.00     0.201 C 
HETATM    3  C3          0      17.383  26.172  12.687  1.00  0.00     0.067 C 
HETATM    4  C4          0      18.768  26.250  12.777  1.00  0.00     0.103 C 
HETATM    5  O13         0      19.396  27.190  12.094  1.00  0.00    -0.307 OA
HETATM    6  C14         0      18.750  28.087  11.381  1.00  0.00     0.107 C 
HETATM    7  C15         0      19.341  29.283  11.002  1.00  0.00     0.049 C 
HETATM    8  C16         0      18.587  30.326  10.476  1.00  0.00     0.093 C 
HETATM    9  C18         0      17.394  29.943   9.875  1.00  0.00     0.048 C 
HETATM   10  C19         0      16.800  28.730  10.197  1.00  0.00     0.096 C 
HETATM   11  C21         0      17.401  27.898  11.101  1.00  0.00     0.084 C 
ENDROOT
BRANCH  10  12
HETATM   12  O20         0      15.443  28.551   9.947  1.00  0.00    -0.359 OA
HETATM   13  H20         0      14.913  29.323   9.790  1.00  0.00     0.218 HD
ENDBRANCH  10  12
BRANCH   4  14
HETATM   14  C5          0      19.390  25.727  13.995  1.00  0.00     0.025 C 
HETATM   15  C6          0      20.124  26.521  14.864  1.00  0.00     0.004 C 
HETATM   16  C7          0      19.991  26.279  16.227  1.00  0.00     0.026 C 
HETATM   17  C8          0      19.258  25.198  16.707  1.00  0.00     0.112 C 
HETATM   18  C10         0      19.114  24.150  15.808  1.00  0.00     0.112 C 
HETATM   19  C12         0      19.167  24.434  14.449  1.00  0.00     0.028 C 
BRANCH  17  20
HETATM   20  O9          0      18.567  25.286  17.903  1.00  0.00    -0.357 OA
HETATM   21  H9          0      18.615  24.631  18.589  1.00  0.00     0.218 HD
ENDBRANCH  17  20
BRANCH  18  22
HETATM   22  O11         0      18.559  22.976  16.296  1.00  0.00    -0.357 OA
HETATM   23  H11         0      17.936  22.529  15.734  1.00  0.00     0.218 HD
ENDBRANCH  18  22
ENDBRANCH   4  14
BRANCH   8  24
HETATM   24  O17         0      18.841  31.657  10.825  1.00  0.00    -0.359 OA
HETATM   25  H17         0      19.189  31.892  11.677  1.00  0.00     0.218 HD
ENDBRANCH   8  24
TORSDOF 5
ENDMDL
