MODEL 1
REMARK VINA RESULT:      -6.1      0.000      0.000
REMARK  5 active torsions:
REMARK  status: ('A' for Active; 'I' for Inactive)
REMARK    1  A    between atoms: C4_4  and  C5_5 
REMARK    2  A    between atoms: C8_8  and  O9_9 
REMARK    3  A    between atoms: C10_11  and  O11_12 
REMARK    4  A    between atoms: C16_18  and  O17_19 
REMARK    5  A    between atoms: C19_22  and  O20_23 
ROOT
HETATM    1  O1          0       7.157  66.468  -2.915  1.00  0.00    -0.286 OA
HETATM    2  C2          0       6.954  66.760  -4.125  1.00  0.00     0.201 C 
HETATM    3  C3          0       5.736  67.227  -4.590  1.00  0.00     0.067 C 
HETATM    4  C4          0       5.508  67.444  -5.944  1.00  0.00     0.103 C 
HETATM    5  O13         0       6.490  67.214  -6.798  1.00  0.00    -0.307 OA
HETATM    6  C14         0       7.653  66.735  -6.414  1.00  0.00     0.107 C 
HETATM    7  C15         0       8.523  66.125  -7.306  1.00  0.00     0.049 C 
HETATM    8  C16         0       9.622  65.400  -6.861  1.00  0.00     0.093 C 
HETATM    9  C18         0      10.088  65.755  -5.600  1.00  0.00     0.048 C 
HETATM   10  C19         0       9.258  66.408  -4.700  1.00  0.00     0.096 C 
HETATM   11  C21         0       7.976  66.720  -5.061  1.00  0.00     0.084 C 
ENDROOT
BRANCH  10  12
HETATM   12  O20         0       9.562  66.368  -3.342  1.00  0.00    -0.359 OA
HETATM   13  H20         0      10.292  65.829  -3.065  1.00  0.00     0.218 HD
ENDBRANCH  10  12
BRANCH   4  14
HETATM   14  C5          0       4.126  67.340  -6.416  1.00  0.00     0.025 C 
HETATM   15  C6          0       3.035  67.667  -5.624  1.00  0.00     0.004 C 
HETATM   16  C7          0       1.963  68.309  -6.236  1.00  0.00     0.026 C 
HETATM   17  C8          0       1.917  68.499  -7.613  1.00  0.00     0.112 C 
HETATM   18  C10         0       2.695  67.613  -8.347  1.00  0.00     0.112 C 
HETATM   19  C12         0       3.810  67.052  -7.737  1.00  0.00     0.028 C 
BRANCH  17  20
HETATM   20  O9          0       1.309  69.618  -8.154  1.00  0.00    -0.357 OA
HETATM   21  H9          0       0.568  69.581  -8.748  1.00  0.00     0.218 HD
ENDBRANCH  17  20
BRANCH  18  22
HETATM   22  O11         0       2.540  67.636  -9.726  1.00  0.00    -0.357 OA
HETATM   23  H11         0       1.690  67.898 -10.059  1.00  0.00     0.218 HD
ENDBRANCH  18  22
ENDBRANCH   4  14
BRANCH   8  24
HETATM   24  O17         0      10.003  64.202  -7.475  1.00  0.00    -0.359 OA
HETATM   25  H17         0       9.906  63.364  -7.039  1.00  0.00     0.218 HD
ENDBRANCH   8  24
TORSDOF 5
ENDMDL
MODEL 2
REMARK VINA RESULT:      -5.9      2.818      3.477
REMARK  5 active torsions:
REMARK  status: ('A' for Active; 'I' for Inactive)
REMARK    1  A    between atoms: C4_4  and  C5_5 
REMARK    2  A    between atoms: C8_8  and  O9_9 
REMARK    3  A    between atoms: C10_11  and  O11_12 
REMARK    4  A    between atoms: C16_18  and  O17_19 
REMARK    5  A    between atoms: C19_22  and  O20_23 
ROOT
HETATM    1  O1          0       6.950  65.822  -3.223  1.00  0.00    -0.286 OA
HETATM    2  C2          0       7.016  65.684  -4.475  1.00  0.00     0.201 C 
HETATM    3  C3          0       5.909  65.415  -5.261  1.00  0.00     0.067 C 
HETATM    4  C4          0       6.025  65.165  -6.624  1.00  0.00     0.103 C 
HETATM    5  O13         0       7.224  65.209  -7.177  1.00  0.00    -0.307 OA
HETATM    6  C14         0       8.312  65.424  -6.470  1.00  0.00     0.107 C 
HETATM    7  C15         0       9.571  65.082  -6.945  1.00  0.00     0.049 C 
HETATM    8  C16         0      10.679  65.073  -6.107  1.00  0.00     0.093 C 
HETATM    9  C18         0      10.580  65.896  -4.992  1.00  0.00     0.048 C 
HETATM   10  C19         0       9.338  66.296  -4.519  1.00  0.00     0.096 C 
HETATM   11  C21         0       8.202  65.889  -5.164  1.00  0.00     0.084 C 
ENDROOT
BRANCH  10  12
HETATM   12  O20         0       9.219  66.731  -3.202  1.00  0.00    -0.359 OA
HETATM   13  H20         0       8.640  66.249  -2.624  1.00  0.00     0.218 HD
ENDBRANCH  10  12
BRANCH   4  14
HETATM   14  C5          0       4.994  64.331  -7.242  1.00  0.00     0.025 C 
HETATM   15  C6          0       3.735  64.811  -7.572  1.00  0.00     0.004 C 
HETATM   16  C7          0       3.161  64.356  -8.755  1.00  0.00     0.026 C 
HETATM   17  C8          0       3.755  63.357  -9.517  1.00  0.00     0.112 C 
HETATM   18  C10         0       4.621  62.529  -8.814  1.00  0.00     0.112 C 
HETATM   19  C12         0       5.247  63.038  -7.682  1.00  0.00     0.028 C 
BRANCH  17  20
HETATM   20  O9          0       3.637  63.351 -10.896  1.00  0.00    -0.357 OA
HETATM   21  H9          0       2.811  63.254 -11.354  1.00  0.00     0.218 HD
ENDBRANCH  17  20
BRANCH  18  22
HETATM   22  O11         0       5.093  61.405  -9.477  1.00  0.00    -0.357 OA
HETATM   23  H11         0       4.562  60.619  -9.423  1.00  0.00     0.218 HD
ENDBRANCH  18  22
ENDBRANCH   4  14
BRANCH   8  24
HETATM   24  O17         0      11.653  64.072  -6.197  1.00  0.00    -0.359 OA
HETATM   25  H17         0      11.430  63.178  -6.430  1.00  0.00     0.218 HD
ENDBRANCH   8  24
TORSDOF 5
ENDMDL
MODEL 3
REMARK VINA RESULT:      -5.8      3.177      7.066
REMARK  5 active torsions:
REMARK  status: ('A' for Active; 'I' for Inactive)
REMARK    1  A    between atoms: C4_4  and  C5_5 
REMARK    2  A    between atoms: C8_8  and  O9_9 
REMARK    3  A    between atoms: C10_11  and  O11_12 
REMARK    4  A    between atoms: C16_18  and  O17_19 
REMARK    5  A    between atoms: C19_22  and  O20_23 
ROOT
HETATM    1  O1          0       3.858  66.318  -6.954  1.00  0.00    -0.286 OA
HETATM    2  C2          0       4.588  65.291  -7.020  1.00  0.00     0.201 C 
HETATM    3  C3          0       5.836  65.220  -6.425  1.00  0.00     0.067 C 
HETATM    4  C4          0       6.664  64.116  -6.599  1.00  0.00     0.103 C 
HETATM    5  O13         0       6.230  63.107  -7.334  1.00  0.00    -0.307 OA
HETATM    6  C14         0       5.069  63.140  -7.951  1.00  0.00     0.107 C 
HETATM    7  C15         0       4.783  62.298  -9.016  1.00  0.00     0.049 C 
HETATM    8  C16         0       3.670  62.506  -9.821  1.00  0.00     0.093 C 
HETATM    9  C18         0       2.632  63.206  -9.218  1.00  0.00     0.048 C 
HETATM   10  C19         0       2.875  64.021  -8.121  1.00  0.00     0.096 C 
HETATM   11  C21         0       4.143  64.123  -7.618  1.00  0.00     0.084 C 
ENDROOT
BRANCH  10  12
HETATM   12  O20         0       1.965  65.025  -7.805  1.00  0.00    -0.359 OA
HETATM   13  H20         0       2.299  65.816  -7.399  1.00  0.00     0.218 HD
ENDBRANCH  10  12
BRANCH   4  14
HETATM   14  C5          0       8.107  64.335  -6.484  1.00  0.00     0.025 C 
HETATM   15  C6          0       8.760  65.384  -7.115  1.00  0.00     0.004 C 
HETATM   16  C7          0       9.790  66.012  -6.422  1.00  0.00     0.026 C 
HETATM   17  C8          0      10.247  65.530  -5.200  1.00  0.00     0.112 C 
HETATM   18  C10         0       9.993  64.183  -4.976  1.00  0.00     0.112 C 
HETATM   19  C12         0       8.905  63.601  -5.616  1.00  0.00     0.028 C 
BRANCH  17  20
HETATM   20  O9          0      10.717  66.395  -4.227  1.00  0.00    -0.357 OA
HETATM   21  H9          0      10.479  66.336  -3.309  1.00  0.00     0.218 HD
ENDBRANCH  17  20
BRANCH  18  22
HETATM   22  O11         0      10.589  63.607  -3.863  1.00  0.00    -0.357 OA
HETATM   23  H11         0      10.023  63.412  -3.125  1.00  0.00     0.218 HD
ENDBRANCH  18  22
ENDBRANCH   4  14
BRANCH   8  24
HETATM   24  O17         0       3.729  62.327 -11.208  1.00  0.00    -0.359 OA
HETATM   25  H17         0       4.554  62.343 -11.678  1.00  0.00     0.218 HD
ENDBRANCH   8  24
TORSDOF 5
ENDMDL
MODEL 4
REMARK VINA RESULT:      -5.6      4.338      7.037
REMARK  5 active torsions:
REMARK  status: ('A' for Active; 'I' for Inactive)
REMARK    1  A    between atoms: C4_4  and  C5_5 
REMARK    2  A    between atoms: C8_8  and  O9_9 
REMARK    3  A    between atoms: C10_11  and  O11_12 
REMARK    4  A    between atoms: C16_18  and  O17_19 
REMARK    5  A    between atoms: C19_22  and  O20_23 
ROOT
HETATM    1  O1          0       1.965  65.003 -10.366  1.00  0.00    -0.286 OA
HETATM    2  C2          0       2.649  64.291  -9.581  1.00  0.00     0.201 C 
HETATM    3  C3          0       3.211  64.787  -8.417  1.00  0.00     0.067 C 
HETATM    4  C4          0       4.045  64.008  -7.622  1.00  0.00     0.103 C 
HETATM    5  O13         0       4.283  62.760  -7.984  1.00  0.00    -0.307 OA
HETATM    6  C14         0       3.805  62.252  -9.098  1.00  0.00     0.107 C 
HETATM    7  C15         0       4.355  61.119  -9.680  1.00  0.00     0.049 C 
HETATM    8  C16         0       4.019  60.737 -10.973  1.00  0.00     0.093 C 
HETATM    9  C18         0       2.782  61.190 -11.417  1.00  0.00     0.048 C 
HETATM   10  C19         0       2.181  62.292 -10.825  1.00  0.00     0.096 C 
HETATM   11  C21         0       2.804  62.929  -9.786  1.00  0.00     0.084 C 
ENDROOT
BRANCH  10  12
HETATM   12  O20         0       1.202  62.990 -11.525  1.00  0.00    -0.359 OA
HETATM   13  H20         0       0.790  63.731 -11.096  1.00  0.00     0.218 HD
ENDBRANCH  10  12
BRANCH   4  14
HETATM   14  C5          0       5.041  64.709  -6.809  1.00  0.00     0.025 C 
HETATM   15  C6          0       6.395  64.412  -6.858  1.00  0.00     0.004 C 
HETATM   16  C7          0       7.291  65.473  -6.774  1.00  0.00     0.026 C 
HETATM   17  C8          0       6.863  66.770  -6.515  1.00  0.00     0.112 C 
HETATM   18  C10         0       5.636  66.859  -5.872  1.00  0.00     0.112 C 
HETATM   19  C12         0       4.725  65.823  -6.041  1.00  0.00     0.028 C 
BRANCH  17  20
HETATM   20  O9          0       7.526  67.857  -7.059  1.00  0.00    -0.357 OA
HETATM   21  H9          0       8.019  68.485  -6.544  1.00  0.00     0.218 HD
ENDBRANCH  17  20
BRANCH  18  22
HETATM   22  O11         0       5.251  68.114  -5.422  1.00  0.00    -0.357 OA
HETATM   23  H11         0       5.642  68.864  -5.856  1.00  0.00     0.218 HD
ENDBRANCH  18  22
ENDBRANCH   4  14
BRANCH   8  24
HETATM   24  O17         0       4.980  60.237 -11.859  1.00  0.00    -0.359 OA
HETATM   25  H17         0       5.224  59.319 -11.864  1.00  0.00     0.218 HD
ENDBRANCH   8  24
TORSDOF 5
ENDMDL
MODEL 5
REMARK VINA RESULT:      -5.4      3.180      5.363
REMARK  5 active torsions:
REMARK  status: ('A' for Active; 'I' for Inactive)
REMARK    1  A    between atoms: C4_4  and  C5_5 
REMARK    2  A    between atoms: C8_8  and  O9_9 
REMARK    3  A    between atoms: C10_11  and  O11_12 
REMARK    4  A    between atoms: C16_18  and  O17_19 
REMARK    5  A    between atoms: C19_22  and  O20_23 
ROOT
HETATM    1  O1          0       3.879  66.771  -2.559  1.00  0.00    -0.286 OA
HETATM    2  C2          0       4.982  66.927  -3.151  1.00  0.00     0.201 C 
HETATM    3  C3          0       5.162  66.630  -4.491  1.00  0.00     0.067 C 
HETATM    4  C4          0       6.412  66.714  -5.094  1.00  0.00     0.103 C 
HETATM    5  O13         0       7.443  67.106  -4.367  1.00  0.00    -0.307 OA
HETATM    6  C14         0       7.334  67.363  -3.082  1.00  0.00     0.107 C 
HETATM    7  C15         0       8.439  67.380  -2.243  1.00  0.00     0.049 C 
HETATM    8  C16         0       8.296  67.398  -0.861  1.00  0.00     0.093 C 
HETATM    9  C18         0       7.094  67.922  -0.402  1.00  0.00     0.048 C 
HETATM   10  C19         0       5.981  67.964  -1.230  1.00  0.00     0.096 C 
HETATM   11  C21         0       6.072  67.500  -2.514  1.00  0.00     0.084 C 
ENDROOT
BRANCH  10  12
HETATM   12  O20         0       4.714  68.068  -0.662  1.00  0.00    -0.359 OA
HETATM   13  H20         0       4.616  67.834   0.252  1.00  0.00     0.218 HD
ENDBRANCH  10  12
BRANCH   4  14
HETATM   14  C5          0       6.655  65.855  -6.255  1.00  0.00     0.025 C 
HETATM   15  C6          0       7.884  65.784  -6.894  1.00  0.00     0.004 C 
HETATM   16  C7          0       8.301  64.539  -7.353  1.00  0.00     0.026 C 
HETATM   17  C8          0       7.469  63.426  -7.300  1.00  0.00     0.112 C 
HETATM   18  C10         0       6.113  63.717  -7.251  1.00  0.00     0.112 C 
HETATM   19  C12         0       5.718  64.935  -6.709  1.00  0.00     0.028 C 
BRANCH  17  20
HETATM   20  O9          0       7.991  62.160  -7.098  1.00  0.00    -0.357 OA
HETATM   21  H9          0       8.528  61.703  -7.734  1.00  0.00     0.218 HD
ENDBRANCH  17  20
BRANCH  18  22
HETATM   22  O11         0       5.235  62.651  -7.387  1.00  0.00    -0.357 OA
HETATM   23  H11         0       4.495  62.775  -7.970  1.00  0.00     0.218 HD
ENDBRANCH  18  22
ENDBRANCH   4  14
BRANCH   8  24
HETATM   24  O17         0       9.136  66.646  -0.031  1.00  0.00    -0.359 OA
HETATM   25  H17         0       8.827  66.276   0.787  1.00  0.00     0.218 HD
ENDBRANCH   8  24
TORSDOF 5
ENDMDL
MODEL 6
REMARK VINA RESULT:      -5.4      5.574      8.387
REMARK  5 active torsions:
REMARK  status: ('A' for Active; 'I' for Inactive)
REMARK    1  A    between atoms: C4_4  and  C5_5 
REMARK    2  A    between atoms: C8_8  and  O9_9 
REMARK    3  A    between atoms: C10_11  and  O11_12 
REMARK    4  A    between atoms: C16_18  and  O17_19 
REMARK    5  A    between atoms: C19_22  and  O20_23 
ROOT
HETATM    1  O1          0       1.657  67.068 -12.482  1.00  0.00    -0.286 OA
HETATM    2  C2          0       2.077  66.465 -11.457  1.00  0.00     0.201 C 
HETATM    3  C3          0       2.538  65.160 -11.490  1.00  0.00     0.067 C 
HETATM    4  C4          0       2.898  64.485 -10.329  1.00  0.00     0.103 C 
HETATM    5  O13         0       2.813  65.120  -9.173  1.00  0.00    -0.307 OA
HETATM    6  C14         0       2.347  66.346  -9.082  1.00  0.00     0.107 C 
HETATM    7  C15         0       1.884  66.864  -7.881  1.00  0.00     0.049 C 
HETATM    8  C16         0       1.164  68.052  -7.837  1.00  0.00     0.093 C 
HETATM    9  C18         0       1.393  68.917  -8.901  1.00  0.00     0.048 C 
HETATM   10  C19         0       1.900  68.439 -10.102  1.00  0.00     0.096 C 
HETATM   11  C21         0       2.192  67.109 -10.234  1.00  0.00     0.084 C 
ENDROOT
BRANCH  10  12
HETATM   12  O20         0       1.718  69.186 -11.262  1.00  0.00    -0.359 OA
HETATM   13  H20         0       1.749  70.132 -11.192  1.00  0.00     0.218 HD
ENDBRANCH  10  12
BRANCH   4  14
HETATM   14  C5          0       2.786  63.025 -10.341  1.00  0.00     0.025 C 
HETATM   15  C6          0       1.566  62.365 -10.326  1.00  0.00     0.004 C 
HETATM   16  C7          0       1.447  61.213 -11.098  1.00  0.00     0.026 C 
HETATM   17  C8          0       2.541  60.660 -11.755  1.00  0.00     0.112 C 
HETATM   18  C10         0       3.774  60.997 -11.214  1.00  0.00     0.112 C 
HETATM   19  C12         0       3.885  62.196 -10.520  1.00  0.00     0.028 C 
BRANCH  17  20
HETATM   20  O9          0       2.385  60.011 -12.967  1.00  0.00    -0.357 OA
HETATM   21  H9          0       2.660  59.115 -13.125  1.00  0.00     0.218 HD
ENDBRANCH  17  20
BRANCH  18  22
HETATM   22  O11         0       4.883  60.326 -11.710  1.00  0.00    -0.357 OA
HETATM   23  H11         0       5.508  60.839 -12.210  1.00  0.00     0.218 HD
ENDBRANCH  18  22
ENDBRANCH   4  14
BRANCH   8  24
HETATM   24  O17         0       0.063  68.207  -6.987  1.00  0.00    -0.359 OA
HETATM   25  H17         0      -0.818  68.318  -7.326  1.00  0.00     0.218 HD
ENDBRANCH   8  24
TORSDOF 5
ENDMDL
MODEL 7
REMARK VINA RESULT:      -5.4      2.769      4.012
REMARK  5 active torsions:
REMARK  status: ('A' for Active; 'I' for Inactive)
REMARK    1  A    between atoms: C4_4  and  C5_5 
REMARK    2  A    between atoms: C8_8  and  O9_9 
REMARK    3  A    between atoms: C10_11  and  O11_12 
REMARK    4  A    between atoms: C16_18  and  O17_19 
REMARK    5  A    between atoms: C19_22  and  O20_23 
ROOT
HETATM    1  O1          0       5.318  62.578  -7.893  1.00  0.00    -0.286 OA
HETATM    2  C2          0       4.849  63.725  -7.655  1.00  0.00     0.201 C 
HETATM    3  C3          0       3.677  64.189  -8.226  1.00  0.00     0.067 C 
HETATM    4  C4          0       3.236  65.493  -8.027  1.00  0.00     0.103 C 
HETATM    5  O13         0       3.951  66.294  -7.258  1.00  0.00    -0.307 OA
HETATM    6  C14         0       5.091  65.916  -6.722  1.00  0.00     0.107 C 
HETATM    7  C15         0       6.024  66.835  -6.264  1.00  0.00     0.049 C 
HETATM    8  C16         0       7.319  66.447  -5.939  1.00  0.00     0.093 C 
HETATM    9  C18         0       7.461  65.110  -5.588  1.00  0.00     0.048 C 
HETATM   10  C19         0       6.520  64.172  -5.990  1.00  0.00     0.096 C 
HETATM   11  C21         0       5.436  64.569  -6.724  1.00  0.00     0.084 C 
ENDROOT
BRANCH  10  12
HETATM   12  O20         0       6.873  62.826  -6.022  1.00  0.00    -0.359 OA
HETATM   13  H20         0       7.797  62.609  -6.047  1.00  0.00     0.218 HD
ENDBRANCH  10  12
BRANCH   4  14
HETATM   14  C5          0       2.398  66.083  -9.073  1.00  0.00     0.025 C 
HETATM   15  C6          0       2.075  67.432  -9.106  1.00  0.00     0.004 C 
HETATM   16  C7          0       2.031  68.054 -10.349  1.00  0.00     0.026 C 
HETATM   17  C8          0       2.170  67.333 -11.531  1.00  0.00     0.112 C 
HETATM   18  C10         0       1.854  65.985 -11.428  1.00  0.00     0.112 C 
HETATM   19  C12         0       1.988  65.368 -10.190  1.00  0.00     0.028 C 
BRANCH  17  20
HETATM   20  O9          0       2.779  67.897 -12.638  1.00  0.00    -0.357 OA
HETATM   21  H9          0       2.441  68.658 -13.096  1.00  0.00     0.218 HD
ENDBRANCH  17  20
BRANCH  18  22
HETATM   22  O11         0       1.792  65.263 -12.611  1.00  0.00    -0.357 OA
HETATM   23  H11         0       2.615  64.941 -12.962  1.00  0.00     0.218 HD
ENDBRANCH  18  22
ENDBRANCH   4  14
BRANCH   8  24
HETATM   24  O17         0       8.422  67.243  -6.267  1.00  0.00    -0.359 OA
HETATM   25  H17         0       8.503  67.658  -7.117  1.00  0.00     0.218 HD
ENDBRANCH   8  24
TORSDOF 5
ENDMDL
MODEL 8
REMARK VINA RESULT:      -5.4      4.065      6.533
REMARK  5 active torsions:
REMARK  status: ('A' for Active; 'I' for Inactive)
REMARK    1  A    between atoms: C4_4  and  C5_5 
REMARK    2  A    between atoms: C8_8  and  O9_9 
REMARK    3  A    between atoms: C10_11  and  O11_12 
REMARK    4  A    between atoms: C16_18  and  O17_19 
REMARK    5  A    between atoms: C19_22  and  O20_23 
ROOT
HETATM    1  O1          0       8.989  60.394  -4.455  1.00  0.00    -0.286 OA
HETATM    2  C2          0       9.726  61.408  -4.313  1.00  0.00     0.201 C 
HETATM    3  C3          0       9.241  62.703  -4.373  1.00  0.00     0.067 C 
HETATM    4  C4          0      10.090  63.803  -4.316  1.00  0.00     0.103 C 
HETATM    5  O13         0      11.388  63.596  -4.180  1.00  0.00    -0.307 OA
HETATM    6  C14         0      11.904  62.387  -4.155  1.00  0.00     0.107 C 
HETATM    7  C15         0      13.248  62.160  -4.414  1.00  0.00     0.049 C 
HETATM    8  C16         0      13.734  60.878  -4.637  1.00  0.00     0.093 C 
HETATM    9  C18         0      12.974  59.857  -4.080  1.00  0.00     0.048 C 
HETATM   10  C19         0      11.638  60.063  -3.765  1.00  0.00     0.096 C 
HETATM   11  C21         0      11.069  61.287  -3.989  1.00  0.00     0.084 C 
ENDROOT
BRANCH  10  12
HETATM   12  O20         0      10.793  58.966  -3.631  1.00  0.00    -0.359 OA
HETATM   13  H20         0      10.702  58.577  -2.769  1.00  0.00     0.218 HD
ENDBRANCH  10  12
BRANCH   4  14
HETATM   14  C5          0       9.637  65.033  -4.966  1.00  0.00     0.025 C 
HETATM   15  C6          0       9.788  65.265  -6.325  1.00  0.00     0.004 C 
HETATM   16  C7          0       8.753  65.919  -6.987  1.00  0.00     0.026 C 
HETATM   17  C8          0       7.665  66.445  -6.299  1.00  0.00     0.112 C 
HETATM   18  C10         0       7.905  66.723  -4.960  1.00  0.00     0.112 C 
HETATM   19  C12         0       8.888  65.995  -4.300  1.00  0.00     0.028 C 
BRANCH  17  20
HETATM   20  O9          0       6.408  66.473  -6.876  1.00  0.00    -0.357 OA
HETATM   21  H9          0       6.056  67.225  -7.338  1.00  0.00     0.218 HD
ENDBRANCH  17  20
BRANCH  18  22
HETATM   22  O11         0       6.919  67.421  -4.276  1.00  0.00    -0.357 OA
HETATM   23  H11         0       6.485  66.965  -3.564  1.00  0.00     0.218 HD
ENDBRANCH  18  22
ENDBRANCH   4  14
BRANCH   8  24
HETATM   24  O17         0      14.701  60.625  -5.617  1.00  0.00    -0.359 OA
HETATM   25  H17         0      15.348  59.937  -5.513  1.00  0.00     0.218 HD
ENDBRANCH   8  24
TORSDOF 5
ENDMDL
MODEL 9
REMARK VINA RESULT:      -5.2      4.394      5.638
REMARK  5 active torsions:
REMARK  status: ('A' for Active; 'I' for Inactive)
REMARK    1  A    between atoms: C4_4  and  C5_5 
REMARK    2  A    between atoms: C8_8  and  O9_9 
REMARK    3  A    between atoms: C10_11  and  O11_12 
REMARK    4  A    between atoms: C16_18  and  O17_19 
REMARK    5  A    between atoms: C19_22  and  O20_23 
ROOT
HETATM    1  O1          0       6.276  65.697  -4.711  1.00  0.00    -0.286 OA
HETATM    2  C2          0       6.521  65.026  -5.752  1.00  0.00     0.201 C 
HETATM    3  C3          0       5.622  64.120  -6.288  1.00  0.00     0.067 C 
HETATM    4  C4          0       5.956  63.319  -7.375  1.00  0.00     0.103 C 
HETATM    5  O13         0       7.156  63.449  -7.914  1.00  0.00    -0.307 OA
HETATM    6  C14         0       8.059  64.267  -7.420  1.00  0.00     0.107 C 
HETATM    7  C15         0       9.409  64.125  -7.708  1.00  0.00     0.049 C 
HETATM    8  C16         0      10.377  64.820  -6.994  1.00  0.00     0.093 C 
HETATM    9  C18         0       9.935  65.995  -6.397  1.00  0.00     0.048 C 
HETATM   10  C19         0       8.585  66.190  -6.137  1.00  0.00     0.096 C 
HETATM   11  C21         0       7.680  65.224  -6.486  1.00  0.00     0.084 C 
ENDROOT
BRANCH  10  12
HETATM   12  O20         0       8.205  67.125  -5.179  1.00  0.00    -0.359 OA
HETATM   13  H20         0       8.357  66.914  -4.266  1.00  0.00     0.218 HD
ENDBRANCH  10  12
BRANCH   4  14
HETATM   14  C5          0       5.262  62.037  -7.500  1.00  0.00     0.025 C 
HETATM   15  C6          0       4.084  61.886  -8.218  1.00  0.00     0.004 C 
HETATM   16  C7          0       3.923  60.717  -8.955  1.00  0.00     0.026 C 
HETATM   17  C8          0       4.839  59.673  -8.876  1.00  0.00     0.112 C 
HETATM   18  C10         0       5.591  59.649  -7.709  1.00  0.00     0.112 C 
HETATM   19  C12         0       5.808  60.846  -7.038  1.00  0.00     0.028 C 
BRANCH  17  20
HETATM   20  O9          0       5.101  58.875  -9.976  1.00  0.00    -0.357 OA
HETATM   21  H9          0       5.126  57.926  -9.945  1.00  0.00     0.218 HD
ENDBRANCH  17  20
BRANCH  18  22
HETATM   22  O11         0       6.382  58.529  -7.494  1.00  0.00    -0.357 OA
HETATM   23  H11         0       7.273  58.562  -7.821  1.00  0.00     0.218 HD
ENDBRANCH  18  22
ENDBRANCH   4  14
BRANCH   8  24
HETATM   24  O17         0      11.585  64.218  -6.626  1.00  0.00    -0.359 OA
HETATM   25  H17         0      11.616  63.341  -6.263  1.00  0.00     0.218 HD
ENDBRANCH   8  24
TORSDOF 5
ENDMDL
