MODEL 1
REMARK VINA RESULT:      -7.0      0.000      0.000
REMARK  5 active torsions:
REMARK  status: ('A' for Active; 'I' for Inactive)
REMARK    1  A    between atoms: C4_4  and  C5_5 
REMARK    2  A    between atoms: C8_8  and  O9_9 
REMARK    3  A    between atoms: C10_11  and  O11_12 
REMARK    4  A    between atoms: C16_18  and  O17_19 
REMARK    5  A    between atoms: C19_22  and  O20_23 
ROOT
HETATM    1  O1          0      61.743  54.794  19.951  1.00  0.00    -0.286 OA
HETATM    2  C2          0      62.624  55.389  19.272  1.00  0.00     0.201 C 
HETATM    3  C3          0      63.827  54.799  18.922  1.00  0.00     0.067 C 
HETATM    4  C4          0      64.822  55.511  18.262  1.00  0.00     0.103 C 
HETATM    5  O13         0      64.597  56.774  17.947  1.00  0.00    -0.307 OA
HETATM    6  C14         0      63.488  57.393  18.288  1.00  0.00     0.107 C 
HETATM    7  C15         0      63.404  58.777  18.325  1.00  0.00     0.049 C 
HETATM    8  C16         0      62.327  59.419  18.925  1.00  0.00     0.093 C 
HETATM    9  C18         0      61.157  58.671  18.985  1.00  0.00     0.048 C 
HETATM   10  C19         0      61.200  57.286  18.904  1.00  0.00     0.096 C 
HETATM   11  C21         0      62.403  56.652  18.746  1.00  0.00     0.084 C 
ENDROOT
BRANCH  10  12
HETATM   12  O20         0      60.130  56.542  19.390  1.00  0.00    -0.359 OA
HETATM   13  H20         0      60.226  56.126  20.238  1.00  0.00     0.218 HD
ENDBRANCH  10  12
BRANCH   4  14
HETATM   14  C5          0      66.205  55.070  18.459  1.00  0.00     0.025 C 
HETATM   15  C6          0      66.555  54.074  19.359  1.00  0.00     0.004 C 
HETATM   16  C7          0      67.558  53.188  18.981  1.00  0.00     0.026 C 
HETATM   17  C8          0      68.283  53.364  17.808  1.00  0.00     0.112 C 
HETATM   18  C10         0      68.307  54.668  17.331  1.00  0.00     0.112 C 
HETATM   19  C12         0      67.248  55.508  17.653  1.00  0.00     0.028 C 
BRANCH  17  20
HETATM   20  O9          0      68.747  52.275  17.090  1.00  0.00    -0.357 OA
HETATM   21  H9          0      68.817  52.259  16.143  1.00  0.00     0.218 HD
ENDBRANCH  17  20
BRANCH  18  22
HETATM   22  O11         0      69.166  54.935  16.274  1.00  0.00    -0.357 OA
HETATM   23  H11         0      68.773  55.262  15.473  1.00  0.00     0.218 HD
ENDBRANCH  18  22
ENDBRANCH   4  14
BRANCH   8  24
HETATM   24  O17         0      62.503  60.572  19.697  1.00  0.00    -0.359 OA
HETATM   25  H17         0      62.361  61.440  19.338  1.00  0.00     0.218 HD
ENDBRANCH   8  24
TORSDOF 5
ENDMDL
MODEL 2
REMARK VINA RESULT:      -6.7      1.654      2.812
REMARK  5 active torsions:
REMARK  status: ('A' for Active; 'I' for Inactive)
REMARK    1  A    between atoms: C4_4  and  C5_5 
REMARK    2  A    between atoms: C8_8  and  O9_9 
REMARK    3  A    between atoms: C10_11  and  O11_12 
REMARK    4  A    between atoms: C16_18  and  O17_19 
REMARK    5  A    between atoms: C19_22  and  O20_23 
ROOT
HETATM    1  O1          0      65.030  59.345  17.909  1.00  0.00    -0.286 OA
HETATM    2  C2          0      64.775  58.127  18.114  1.00  0.00     0.201 C 
HETATM    3  C3          0      65.763  57.167  18.254  1.00  0.00     0.067 C 
HETATM    4  C4          0      65.454  55.817  18.376  1.00  0.00     0.103 C 
HETATM    5  O13         0      64.183  55.454  18.378  1.00  0.00    -0.307 OA
HETATM    6  C14         0      63.208  56.321  18.211  1.00  0.00     0.107 C 
HETATM    7  C15         0      61.938  55.925  17.816  1.00  0.00     0.049 C 
HETATM    8  C16         0      60.992  56.852  17.397  1.00  0.00     0.093 C 
HETATM    9  C18         0      61.175  58.140  17.885  1.00  0.00     0.048 C 
HETATM   10  C19         0      62.423  58.554  18.332  1.00  0.00     0.096 C 
HETATM   11  C21         0      63.477  57.682  18.308  1.00  0.00     0.084 C 
ENDROOT
BRANCH  10  12
HETATM   12  O20         0      62.704  59.915  18.400  1.00  0.00    -0.359 OA
HETATM   13  H20         0      63.614  60.184  18.357  1.00  0.00     0.218 HD
ENDBRANCH  10  12
BRANCH   4  14
HETATM   14  C5          0      66.460  54.855  17.922  1.00  0.00     0.025 C 
HETATM   15  C6          0      66.619  53.603  18.498  1.00  0.00     0.004 C 
HETATM   16  C7          0      66.912  52.537  17.654  1.00  0.00     0.026 C 
HETATM   17  C8          0      67.173  52.729  16.301  1.00  0.00     0.112 C 
HETATM   18  C10         0      67.609  54.005  15.970  1.00  0.00     0.112 C 
HETATM   19  C12         0      67.230  55.065  16.785  1.00  0.00     0.028 C 
BRANCH  17  20
HETATM   20  O9          0      66.813  51.773  15.368  1.00  0.00    -0.357 OA
HETATM   21  H9          0      66.989  51.851  14.437  1.00  0.00     0.218 HD
ENDBRANCH  17  20
BRANCH  18  22
HETATM   22  O11         0      68.063  54.196  14.672  1.00  0.00    -0.357 OA
HETATM   23  H11         0      67.708  53.622  14.004  1.00  0.00     0.218 HD
ENDBRANCH  18  22
ENDBRANCH   4  14
BRANCH   8  24
HETATM   24  O17         0      60.141  56.589  16.318  1.00  0.00    -0.359 OA
HETATM   25  H17         0      59.808  55.716  16.147  1.00  0.00     0.218 HD
ENDBRANCH   8  24
TORSDOF 5
ENDMDL
MODEL 3
REMARK VINA RESULT:      -6.7      1.823      7.527
REMARK  5 active torsions:
REMARK  status: ('A' for Active; 'I' for Inactive)
REMARK    1  A    between atoms: C4_4  and  C5_5 
REMARK    2  A    between atoms: C8_8  and  O9_9 
REMARK    3  A    between atoms: C10_11  and  O11_12 
REMARK    4  A    between atoms: C16_18  and  O17_19 
REMARK    5  A    between atoms: C19_22  and  O20_23 
ROOT
HETATM    1  O1          0      69.003  55.389  15.614  1.00  0.00    -0.286 OA
HETATM    2  C2          0      68.233  54.774  16.401  1.00  0.00     0.201 C 
HETATM    3  C3          0      66.958  55.221  16.704  1.00  0.00     0.067 C 
HETATM    4  C4          0      66.168  54.580  17.652  1.00  0.00     0.103 C 
HETATM    5  O13         0      66.647  53.508  18.258  1.00  0.00    -0.307 OA
HETATM    6  C14         0      67.864  53.064  18.034  1.00  0.00     0.107 C 
HETATM    7  C15         0      68.508  52.217  18.924  1.00  0.00     0.049 C 
HETATM    8  C16         0      69.869  51.957  18.817  1.00  0.00     0.093 C 
HETATM    9  C18         0      70.401  52.128  17.545  1.00  0.00     0.048 C 
HETATM   10  C19         0      69.758  52.932  16.613  1.00  0.00     0.096 C 
HETATM   11  C21         0      68.582  53.548  16.945  1.00  0.00     0.084 C 
ENDROOT
BRANCH  10  12
HETATM   12  O20         0      70.481  53.443  15.540  1.00  0.00    -0.359 OA
HETATM   13  H20         0      70.230  53.174  14.665  1.00  0.00     0.218 HD
ENDBRANCH  10  12
BRANCH   4  14
HETATM   14  C5          0      65.161  55.389  18.342  1.00  0.00     0.025 C 
HETATM   15  C6          0      65.013  56.751  18.125  1.00  0.00     0.004 C 
HETATM   16  C7          0      63.721  57.264  18.107  1.00  0.00     0.026 C 
HETATM   17  C8          0      62.619  56.478  18.427  1.00  0.00     0.112 C 
HETATM   18  C10         0      62.905  55.372  19.217  1.00  0.00     0.112 C 
HETATM   19  C12         0      64.182  54.827  19.152  1.00  0.00     0.028 C 
BRANCH  17  20
HETATM   20  O9          0      61.396  56.689  17.815  1.00  0.00    -0.357 OA
HETATM   21  H9          0      60.764  57.335  18.108  1.00  0.00     0.218 HD
ENDBRANCH  17  20
BRANCH  18  22
HETATM   22  O11         0      61.825  54.663  19.720  1.00  0.00    -0.357 OA
HETATM   23  H11         0      61.123  55.169  20.112  1.00  0.00     0.218 HD
ENDBRANCH  18  22
ENDBRANCH   4  14
BRANCH   8  24
HETATM   24  O17         0      70.686  51.867  19.950  1.00  0.00    -0.359 OA
HETATM   25  H17         0      70.756  52.581  20.573  1.00  0.00     0.218 HD
ENDBRANCH   8  24
TORSDOF 5
ENDMDL
MODEL 4
REMARK VINA RESULT:      -6.6      1.567      3.043
REMARK  5 active torsions:
REMARK  status: ('A' for Active; 'I' for Inactive)
REMARK    1  A    between atoms: C4_4  and  C5_5 
REMARK    2  A    between atoms: C8_8  and  O9_9 
REMARK    3  A    between atoms: C10_11  and  O11_12 
REMARK    4  A    between atoms: C16_18  and  O17_19 
REMARK    5  A    between atoms: C19_22  and  O20_23 
ROOT
HETATM    1  O1          0      65.793  58.692  17.559  1.00  0.00    -0.286 OA
HETATM    2  C2          0      65.315  57.587  17.937  1.00  0.00     0.201 C 
HETATM    3  C3          0      66.097  56.465  18.151  1.00  0.00     0.067 C 
HETATM    4  C4          0      65.534  55.234  18.468  1.00  0.00     0.103 C 
HETATM    5  O13         0      64.220  55.149  18.584  1.00  0.00    -0.307 OA
HETATM    6  C14         0      63.430  56.174  18.355  1.00  0.00     0.107 C 
HETATM    7  C15         0      62.079  56.009  18.083  1.00  0.00     0.049 C 
HETATM    8  C16         0      61.308  57.058  17.595  1.00  0.00     0.093 C 
HETATM    9  C18         0      61.785  58.327  17.897  1.00  0.00     0.048 C 
HETATM   10  C19         0      63.122  58.521  18.219  1.00  0.00     0.096 C 
HETATM   11  C21         0      63.973  57.450  18.256  1.00  0.00     0.084 C 
ENDROOT
BRANCH  10  12
HETATM   12  O20         0      63.675  59.791  18.091  1.00  0.00    -0.359 OA
HETATM   13  H20         0      64.491  59.969  18.543  1.00  0.00     0.218 HD
ENDBRANCH  10  12
BRANCH   4  14
HETATM   14  C5          0      66.288  54.036  18.093  1.00  0.00     0.025 C 
HETATM   15  C6          0      66.446  53.628  16.777  1.00  0.00     0.004 C 
HETATM   16  C7          0      67.677  53.096  16.410  1.00  0.00     0.026 C 
HETATM   17  C8          0      68.675  52.852  17.348  1.00  0.00     0.112 C 
HETATM   18  C10         0      68.219  52.690  18.650  1.00  0.00     0.112 C 
HETATM   19  C12         0      67.027  53.304  19.013  1.00  0.00     0.028 C 
BRANCH  17  20
HETATM   20  O9          0      70.011  52.980  17.012  1.00  0.00    -0.357 OA
HETATM   21  H9          0      70.717  52.557  17.486  1.00  0.00     0.218 HD
ENDBRANCH  17  20
BRANCH  18  22
HETATM   22  O11         0      69.144  52.259  19.590  1.00  0.00    -0.357 OA
HETATM   23  H11         0      68.926  51.474  20.080  1.00  0.00     0.218 HD
ENDBRANCH  18  22
ENDBRANCH   4  14
BRANCH   8  24
HETATM   24  O17         0      60.340  56.851  16.606  1.00  0.00    -0.359 OA
HETATM   25  H17         0      59.617  57.455  16.482  1.00  0.00     0.218 HD
ENDBRANCH   8  24
TORSDOF 5
ENDMDL
MODEL 5
REMARK VINA RESULT:      -6.6      6.966      9.667
REMARK  5 active torsions:
REMARK  status: ('A' for Active; 'I' for Inactive)
REMARK    1  A    between atoms: C4_4  and  C5_5 
REMARK    2  A    between atoms: C8_8  and  O9_9 
REMARK    3  A    between atoms: C10_11  and  O11_12 
REMARK    4  A    between atoms: C16_18  and  O17_19 
REMARK    5  A    between atoms: C19_22  and  O20_23 
ROOT
HETATM    1  O1          0      67.131  50.445   9.358  1.00  0.00    -0.286 OA
HETATM    2  C2          0      67.409  51.563   9.872  1.00  0.00     0.201 C 
HETATM    3  C3          0      67.536  51.750  11.237  1.00  0.00     0.067 C 
HETATM    4  C4          0      67.742  53.012  11.784  1.00  0.00     0.103 C 
HETATM    5  O13         0      67.837  54.048  10.970  1.00  0.00    -0.307 OA
HETATM    6  C14         0      67.686  53.931   9.668  1.00  0.00     0.107 C 
HETATM    7  C15         0      67.387  55.023   8.866  1.00  0.00     0.049 C 
HETATM    8  C16         0      66.980  54.859   7.547  1.00  0.00     0.093 C 
HETATM    9  C18         0      67.394  53.676   6.948  1.00  0.00     0.048 C 
HETATM   10  C19         0      67.746  52.578   7.722  1.00  0.00     0.096 C 
HETATM   11  C21         0      67.701  52.668   9.087  1.00  0.00     0.084 C 
ENDROOT
BRANCH  10  12
HETATM   12  O20         0      67.731  51.310   7.151  1.00  0.00    -0.359 OA
HETATM   13  H20         0      68.327  50.658   7.499  1.00  0.00     0.218 HD
ENDBRANCH  10  12
BRANCH   4  14
HETATM   14  C5          0      67.276  53.232  13.154  1.00  0.00     0.025 C 
HETATM   15  C6          0      66.545  52.288  13.861  1.00  0.00     0.004 C 
HETATM   16  C7          0      66.815  52.149  15.218  1.00  0.00     0.026 C 
HETATM   17  C8          0      67.684  53.008  15.881  1.00  0.00     0.112 C 
HETATM   18  C10         0      67.851  54.246  15.274  1.00  0.00     0.112 C 
HETATM   19  C12         0      67.658  54.339  13.901  1.00  0.00     0.028 C 
BRANCH  17  20
HETATM   20  O9          0      68.461  52.557  16.933  1.00  0.00    -0.357 OA
HETATM   21  H9          0      68.338  52.829  17.835  1.00  0.00     0.218 HD
ENDBRANCH  17  20
BRANCH  18  22
HETATM   22  O11         0      68.555  55.205  15.988  1.00  0.00    -0.357 OA
HETATM   23  H11         0      68.070  55.699  16.639  1.00  0.00     0.218 HD
ENDBRANCH  18  22
ENDBRANCH   4  14
BRANCH   8  24
HETATM   24  O17         0      65.967  55.650   6.993  1.00  0.00    -0.359 OA
HETATM   25  H17         0      65.490  55.378   6.218  1.00  0.00     0.218 HD
ENDBRANCH   8  24
TORSDOF 5
ENDMDL
MODEL 6
REMARK VINA RESULT:      -6.4      6.778      9.434
REMARK  5 active torsions:
REMARK  status: ('A' for Active; 'I' for Inactive)
REMARK    1  A    between atoms: C4_4  and  C5_5 
REMARK    2  A    between atoms: C8_8  and  O9_9 
REMARK    3  A    between atoms: C10_11  and  O11_12 
REMARK    4  A    between atoms: C16_18  and  O17_19 
REMARK    5  A    between atoms: C19_22  and  O20_23 
ROOT
HETATM    1  O1          0      66.598  51.774  14.961  1.00  0.00    -0.286 OA
HETATM    2  C2          0      67.400  52.346  14.174  1.00  0.00     0.201 C 
HETATM    3  C3          0      67.094  52.607  12.849  1.00  0.00     0.067 C 
HETATM    4  C4          0      68.033  53.145  11.977  1.00  0.00     0.103 C 
HETATM    5  O13         0      69.238  53.431  12.438  1.00  0.00    -0.307 OA
HETATM    6  C14         0      69.592  53.170  13.677  1.00  0.00     0.107 C 
HETATM    7  C15         0      70.924  53.088  14.055  1.00  0.00     0.049 C 
HETATM    8  C16         0      71.294  52.566  15.289  1.00  0.00     0.093 C 
HETATM    9  C18         0      70.317  52.642  16.275  1.00  0.00     0.048 C 
HETATM   10  C19         0      68.978  52.771  15.933  1.00  0.00     0.096 C 
HETATM   11  C21         0      68.618  52.842  14.614  1.00  0.00     0.084 C 
ENDROOT
BRANCH  10  12
HETATM   12  O20         0      68.002  52.413  16.857  1.00  0.00    -0.359 OA
HETATM   13  H20         0      67.383  53.079  17.132  1.00  0.00     0.218 HD
ENDBRANCH  10  12
BRANCH   4  14
HETATM   14  C5          0      67.878  52.840  10.553  1.00  0.00     0.025 C 
HETATM   15  C6          0      67.934  51.547  10.051  1.00  0.00     0.004 C 
HETATM   16  C7          0      67.060  51.218   9.020  1.00  0.00     0.026 C 
HETATM   17  C8          0      66.251  52.175   8.416  1.00  0.00     0.112 C 
HETATM   18  C10         0      66.711  53.480   8.533  1.00  0.00     0.112 C 
HETATM   19  C12         0      67.514  53.802   9.620  1.00  0.00     0.028 C 
BRANCH  17  20
HETATM   20  O9          0      64.997  51.842   7.936  1.00  0.00    -0.357 OA
HETATM   21  H9          0      64.201  52.303   8.175  1.00  0.00     0.218 HD
ENDBRANCH  17  20
BRANCH  18  22
HETATM   22  O11         0      66.048  54.448   7.792  1.00  0.00    -0.357 OA
HETATM   23  H11         0      65.103  54.369   7.728  1.00  0.00     0.218 HD
ENDBRANCH  18  22
ENDBRANCH   4  14
BRANCH   8  24
HETATM   24  O17         0      72.413  51.737  15.424  1.00  0.00    -0.359 OA
HETATM   25  H17         0      72.460  50.888  15.001  1.00  0.00     0.218 HD
ENDBRANCH   8  24
TORSDOF 5
ENDMDL
MODEL 7
REMARK VINA RESULT:      -6.3      6.090      9.177
REMARK  5 active torsions:
REMARK  status: ('A' for Active; 'I' for Inactive)
REMARK    1  A    between atoms: C4_4  and  C5_5 
REMARK    2  A    between atoms: C8_8  and  O9_9 
REMARK    3  A    between atoms: C10_11  and  O11_12 
REMARK    4  A    between atoms: C16_18  and  O17_19 
REMARK    5  A    between atoms: C19_22  and  O20_23 
ROOT
HETATM    1  O1          0      71.261  53.209  13.976  1.00  0.00    -0.286 OA
HETATM    2  C2          0      70.135  52.783  13.597  1.00  0.00     0.201 C 
HETATM    3  C3          0      69.865  52.446  12.282  1.00  0.00     0.067 C 
HETATM    4  C4          0      68.588  52.078  11.872  1.00  0.00     0.103 C 
HETATM    5  O13         0      67.621  52.031  12.771  1.00  0.00    -0.307 OA
HETATM    6  C14         0      67.816  52.377  14.025  1.00  0.00     0.107 C 
HETATM    7  C15         0      66.762  52.714  14.862  1.00  0.00     0.049 C 
HETATM    8  C16         0      66.984  53.319  16.094  1.00  0.00     0.093 C 
HETATM    9  C18         0      68.235  53.079  16.649  1.00  0.00     0.048 C 
HETATM   10  C19         0      69.301  52.694  15.846  1.00  0.00     0.096 C 
HETATM   11  C21         0      69.114  52.534  14.500  1.00  0.00     0.084 C 
ENDROOT
BRANCH  10  12
HETATM   12  O20         0      70.601  52.879  16.307  1.00  0.00    -0.359 OA
HETATM   13  H20         0      70.743  52.889  17.245  1.00  0.00     0.218 HD
ENDBRANCH  10  12
BRANCH   4  14
HETATM   14  C5          0      68.237  52.323  10.472  1.00  0.00     0.025 C 
HETATM   15  C6          0      68.325  51.345   9.492  1.00  0.00     0.004 C 
HETATM   16  C7          0      67.331  51.316   8.519  1.00  0.00     0.026 C 
HETATM   17  C8          0      66.357  52.306   8.442  1.00  0.00     0.112 C 
HETATM   18  C10         0      66.714  53.517   9.020  1.00  0.00     0.112 C 
HETATM   19  C12         0      67.648  53.508  10.049  1.00  0.00     0.028 C 
BRANCH  17  20
HETATM   20  O9          0      65.076  52.008   8.011  1.00  0.00    -0.357 OA
HETATM   21  H9          0      64.409  51.621   8.567  1.00  0.00     0.218 HD
ENDBRANCH  17  20
BRANCH  18  22
HETATM   22  O11         0      65.861  54.590   8.807  1.00  0.00    -0.357 OA
HETATM   23  H11         0      65.555  55.056   9.577  1.00  0.00     0.218 HD
ENDBRANCH  18  22
ENDBRANCH   4  14
BRANCH   8  24
HETATM   24  O17         0      66.156  54.345  16.562  1.00  0.00    -0.359 OA
HETATM   25  H17         0      66.471  55.236  16.656  1.00  0.00     0.218 HD
ENDBRANCH   8  24
TORSDOF 5
ENDMDL
MODEL 8
REMARK VINA RESULT:      -6.0      4.209      7.348
REMARK  5 active torsions:
REMARK  status: ('A' for Active; 'I' for Inactive)
REMARK    1  A    between atoms: C4_4  and  C5_5 
REMARK    2  A    between atoms: C8_8  and  O9_9 
REMARK    3  A    between atoms: C10_11  and  O11_12 
REMARK    4  A    between atoms: C16_18  and  O17_19 
REMARK    5  A    between atoms: C19_22  and  O20_23 
ROOT
HETATM    1  O1          0      70.951  53.895  17.366  1.00  0.00    -0.286 OA
HETATM    2  C2          0      69.979  53.398  16.733  1.00  0.00     0.201 C 
HETATM    3  C3          0      70.044  53.081  15.387  1.00  0.00     0.067 C 
HETATM    4  C4          0      68.929  52.631  14.689  1.00  0.00     0.103 C 
HETATM    5  O13         0      67.789  52.486  15.341  1.00  0.00    -0.307 OA
HETATM    6  C14         0      67.663  52.809  16.610  1.00  0.00     0.107 C 
HETATM    7  C15         0      66.422  53.042  17.185  1.00  0.00     0.049 C 
HETATM    8  C16         0      66.308  53.625  18.442  1.00  0.00     0.093 C 
HETATM    9  C18         0      67.414  53.462  19.267  1.00  0.00     0.048 C 
HETATM   10  C19         0      68.662  53.181  18.728  1.00  0.00     0.096 C 
HETATM   11  C21         0      68.801  53.047  17.373  1.00  0.00     0.084 C 
ENDROOT
BRANCH  10  12
HETATM   12  O20         0      69.803  53.449  19.478  1.00  0.00    -0.359 OA
HETATM   13  H20         0      69.701  53.577  20.413  1.00  0.00     0.218 HD
ENDBRANCH  10  12
BRANCH   4  14
HETATM   14  C5          0      68.889  52.890  13.249  1.00  0.00     0.025 C 
HETATM   15  C6          0      69.580  52.118  12.327  1.00  0.00     0.004 C 
HETATM   16  C7          0      68.955  51.851  11.113  1.00  0.00     0.026 C 
HETATM   17  C8          0      67.743  52.441  10.771  1.00  0.00     0.112 C 
HETATM   18  C10         0      67.469  53.630  11.435  1.00  0.00     0.112 C 
HETATM   19  C12         0      68.040  53.834  12.686  1.00  0.00     0.028 C 
BRANCH  17  20
HETATM   20  O9          0      66.819  51.765   9.995  1.00  0.00    -0.357 OA
HETATM   21  H9          0      66.790  51.813   9.046  1.00  0.00     0.218 HD
ENDBRANCH  17  20
BRANCH  18  22
HETATM   22  O11         0      66.370  54.355  10.998  1.00  0.00    -0.357 OA
HETATM   23  H11         0      66.387  54.663  10.100  1.00  0.00     0.218 HD
ENDBRANCH  18  22
ENDBRANCH   4  14
BRANCH   8  24
HETATM   24  O17         0      65.316  54.573  18.718  1.00  0.00    -0.359 OA
HETATM   25  H17         0      65.465  55.502  18.592  1.00  0.00     0.218 HD
ENDBRANCH   8  24
TORSDOF 5
ENDMDL
MODEL 9
REMARK VINA RESULT:      -5.7      7.291      9.634
REMARK  5 active torsions:
REMARK  status: ('A' for Active; 'I' for Inactive)
REMARK    1  A    between atoms: C4_4  and  C5_5 
REMARK    2  A    between atoms: C8_8  and  O9_9 
REMARK    3  A    between atoms: C10_11  and  O11_12 
REMARK    4  A    between atoms: C16_18  and  O17_19 
REMARK    5  A    between atoms: C19_22  and  O20_23 
ROOT
HETATM    1  O1          0      65.748  54.156   8.485  1.00  0.00    -0.286 OA
HETATM    2  C2          0      66.838  54.490   9.024  1.00  0.00     0.201 C 
HETATM    3  C3          0      67.381  53.812  10.102  1.00  0.00     0.067 C 
HETATM    4  C4          0      68.531  54.262  10.742  1.00  0.00     0.103 C 
HETATM    5  O13         0      69.124  55.353  10.289  1.00  0.00    -0.307 OA
HETATM    6  C14         0      68.630  56.055   9.293  1.00  0.00     0.107 C 
HETATM    7  C15         0      68.997  57.375   9.076  1.00  0.00     0.049 C 
HETATM    8  C16         0      68.294  58.184   8.192  1.00  0.00     0.093 C 
HETATM    9  C18         0      67.604  57.504   7.196  1.00  0.00     0.048 C 
HETATM   10  C19         0      67.261  56.169   7.360  1.00  0.00     0.096 C 
HETATM   11  C21         0      67.619  55.512   8.506  1.00  0.00     0.084 C 
ENDROOT
BRANCH  10  12
HETATM   12  O20         0      66.229  55.632   6.597  1.00  0.00    -0.359 OA
HETATM   13  H20         0      65.348  55.673   6.948  1.00  0.00     0.218 HD
ENDBRANCH  10  12
BRANCH   4  14
HETATM   14  C5          0      68.697  53.902  12.151  1.00  0.00     0.025 C 
HETATM   15  C6          0      69.275  54.755  13.081  1.00  0.00     0.004 C 
HETATM   16  C7          0      68.729  54.778  14.361  1.00  0.00     0.026 C 
HETATM   17  C8          0      67.730  53.889  14.744  1.00  0.00     0.112 C 
HETATM   18  C10         0      67.679  52.718  13.999  1.00  0.00     0.112 C 
HETATM   19  C12         0      68.155  52.745  12.693  1.00  0.00     0.028 C 
BRANCH  17  20
HETATM   20  O9          0      66.755  54.266  15.650  1.00  0.00    -0.357 OA
HETATM   21  H9          0      66.887  54.283  16.591  1.00  0.00     0.218 HD
ENDBRANCH  17  20
BRANCH  18  22
HETATM   22  O11         0      66.831  51.719  14.456  1.00  0.00    -0.357 OA
HETATM   23  H11         0      65.907  51.934  14.517  1.00  0.00     0.218 HD
ENDBRANCH  18  22
ENDBRANCH   4  14
BRANCH   8  24
HETATM   24  O17         0      68.029  59.526   8.485  1.00  0.00    -0.359 OA
HETATM   25  H17         0      68.713  60.119   8.772  1.00  0.00     0.218 HD
ENDBRANCH   8  24
TORSDOF 5
ENDMDL
