MODEL 1
REMARK VINA RESULT:      -5.6      0.000      0.000
REMARK  5 active torsions:
REMARK  status: ('A' for Active; 'I' for Inactive)
REMARK    1  A    between atoms: C4_4  and  C5_5 
REMARK    2  A    between atoms: C8_8  and  O9_9 
REMARK    3  A    between atoms: C10_11  and  O11_12 
REMARK    4  A    between atoms: C16_18  and  O17_19 
REMARK    5  A    between atoms: C19_22  and  O20_23 
ROOT
HETATM    1  O1          0      12.013  83.176  15.311  1.00  0.00    -0.286 OA
HETATM    2  C2          0      12.233  82.151  14.610  1.00  0.00     0.201 C 
HETATM    3  C3          0      13.500  81.791  14.183  1.00  0.00     0.067 C 
HETATM    4  C4          0      13.702  80.715  13.327  1.00  0.00     0.103 C 
HETATM    5  O13         0      12.655  80.013  12.931  1.00  0.00    -0.307 OA
HETATM    6  C14         0      11.427  80.335  13.276  1.00  0.00     0.107 C 
HETATM    7  C15         0      10.325  79.875  12.569  1.00  0.00     0.049 C 
HETATM    8  C16         0       9.061  80.414  12.773  1.00  0.00     0.093 C 
HETATM    9  C18         0       8.866  80.999  14.019  1.00  0.00     0.048 C 
HETATM   10  C19         0       9.950  81.428  14.774  1.00  0.00     0.096 C 
HETATM   11  C21         0      11.220  81.258  14.295  1.00  0.00     0.084 C 
ENDROOT
BRANCH  10  12
HETATM   12  O20         0       9.750  82.375  15.773  1.00  0.00    -0.359 OA
HETATM   13  H20         0       9.489  83.249  15.512  1.00  0.00     0.218 HD
ENDBRANCH  10  12
BRANCH   4  14
HETATM   14  C5          0      14.888  80.755  12.469  1.00  0.00     0.025 C 
HETATM   15  C6          0      14.867  81.265  11.179  1.00  0.00     0.004 C 
HETATM   16  C7          0      15.973  81.995  10.756  1.00  0.00     0.026 C 
HETATM   17  C8          0      17.118  82.102  11.537  1.00  0.00     0.112 C 
HETATM   18  C10         0      17.285  81.082  12.464  1.00  0.00     0.112 C 
HETATM   19  C12         0      16.155  80.425  12.934  1.00  0.00     0.028 C 
BRANCH  17  20
HETATM   20  O9          0      17.887  83.252  11.513  1.00  0.00    -0.357 OA
HETATM   21  H9          0      18.639  83.396  12.077  1.00  0.00     0.218 HD
ENDBRANCH  17  20
BRANCH  18  22
HETATM   22  O11         0      18.499  81.036  13.136  1.00  0.00    -0.357 OA
HETATM   23  H11         0      19.285  81.115  12.609  1.00  0.00     0.218 HD
ENDBRANCH  18  22
ENDBRANCH   4  14
BRANCH   8  24
HETATM   24  O17         0       8.186  80.647  11.706  1.00  0.00    -0.359 OA
HETATM   25  H17         0       7.261  80.809  11.846  1.00  0.00     0.218 HD
ENDBRANCH   8  24
TORSDOF 5
ENDMDL
MODEL 2
REMARK VINA RESULT:      -5.1      9.724     11.636
REMARK  5 active torsions:
REMARK  status: ('A' for Active; 'I' for Inactive)
REMARK    1  A    between atoms: C4_4  and  C5_5 
REMARK    2  A    between atoms: C8_8  and  O9_9 
REMARK    3  A    between atoms: C10_11  and  O11_12 
REMARK    4  A    between atoms: C16_18  and  O17_19 
REMARK    5  A    between atoms: C19_22  and  O20_23 
ROOT
HETATM    1  O1          0       1.349  83.363  10.746  1.00  0.00    -0.286 OA
HETATM    2  C2          0       1.482  83.802  11.921  1.00  0.00     0.201 C 
HETATM    3  C3          0       2.045  85.036  12.201  1.00  0.00     0.067 C 
HETATM    4  C4          0       2.275  85.452  13.508  1.00  0.00     0.103 C 
HETATM    5  O13         0       1.925  84.652  14.499  1.00  0.00    -0.307 OA
HETATM    6  C14         0       1.422  83.455  14.288  1.00  0.00     0.107 C 
HETATM    7  C15         0       1.428  82.476  15.271  1.00  0.00     0.049 C 
HETATM    8  C16         0       1.134  81.151  14.971  1.00  0.00     0.093 C 
HETATM    9  C18         0       0.349  80.966  13.839  1.00  0.00     0.048 C 
HETATM   10  C19         0       0.283  81.946  12.858  1.00  0.00     0.096 C 
HETATM   11  C21         0       0.984  83.111  13.014  1.00  0.00     0.084 C 
ENDROOT
BRANCH  10  12
HETATM   12  O20         0      -0.125  81.597  11.574  1.00  0.00    -0.359 OA
HETATM   13  H20         0      -0.631  80.800  11.469  1.00  0.00     0.218 HD
ENDBRANCH  10  12
BRANCH   4  14
HETATM   14  C5          0       3.360  86.410  13.724  1.00  0.00     0.025 C 
HETATM   15  C6          0       4.467  86.128  14.512  1.00  0.00     0.004 C 
HETATM   16  C7          0       5.702  86.604  14.083  1.00  0.00     0.026 C 
HETATM   17  C8          0       5.816  87.446  12.982  1.00  0.00     0.112 C 
HETATM   18  C10         0       4.664  88.157  12.673  1.00  0.00     0.112 C 
HETATM   19  C12         0       3.437  87.616  13.038  1.00  0.00     0.028 C 
BRANCH  17  20
HETATM   20  O9          0       6.929  87.393  12.162  1.00  0.00    -0.357 OA
HETATM   21  H9          0       7.243  86.597  11.749  1.00  0.00     0.218 HD
ENDBRANCH  17  20
BRANCH  18  22
HETATM   22  O11         0       4.776  89.147  11.707  1.00  0.00    -0.357 OA
HETATM   23  H11         0       5.394  88.991  11.002  1.00  0.00     0.218 HD
ENDBRANCH  18  22
ENDBRANCH   4  14
BRANCH   8  24
HETATM   24  O17         0       1.845  80.096  15.554  1.00  0.00    -0.359 OA
HETATM   25  H17         0       2.313  79.458  15.028  1.00  0.00     0.218 HD
ENDBRANCH   8  24
TORSDOF 5
ENDMDL
MODEL 3
REMARK VINA RESULT:      -5.0      1.752      6.884
REMARK  5 active torsions:
REMARK  status: ('A' for Active; 'I' for Inactive)
REMARK    1  A    between atoms: C4_4  and  C5_5 
REMARK    2  A    between atoms: C8_8  and  O9_9 
REMARK    3  A    between atoms: C10_11  and  O11_12 
REMARK    4  A    between atoms: C16_18  and  O17_19 
REMARK    5  A    between atoms: C19_22  and  O20_23 
ROOT
HETATM    1  O1          0      14.556  81.330  11.212  1.00  0.00    -0.286 OA
HETATM    2  C2          0      14.301  80.818  12.336  1.00  0.00     0.201 C 
HETATM    3  C3          0      13.027  80.429  12.712  1.00  0.00     0.067 C 
HETATM    4  C4          0      12.755  79.963  13.994  1.00  0.00     0.103 C 
HETATM    5  O13         0      13.749  79.875  14.860  1.00  0.00    -0.307 OA
HETATM    6  C14         0      14.969  80.267  14.567  1.00  0.00     0.107 C 
HETATM    7  C15         0      15.902  80.553  15.554  1.00  0.00     0.049 C 
HETATM    8  C16         0      17.093  81.204  15.254  1.00  0.00     0.093 C 
HETATM    9  C18         0      17.523  81.065  13.940  1.00  0.00     0.048 C 
HETATM   10  C19         0      16.624  80.733  12.935  1.00  0.00     0.096 C 
HETATM   11  C21         0      15.308  80.524  13.243  1.00  0.00     0.084 C 
ENDROOT
BRANCH  10  12
HETATM   12  O20         0      16.948  81.018  11.612  1.00  0.00    -0.359 OA
HETATM   13  H20         0      16.786  81.898  11.294  1.00  0.00     0.218 HD
ENDBRANCH  10  12
BRANCH   4  14
HETATM   14  C5          0      11.394  80.147  14.499  1.00  0.00     0.025 C 
HETATM   15  C6          0      11.119  80.732  15.726  1.00  0.00     0.004 C 
HETATM   16  C7          0      10.011  81.570  15.807  1.00  0.00     0.026 C 
HETATM   17  C8          0       9.128  81.716  14.744  1.00  0.00     0.112 C 
HETATM   18  C10         0       9.120  80.657  13.846  1.00  0.00     0.112 C 
HETATM   19  C12         0      10.271  79.887  13.723  1.00  0.00     0.028 C 
BRANCH  17  20
HETATM   20  O9          0       8.487  82.921  14.515  1.00  0.00    -0.357 OA
HETATM   21  H9          0       8.768  83.554  13.864  1.00  0.00     0.218 HD
ENDBRANCH  17  20
BRANCH  18  22
HETATM   22  O11         0       8.129  80.663  12.876  1.00  0.00    -0.357 OA
HETATM   23  H11         0       7.577  79.891  12.820  1.00  0.00     0.218 HD
ENDBRANCH  18  22
ENDBRANCH   4  14
BRANCH   8  24
HETATM   24  O17         0      17.622  82.184  16.101  1.00  0.00    -0.359 OA
HETATM   25  H17         0      18.552  82.376  16.122  1.00  0.00     0.218 HD
ENDBRANCH   8  24
TORSDOF 5
ENDMDL
MODEL 4
REMARK VINA RESULT:      -4.6      1.473      2.020
REMARK  5 active torsions:
REMARK  status: ('A' for Active; 'I' for Inactive)
REMARK    1  A    between atoms: C4_4  and  C5_5 
REMARK    2  A    between atoms: C8_8  and  O9_9 
REMARK    3  A    between atoms: C10_11  and  O11_12 
REMARK    4  A    between atoms: C16_18  and  O17_19 
REMARK    5  A    between atoms: C19_22  and  O20_23 
ROOT
HETATM    1  O1          0      10.514  84.115  15.075  1.00  0.00    -0.286 OA
HETATM    2  C2          0      11.098  83.005  14.940  1.00  0.00     0.201 C 
HETATM    3  C3          0      12.441  82.824  15.223  1.00  0.00     0.067 C 
HETATM    4  C4          0      13.084  81.618  14.968  1.00  0.00     0.103 C 
HETATM    5  O13         0      12.382  80.620  14.462  1.00  0.00    -0.307 OA
HETATM    6  C14         0      11.113  80.750  14.139  1.00  0.00     0.107 C 
HETATM    7  C15         0      10.488  79.875  13.262  1.00  0.00     0.049 C 
HETATM    8  C16         0       9.237  80.159  12.730  1.00  0.00     0.093 C 
HETATM    9  C18         0       8.457  81.022  13.490  1.00  0.00     0.048 C 
HETATM   10  C19         0       9.046  81.878  14.411  1.00  0.00     0.096 C 
HETATM   11  C21         0      10.403  81.860  14.584  1.00  0.00     0.084 C 
ENDROOT
BRANCH  10  12
HETATM   12  O20         0       8.349  83.006  14.833  1.00  0.00    -0.359 OA
HETATM   13  H20         0       8.801  83.841  14.815  1.00  0.00     0.218 HD
ENDBRANCH  10  12
BRANCH   4  14
HETATM   14  C5          0      14.524  81.667  14.712  1.00  0.00     0.025 C 
HETATM   15  C6          0      15.310  80.528  14.615  1.00  0.00     0.004 C 
HETATM   16  C7          0      16.324  80.524  13.662  1.00  0.00     0.026 C 
HETATM   17  C8          0      16.635  81.660  12.923  1.00  0.00     0.112 C 
HETATM   18  C10         0      16.257  82.858  13.515  1.00  0.00     0.112 C 
HETATM   19  C12         0      15.185  82.848  14.399  1.00  0.00     0.028 C 
BRANCH  17  20
HETATM   20  O9          0      17.087  81.556  11.620  1.00  0.00    -0.357 OA
HETATM   21  H9          0      16.554  81.754  10.858  1.00  0.00     0.218 HD
ENDBRANCH  17  20
BRANCH  18  22
HETATM   22  O11         0      16.708  84.025  12.915  1.00  0.00    -0.357 OA
HETATM   23  H11         0      17.256  83.929  12.144  1.00  0.00     0.218 HD
ENDBRANCH  18  22
ENDBRANCH   4  14
BRANCH   8  24
HETATM   24  O17         0       8.931  79.875  11.394  1.00  0.00    -0.359 OA
HETATM   25  H17         0       8.613  80.546  10.802  1.00  0.00     0.218 HD
ENDBRANCH   8  24
TORSDOF 5
ENDMDL
MODEL 5
REMARK VINA RESULT:      -4.5     11.179     12.765
REMARK  5 active torsions:
REMARK  status: ('A' for Active; 'I' for Inactive)
REMARK    1  A    between atoms: C4_4  and  C5_5 
REMARK    2  A    between atoms: C8_8  and  O9_9 
REMARK    3  A    between atoms: C10_11  and  O11_12 
REMARK    4  A    between atoms: C16_18  and  O17_19 
REMARK    5  A    between atoms: C19_22  and  O20_23 
ROOT
HETATM    1  O1          0       1.748  87.398  11.115  1.00  0.00    -0.286 OA
HETATM    2  C2          0       2.275  86.660  11.991  1.00  0.00     0.201 C 
HETATM    3  C3          0       1.867  85.357  12.220  1.00  0.00     0.067 C 
HETATM    4  C4          0       2.395  84.600  13.260  1.00  0.00     0.103 C 
HETATM    5  O13         0       3.323  85.140  14.031  1.00  0.00    -0.307 OA
HETATM    6  C14         0       3.719  86.384  13.880  1.00  0.00     0.107 C 
HETATM    7  C15         0       4.370  87.072  14.895  1.00  0.00     0.049 C 
HETATM    8  C16         0       4.557  88.448  14.829  1.00  0.00     0.093 C 
HETATM    9  C18         0       4.560  88.979  13.545  1.00  0.00     0.048 C 
HETATM   10  C19         0       3.959  88.295  12.497  1.00  0.00     0.096 C 
HETATM   11  C21         0       3.373  87.080  12.727  1.00  0.00     0.084 C 
ENDROOT
BRANCH  10  12
HETATM   12  O20         0       3.583  88.995  11.355  1.00  0.00    -0.359 OA
HETATM   13  H20         0       2.824  89.563  11.410  1.00  0.00     0.218 HD
ENDBRANCH  10  12
BRANCH   4  14
HETATM   14  C5          0       1.550  83.539  13.812  1.00  0.00     0.025 C 
HETATM   15  C6          0       1.145  82.439  13.071  1.00  0.00     0.004 C 
HETATM   16  C7          0       1.096  81.208  13.717  1.00  0.00     0.026 C 
HETATM   17  C8          0       1.313  81.094  15.086  1.00  0.00     0.112 C 
HETATM   18  C10         0       1.079  82.257  15.809  1.00  0.00     0.112 C 
HETATM   19  C12         0       1.217  83.477  15.159  1.00  0.00     0.028 C 
BRANCH  17  20
HETATM   20  O9          0       1.916  79.968  15.617  1.00  0.00    -0.357 OA
HETATM   21  H9          0       1.598  79.083  15.477  1.00  0.00     0.218 HD
ENDBRANCH  17  20
BRANCH  18  22
HETATM   22  O11         0       1.096  82.151  17.192  1.00  0.00    -0.357 OA
HETATM   23  H11         0       0.387  81.664  17.595  1.00  0.00     0.218 HD
ENDBRANCH  18  22
ENDBRANCH   4  14
BRANCH   8  24
HETATM   24  O17         0       4.411  89.258  15.961  1.00  0.00    -0.359 OA
HETATM   25  H17         0       5.038  89.940  16.170  1.00  0.00     0.218 HD
ENDBRANCH   8  24
TORSDOF 5
ENDMDL
MODEL 6
REMARK VINA RESULT:      -4.5      1.598      1.927
REMARK  5 active torsions:
REMARK  status: ('A' for Active; 'I' for Inactive)
REMARK    1  A    between atoms: C4_4  and  C5_5 
REMARK    2  A    between atoms: C8_8  and  O9_9 
REMARK    3  A    between atoms: C10_11  and  O11_12 
REMARK    4  A    between atoms: C16_18  and  O17_19 
REMARK    5  A    between atoms: C19_22  and  O20_23 
ROOT
HETATM    1  O1          0      13.738  81.071  16.746  1.00  0.00    -0.286 OA
HETATM    2  C2          0      13.300  80.655  15.638  1.00  0.00     0.201 C 
HETATM    3  C3          0      14.131  80.250  14.608  1.00  0.00     0.067 C 
HETATM    4  C4          0      13.626  79.894  13.362  1.00  0.00     0.103 C 
HETATM    5  O13         0      12.319  79.928  13.174  1.00  0.00    -0.307 OA
HETATM    6  C14         0      11.489  80.341  14.106  1.00  0.00     0.107 C 
HETATM    7  C15         0      10.199  80.756  13.805  1.00  0.00     0.049 C 
HETATM    8  C16         0       9.420  81.425  14.741  1.00  0.00     0.093 C 
HETATM    9  C18         0       9.758  81.182  16.067  1.00  0.00     0.048 C 
HETATM   10  C19         0      11.024  80.721  16.400  1.00  0.00     0.096 C 
HETATM   11  C21         0      11.942  80.488  15.413  1.00  0.00     0.084 C 
ENDROOT
BRANCH  10  12
HETATM   12  O20         0      11.492  80.896  17.698  1.00  0.00    -0.359 OA
HETATM   13  H20         0      11.113  81.594  18.218  1.00  0.00     0.218 HD
ENDBRANCH  10  12
BRANCH   4  14
HETATM   14  C5          0      14.510  80.067  12.207  1.00  0.00     0.025 C 
HETATM   15  C6          0      14.042  80.107  10.902  1.00  0.00     0.004 C 
HETATM   16  C7          0      14.650  81.000  10.026  1.00  0.00     0.026 C 
HETATM   17  C8          0      15.773  81.733  10.395  1.00  0.00     0.112 C 
HETATM   18  C10         0      16.514  81.178  11.429  1.00  0.00     0.112 C 
HETATM   19  C12         0      15.862  80.356  12.341  1.00  0.00     0.028 C 
BRANCH  17  20
HETATM   20  O9          0      15.982  83.007   9.898  1.00  0.00    -0.357 OA
HETATM   21  H9          0      16.833  83.338   9.635  1.00  0.00     0.218 HD
ENDBRANCH  17  20
BRANCH  18  22
HETATM   22  O11         0      17.740  81.764  11.710  1.00  0.00    -0.357 OA
HETATM   23  H11         0      18.119  81.581  12.562  1.00  0.00     0.218 HD
ENDBRANCH  18  22
ENDBRANCH   4  14
BRANCH   8  24
HETATM   24  O17         0       8.602  82.500  14.375  1.00  0.00    -0.359 OA
HETATM   25  H17         0       7.840  82.744  14.886  1.00  0.00     0.218 HD
ENDBRANCH   8  24
TORSDOF 5
ENDMDL
MODEL 7
REMARK VINA RESULT:      -4.4      1.422      1.641
REMARK  5 active torsions:
REMARK  status: ('A' for Active; 'I' for Inactive)
REMARK    1  A    between atoms: C4_4  and  C5_5 
REMARK    2  A    between atoms: C8_8  and  O9_9 
REMARK    3  A    between atoms: C10_11  and  O11_12 
REMARK    4  A    between atoms: C16_18  and  O17_19 
REMARK    5  A    between atoms: C19_22  and  O20_23 
ROOT
HETATM    1  O1          0      13.166  83.474  16.331  1.00  0.00    -0.286 OA
HETATM    2  C2          0      13.191  82.319  15.825  1.00  0.00     0.201 C 
HETATM    3  C3          0      14.366  81.686  15.458  1.00  0.00     0.067 C 
HETATM    4  C4          0      14.359  80.457  14.808  1.00  0.00     0.103 C 
HETATM    5  O13         0      13.198  79.878  14.557  1.00  0.00    -0.307 OA
HETATM    6  C14         0      12.052  80.453  14.850  1.00  0.00     0.107 C 
HETATM    7  C15         0      10.864  80.063  14.250  1.00  0.00     0.049 C 
HETATM    8  C16         0       9.711  80.830  14.367  1.00  0.00     0.093 C 
HETATM    9  C18         0       9.662  81.650  15.488  1.00  0.00     0.048 C 
HETATM   10  C19         0      10.830  82.021  16.141  1.00  0.00     0.096 C 
HETATM   11  C21         0      12.036  81.563  15.688  1.00  0.00     0.084 C 
ENDROOT
BRANCH  10  12
HETATM   12  O20         0      10.824  83.150  16.955  1.00  0.00    -0.359 OA
HETATM   13  H20         0       9.986  83.545  17.162  1.00  0.00     0.218 HD
ENDBRANCH  10  12
BRANCH   4  14
HETATM   14  C5          0      15.501  80.149  13.944  1.00  0.00     0.025 C 
HETATM   15  C6          0      15.368  79.877  12.591  1.00  0.00     0.004 C 
HETATM   16  C7          0      16.347  80.372  11.735  1.00  0.00     0.026 C 
HETATM   17  C8          0      17.489  81.001  12.218  1.00  0.00     0.112 C 
HETATM   18  C10         0      17.827  80.667  13.523  1.00  0.00     0.112 C 
HETATM   19  C12         0      16.815  80.255  14.382  1.00  0.00     0.028 C 
BRANCH  17  20
HETATM   20  O9          0      18.087  82.028  11.509  1.00  0.00    -0.357 OA
HETATM   21  H9          0      18.770  82.586  11.863  1.00  0.00     0.218 HD
ENDBRANCH  17  20
BRANCH  18  22
HETATM   22  O11         0      19.054  81.116  13.989  1.00  0.00    -0.357 OA
HETATM   23  H11         0      19.138  82.049  14.150  1.00  0.00     0.218 HD
ENDBRANCH  18  22
ENDBRANCH   4  14
BRANCH   8  24
HETATM   24  O17         0       8.843  81.012  13.285  1.00  0.00    -0.359 OA
HETATM   25  H17         0       8.274  80.315  12.979  1.00  0.00     0.218 HD
ENDBRANCH   8  24
TORSDOF 5
ENDMDL
MODEL 8
REMARK VINA RESULT:      -4.2      1.813      3.203
REMARK  5 active torsions:
REMARK  status: ('A' for Active; 'I' for Inactive)
REMARK    1  A    between atoms: C4_4  and  C5_5 
REMARK    2  A    between atoms: C8_8  and  O9_9 
REMARK    3  A    between atoms: C10_11  and  O11_12 
REMARK    4  A    between atoms: C16_18  and  O17_19 
REMARK    5  A    between atoms: C19_22  and  O20_23 
ROOT
HETATM    1  O1          0       9.858  79.882  14.148  1.00  0.00    -0.286 OA
HETATM    2  C2          0      10.841  80.673  14.147  1.00  0.00     0.201 C 
HETATM    3  C3          0      12.097  80.309  13.694  1.00  0.00     0.067 C 
HETATM    4  C4          0      13.187  81.167  13.799  1.00  0.00     0.103 C 
HETATM    5  O13         0      13.003  82.363  14.329  1.00  0.00    -0.307 OA
HETATM    6  C14         0      11.840  82.745  14.809  1.00  0.00     0.107 C 
HETATM    7  C15         0      11.728  83.799  15.703  1.00  0.00     0.049 C 
HETATM    8  C16         0      10.548  84.034  16.399  1.00  0.00     0.093 C 
HETATM    9  C18         0       9.400  83.544  15.789  1.00  0.00     0.048 C 
HETATM   10  C19         0       9.480  82.520  14.854  1.00  0.00     0.096 C 
HETATM   11  C21         0      10.701  82.002  14.518  1.00  0.00     0.084 C 
ENDROOT
BRANCH  10  12
HETATM   12  O20         0       8.350  81.755  14.585  1.00  0.00    -0.359 OA
HETATM   13  H20         0       7.594  82.193  14.213  1.00  0.00     0.218 HD
ENDBRANCH  10  12
BRANCH   4  14
HETATM   14  C5          0      14.514  80.556  13.881  1.00  0.00     0.025 C 
HETATM   15  C6          0      15.100  79.884  12.818  1.00  0.00     0.004 C 
HETATM   16  C7          0      16.469  80.046  12.629  1.00  0.00     0.026 C 
HETATM   17  C8          0      17.254  80.741  13.542  1.00  0.00     0.112 C 
HETATM   18  C10         0      16.728  80.811  14.825  1.00  0.00     0.112 C 
HETATM   19  C12         0      15.349  80.732  14.978  1.00  0.00     0.028 C 
BRANCH  17  20
HETATM   20  O9          0      18.353  81.469  13.121  1.00  0.00    -0.357 OA
HETATM   21  H9          0      18.376  81.973  12.316  1.00  0.00     0.218 HD
ENDBRANCH  17  20
BRANCH  18  22
HETATM   22  O11         0      17.552  81.325  15.815  1.00  0.00    -0.357 OA
HETATM   23  H11         0      18.438  81.556  15.560  1.00  0.00     0.218 HD
ENDBRANCH  18  22
ENDBRANCH   4  14
BRANCH   8  24
HETATM   24  O17         0      10.559  84.422  17.743  1.00  0.00    -0.359 OA
HETATM   25  H17         0      10.281  85.289  18.015  1.00  0.00     0.218 HD
ENDBRANCH   8  24
TORSDOF 5
ENDMDL
MODEL 9
REMARK VINA RESULT:      -3.9      8.082     11.217
REMARK  5 active torsions:
REMARK  status: ('A' for Active; 'I' for Inactive)
REMARK    1  A    between atoms: C4_4  and  C5_5 
REMARK    2  A    between atoms: C8_8  and  O9_9 
REMARK    3  A    between atoms: C10_11  and  O11_12 
REMARK    4  A    between atoms: C16_18  and  O17_19 
REMARK    5  A    between atoms: C19_22  and  O20_23 
ROOT
HETATM    1  O1          0       6.700  85.110  16.180  1.00  0.00    -0.286 OA
HETATM    2  C2          0       6.142  85.856  15.329  1.00  0.00     0.201 C 
HETATM    3  C3          0       4.782  85.817  15.074  1.00  0.00     0.067 C 
HETATM    4  C4          0       4.208  86.575  14.060  1.00  0.00     0.103 C 
HETATM    5  O13         0       4.986  87.366  13.341  1.00  0.00    -0.307 OA
HETATM    6  C14         0       6.288  87.413  13.517  1.00  0.00     0.107 C 
HETATM    7  C15         0       7.140  87.908  12.540  1.00  0.00     0.049 C 
HETATM    8  C16         0       8.515  87.724  12.621  1.00  0.00     0.093 C 
HETATM    9  C18         0       9.006  87.524  13.905  1.00  0.00     0.048 C 
HETATM   10  C19         0       8.170  87.073  14.918  1.00  0.00     0.096 C 
HETATM   11  C21         0       6.848  86.840  14.654  1.00  0.00     0.084 C 
ENDROOT
BRANCH  10  12
HETATM   12  O20         0       8.727  86.471  16.042  1.00  0.00    -0.359 OA
HETATM   13  H20         0       9.327  86.983  16.571  1.00  0.00     0.218 HD
ENDBRANCH  10  12
BRANCH   4  14
HETATM   14  C5          0       2.972  86.068  13.461  1.00  0.00     0.025 C 
HETATM   15  C6          0       2.237  86.788  12.531  1.00  0.00     0.004 C 
HETATM   16  C7          0       1.657  86.082  11.482  1.00  0.00     0.026 C 
HETATM   17  C8          0       1.691  84.693  11.430  1.00  0.00     0.112 C 
HETATM   18  C10         0       1.866  84.071  12.660  1.00  0.00     0.112 C 
HETATM   19  C12         0       2.525  84.769  13.665  1.00  0.00     0.028 C 
BRANCH  17  20
HETATM   20  O9          0       1.759  84.030  10.218  1.00  0.00    -0.357 OA
HETATM   21  H9          0       1.155  84.180   9.500  1.00  0.00     0.218 HD
ENDBRANCH  17  20
BRANCH  18  22
HETATM   22  O11         0       1.720  82.691  12.693  1.00  0.00    -0.357 OA
HETATM   23  H11         0       2.268  82.187  12.102  1.00  0.00     0.218 HD
ENDBRANCH  18  22
ENDBRANCH   4  14
BRANCH   8  24
HETATM   24  O17         0       9.278  87.426  11.487  1.00  0.00    -0.359 OA
HETATM   25  H17         0      10.227  87.384  11.520  1.00  0.00     0.218 HD
ENDBRANCH   8  24
TORSDOF 5
ENDMDL
