MODEL 1
REMARK VINA RESULT:      -3.7      0.000      0.000
REMARK  5 active torsions:
REMARK  status: ('A' for Active; 'I' for Inactive)
REMARK    1  A    between atoms: C4_4  and  C5_5 
REMARK    2  A    between atoms: C8_8  and  O9_9 
REMARK    3  A    between atoms: C10_11  and  O11_12 
REMARK    4  A    between atoms: C16_18  and  O17_19 
REMARK    5  A    between atoms: C19_22  and  O20_23 
ROOT
HETATM    1  O1          0      60.665  75.059 -26.836  1.00  0.00    -0.286 OA
HETATM    2  C2          0      60.401  74.857 -25.619  1.00  0.00     0.201 C 
HETATM    3  C3          0      60.374  75.872 -24.678  1.00  0.00     0.067 C 
HETATM    4  C4          0      60.182  75.607 -23.327  1.00  0.00     0.103 C 
HETATM    5  O13         0      60.001  74.356 -22.944  1.00  0.00    -0.307 OA
HETATM    6  C14         0      60.054  73.351 -23.791  1.00  0.00     0.107 C 
HETATM    7  C15         0      60.266  72.047 -23.367  1.00  0.00     0.049 C 
HETATM    8  C16         0      60.575  71.036 -24.269  1.00  0.00     0.093 C 
HETATM    9  C18         0      60.144  71.259 -25.571  1.00  0.00     0.048 C 
HETATM   10  C19         0      59.878  72.547 -26.015  1.00  0.00     0.096 C 
HETATM   11  C21         0      60.024  73.604 -25.159  1.00  0.00     0.084 C 
ENDROOT
BRANCH  10  12
HETATM   12  O20         0      59.878  72.810 -27.381  1.00  0.00    -0.359 OA
HETATM   13  H20         0      60.688  73.108 -27.777  1.00  0.00     0.218 HD
ENDBRANCH  10  12
BRANCH   4  14
HETATM   14  C5          0      60.746  76.562 -22.371  1.00  0.00     0.025 C 
HETATM   15  C6          0      62.072  76.524 -21.964  1.00  0.00     0.004 C 
HETATM   16  C7          0      62.724  77.739 -21.780  1.00  0.00     0.026 C 
HETATM   17  C8          0      62.047  78.951 -21.866  1.00  0.00     0.112 C 
HETATM   18  C10         0      60.679  78.868 -21.642  1.00  0.00     0.112 C 
HETATM   19  C12         0      60.037  77.666 -21.915  1.00  0.00     0.028 C 
BRANCH  17  20
HETATM   20  O9          0      62.680  80.084 -22.346  1.00  0.00    -0.357 OA
HETATM   21  H9          0      62.406  80.970 -22.137  1.00  0.00     0.218 HD
ENDBRANCH  17  20
BRANCH  18  22
HETATM   22  O11         0      59.987  80.065 -21.528  1.00  0.00    -0.357 OA
HETATM   23  H11         0      59.577  80.247 -20.690  1.00  0.00     0.218 HD
ENDBRANCH  18  22
ENDBRANCH   4  14
BRANCH   8  24
HETATM   24  O17         0      61.524  70.054 -23.966  1.00  0.00    -0.359 OA
HETATM   25  H17         0      61.856  69.460 -24.629  1.00  0.00     0.218 HD
ENDBRANCH   8  24
TORSDOF 5
ENDMDL
MODEL 2
REMARK VINA RESULT:      -3.3      2.498      6.691
REMARK  5 active torsions:
REMARK  status: ('A' for Active; 'I' for Inactive)
REMARK    1  A    between atoms: C4_4  and  C5_5 
REMARK    2  A    between atoms: C8_8  and  O9_9 
REMARK    3  A    between atoms: C10_11  and  O11_12 
REMARK    4  A    between atoms: C16_18  and  O17_19 
REMARK    5  A    between atoms: C19_22  and  O20_23 
ROOT
HETATM    1  O1          0      60.103  75.957 -22.432  1.00  0.00    -0.286 OA
HETATM    2  C2          0      60.770  75.537 -23.416  1.00  0.00     0.201 C 
HETATM    3  C3          0      60.179  75.077 -24.581  1.00  0.00     0.067 C 
HETATM    4  C4          0      60.932  74.523 -25.610  1.00  0.00     0.103 C 
HETATM    5  O13         0      62.245  74.458 -25.472  1.00  0.00    -0.307 OA
HETATM    6  C14         0      62.852  74.846 -24.372  1.00  0.00     0.107 C 
HETATM    7  C15         0      64.136  74.424 -24.059  1.00  0.00     0.049 C 
HETATM    8  C16         0      64.672  74.624 -22.792  1.00  0.00     0.093 C 
HETATM    9  C18         0      64.117  75.680 -22.080  1.00  0.00     0.048 C 
HETATM   10  C19         0      62.853  76.158 -22.398  1.00  0.00     0.096 C 
HETATM   11  C21         0      62.155  75.596 -23.432  1.00  0.00     0.084 C 
ENDROOT
BRANCH  10  12
HETATM   12  O20         0      62.140  76.882 -21.447  1.00  0.00    -0.359 OA
HETATM   13  H20         0      62.458  76.875 -20.552  1.00  0.00     0.218 HD
ENDBRANCH  10  12
BRANCH   4  14
HETATM   14  C5          0      60.266  73.553 -26.481  1.00  0.00     0.025 C 
HETATM   15  C6          0      60.109  73.749 -27.845  1.00  0.00     0.004 C 
HETATM   16  C7          0      60.250  72.643 -28.676  1.00  0.00     0.026 C 
HETATM   17  C8          0      60.407  71.360 -28.162  1.00  0.00     0.112 C 
HETATM   18  C10         0      59.925  71.189 -26.872  1.00  0.00     0.112 C 
HETATM   19  C12         0      59.875  72.297 -26.034  1.00  0.00     0.028 C 
BRANCH  17  20
HETATM   20  O9          0      61.175  70.419 -28.826  1.00  0.00    -0.357 OA
HETATM   21  H9          0      62.018  70.111 -28.515  1.00  0.00     0.218 HD
ENDBRANCH  17  20
BRANCH  18  22
HETATM   22  O11         0      59.884  69.891 -26.382  1.00  0.00    -0.357 OA
HETATM   23  H11         0      60.700  69.529 -26.056  1.00  0.00     0.218 HD
ENDBRANCH  18  22
ENDBRANCH   4  14
BRANCH   8  24
HETATM   24  O17         0      65.452  73.644 -22.168  1.00  0.00    -0.359 OA
HETATM   25  H17         0      66.241  73.302 -22.571  1.00  0.00     0.218 HD
ENDBRANCH   8  24
TORSDOF 5
ENDMDL
MODEL 3
REMARK VINA RESULT:      -3.2      2.253      6.890
REMARK  5 active torsions:
REMARK  status: ('A' for Active; 'I' for Inactive)
REMARK    1  A    between atoms: C4_4  and  C5_5 
REMARK    2  A    between atoms: C8_8  and  O9_9 
REMARK    3  A    between atoms: C10_11  and  O11_12 
REMARK    4  A    between atoms: C16_18  and  O17_19 
REMARK    5  A    between atoms: C19_22  and  O20_23 
ROOT
HETATM    1  O1          0      64.667  75.582 -24.536  1.00  0.00    -0.286 OA
HETATM    2  C2          0      63.513  75.142 -24.277  1.00  0.00     0.201 C 
HETATM    3  C3          0      62.949  74.073 -24.952  1.00  0.00     0.067 C 
HETATM    4  C4          0      61.638  73.673 -24.718  1.00  0.00     0.103 C 
HETATM    5  O13         0      60.928  74.324 -23.814  1.00  0.00    -0.307 OA
HETATM    6  C14         0      61.403  75.369 -23.172  1.00  0.00     0.107 C 
HETATM    7  C15         0      60.568  76.281 -22.541  1.00  0.00     0.049 C 
HETATM    8  C16         0      61.046  77.505 -22.089  1.00  0.00     0.093 C 
HETATM    9  C18         0      62.409  77.538 -21.818  1.00  0.00     0.048 C 
HETATM   10  C19         0      63.266  76.612 -22.395  1.00  0.00     0.096 C 
HETATM   11  C21         0      62.764  75.647 -23.225  1.00  0.00     0.084 C 
ENDROOT
BRANCH  10  12
HETATM   12  O20         0      64.625  76.902 -22.478  1.00  0.00    -0.359 OA
HETATM   13  H20         0      64.891  77.811 -22.413  1.00  0.00     0.218 HD
ENDBRANCH  10  12
BRANCH   4  14
HETATM   14  C5          0      60.937  73.001 -25.814  1.00  0.00     0.025 C 
HETATM   15  C6          0      59.925  73.607 -26.544  1.00  0.00     0.004 C 
HETATM   16  C7          0      59.875  73.352 -27.910  1.00  0.00     0.026 C 
HETATM   17  C8          0      60.717  72.422 -28.510  1.00  0.00     0.112 C 
HETATM   18  C10         0      61.215  71.451 -27.651  1.00  0.00     0.112 C 
HETATM   19  C12         0      61.334  71.762 -26.302  1.00  0.00     0.028 C 
BRANCH  17  20
HETATM   20  O9          0      61.168  72.606 -29.806  1.00  0.00    -0.357 OA
HETATM   21  H9          0      62.074  72.783 -30.029  1.00  0.00     0.218 HD
ENDBRANCH  17  20
BRANCH  18  22
HETATM   22  O11         0      61.904  70.395 -28.229  1.00  0.00    -0.357 OA
HETATM   23  H11         0      62.449  70.596 -28.981  1.00  0.00     0.218 HD
ENDBRANCH  18  22
ENDBRANCH   4  14
BRANCH   8  24
HETATM   24  O17         0      60.294  78.677 -22.225  1.00  0.00    -0.359 OA
HETATM   25  H17         0      59.656  78.939 -21.572  1.00  0.00     0.218 HD
ENDBRANCH   8  24
TORSDOF 5
ENDMDL
MODEL 4
REMARK VINA RESULT:      -3.2      2.389      3.195
REMARK  5 active torsions:
REMARK  status: ('A' for Active; 'I' for Inactive)
REMARK    1  A    between atoms: C4_4  and  C5_5 
REMARK    2  A    between atoms: C8_8  and  O9_9 
REMARK    3  A    between atoms: C10_11  and  O11_12 
REMARK    4  A    between atoms: C16_18  and  O17_19 
REMARK    5  A    between atoms: C19_22  and  O20_23 
ROOT
HETATM    1  O1          0      64.093  73.326 -25.357  1.00  0.00    -0.286 OA
HETATM    2  C2          0      62.905  73.723 -25.513  1.00  0.00     0.201 C 
HETATM    3  C3          0      62.289  74.605 -24.642  1.00  0.00     0.067 C 
HETATM    4  C4          0      60.948  74.947 -24.778  1.00  0.00     0.103 C 
HETATM    5  O13         0      60.260  74.427 -25.779  1.00  0.00    -0.307 OA
HETATM    6  C14         0      60.786  73.557 -26.612  1.00  0.00     0.107 C 
HETATM    7  C15         0      59.998  72.722 -27.392  1.00  0.00     0.049 C 
HETATM    8  C16         0      60.546  71.641 -28.072  1.00  0.00     0.093 C 
HETATM    9  C18         0      61.900  71.756 -28.364  1.00  0.00     0.048 C 
HETATM   10  C19         0      62.708  72.617 -27.634  1.00  0.00     0.096 C 
HETATM   11  C21         0      62.164  73.371 -26.631  1.00  0.00     0.084 C 
ENDROOT
BRANCH  10  12
HETATM   12  O20         0      64.085  72.414 -27.625  1.00  0.00    -0.359 OA
HETATM   13  H20         0      64.554  72.513 -28.445  1.00  0.00     0.218 HD
ENDBRANCH  10  12
BRANCH   4  14
HETATM   14  C5          0      60.233  75.352 -23.567  1.00  0.00     0.025 C 
HETATM   15  C6          0      59.980  74.481 -22.516  1.00  0.00     0.004 C 
HETATM   16  C7          0      60.075  74.986 -21.223  1.00  0.00     0.026 C 
HETATM   17  C8          0      60.281  76.341 -20.983  1.00  0.00     0.112 C 
HETATM   18  C10         0      59.891  77.179 -22.018  1.00  0.00     0.112 C 
HETATM   19  C12         0      59.888  76.673 -23.313  1.00  0.00     0.028 C 
BRANCH  17  20
HETATM   20  O9          0      61.010  76.762 -19.885  1.00  0.00    -0.357 OA
HETATM   21  H9          0      60.786  76.545 -18.987  1.00  0.00     0.218 HD
ENDBRANCH  17  20
BRANCH  18  22
HETATM   22  O11         0      59.899  78.543 -21.759  1.00  0.00    -0.357 OA
HETATM   23  H11         0      59.054  78.976 -21.712  1.00  0.00     0.218 HD
ENDBRANCH  18  22
ENDBRANCH   4  14
BRANCH   8  24
HETATM   24  O17         0      59.878  70.413 -28.148  1.00  0.00    -0.359 OA
HETATM   25  H17         0      59.572  69.962 -27.370  1.00  0.00     0.218 HD
ENDBRANCH   8  24
TORSDOF 5
ENDMDL
MODEL 5
REMARK VINA RESULT:      -3.2      2.835      3.650
REMARK  5 active torsions:
REMARK  status: ('A' for Active; 'I' for Inactive)
REMARK    1  A    between atoms: C4_4  and  C5_5 
REMARK    2  A    between atoms: C8_8  and  O9_9 
REMARK    3  A    between atoms: C10_11  and  O11_12 
REMARK    4  A    between atoms: C16_18  and  O17_19 
REMARK    5  A    between atoms: C19_22  and  O20_23 
ROOT
HETATM    1  O1          0      59.973  74.425 -25.124  1.00  0.00    -0.286 OA
HETATM    2  C2          0      61.230  74.326 -25.088  1.00  0.00     0.201 C 
HETATM    3  C3          0      62.004  74.937 -24.117  1.00  0.00     0.067 C 
HETATM    4  C4          0      63.393  74.898 -24.160  1.00  0.00     0.103 C 
HETATM    5  O13         0      63.979  74.242 -25.146  1.00  0.00    -0.307 OA
HETATM    6  C14         0      63.292  73.676 -26.114  1.00  0.00     0.107 C 
HETATM    7  C15         0      63.877  73.346 -27.328  1.00  0.00     0.049 C 
HETATM    8  C16         0      63.105  72.989 -28.427  1.00  0.00     0.093 C 
HETATM    9  C18         0      61.850  72.476 -28.122  1.00  0.00     0.048 C 
HETATM   10  C19         0      61.256  72.748 -26.897  1.00  0.00     0.096 C 
HETATM   11  C21         0      61.918  73.513 -25.976  1.00  0.00     0.084 C 
ENDROOT
BRANCH  10  12
HETATM   12  O20         0      59.877  72.616 -26.766  1.00  0.00    -0.359 OA
HETATM   13  H20         0      59.328  72.991 -27.444  1.00  0.00     0.218 HD
ENDBRANCH  10  12
BRANCH   4  14
HETATM   14  C5          0      64.114  76.000 -23.520  1.00  0.00     0.025 C 
HETATM   15  C6          0      65.458  76.255 -23.754  1.00  0.00     0.004 C 
HETATM   16  C7          0      65.856  77.586 -23.831  1.00  0.00     0.026 C 
HETATM   17  C8          0      64.978  78.628 -23.552  1.00  0.00     0.112 C 
HETATM   18  C10         0      63.906  78.281 -22.741  1.00  0.00     0.112 C 
HETATM   19  C12         0      63.473  76.960 -22.748  1.00  0.00     0.028 C 
BRANCH  17  20
HETATM   20  O9          0      65.080  79.837 -24.217  1.00  0.00    -0.357 OA
HETATM   21  H9          0      64.384  80.207 -24.748  1.00  0.00     0.218 HD
ENDBRANCH  17  20
BRANCH  18  22
HETATM   22  O11         0      63.107  79.317 -22.279  1.00  0.00    -0.357 OA
HETATM   23  H11         0      62.175  79.145 -22.214  1.00  0.00     0.218 HD
ENDBRANCH  18  22
ENDBRANCH   4  14
BRANCH   8  24
HETATM   24  O17         0      63.427  73.425 -29.717  1.00  0.00    -0.359 OA
HETATM   25  H17         0      62.756  73.635 -30.355  1.00  0.00     0.218 HD
ENDBRANCH   8  24
TORSDOF 5
ENDMDL
MODEL 6
REMARK VINA RESULT:      -3.2      5.061      6.879
REMARK  5 active torsions:
REMARK  status: ('A' for Active; 'I' for Inactive)
REMARK    1  A    between atoms: C4_4  and  C5_5 
REMARK    2  A    between atoms: C8_8  and  O9_9 
REMARK    3  A    between atoms: C10_11  and  O11_12 
REMARK    4  A    between atoms: C16_18  and  O17_19 
REMARK    5  A    between atoms: C19_22  and  O20_23 
ROOT
HETATM    1  O1          0      64.486  78.484 -22.604  1.00  0.00    -0.286 OA
HETATM    2  C2          0      64.773  77.478 -23.309  1.00  0.00     0.201 C 
HETATM    3  C3          0      65.883  77.434 -24.136  1.00  0.00     0.067 C 
HETATM    4  C4          0      66.120  76.354 -24.979  1.00  0.00     0.103 C 
HETATM    5  O13         0      65.271  75.342 -24.969  1.00  0.00    -0.307 OA
HETATM    6  C14         0      64.183  75.350 -24.230  1.00  0.00     0.107 C 
HETATM    7  C15         0      63.111  74.511 -24.500  1.00  0.00     0.049 C 
HETATM    8  C16         0      61.878  74.697 -23.886  1.00  0.00     0.093 C 
HETATM    9  C18         0      61.923  75.363 -22.668  1.00  0.00     0.048 C 
HETATM   10  C19         0      63.003  76.173 -22.346  1.00  0.00     0.096 C 
HETATM   11  C21         0      64.040  76.304 -23.229  1.00  0.00     0.084 C 
ENDROOT
BRANCH  10  12
HETATM   12  O20         0      62.853  77.150 -21.366  1.00  0.00    -0.359 OA
HETATM   13  H20         0      63.368  77.944 -21.447  1.00  0.00     0.218 HD
ENDBRANCH  10  12
BRANCH   4  14
HETATM   14  C5          0      66.895  76.611 -26.194  1.00  0.00     0.025 C 
HETATM   15  C6          0      66.897  75.749 -27.282  1.00  0.00     0.004 C 
HETATM   16  C7          0      66.916  76.315 -28.552  1.00  0.00     0.026 C 
HETATM   17  C8          0      67.062  77.685 -28.739  1.00  0.00     0.112 C 
HETATM   18  C10         0      67.673  78.352 -27.685  1.00  0.00     0.112 C 
HETATM   19  C12         0      67.567  77.808 -26.410  1.00  0.00     0.028 C 
BRANCH  17  20
HETATM   20  O9          0      66.449  78.326 -29.801  1.00  0.00    -0.357 OA
HETATM   21  H9          0      65.508  78.352 -29.930  1.00  0.00     0.218 HD
ENDBRANCH  17  20
BRANCH  18  22
HETATM   22  O11         0      68.014  79.680 -27.895  1.00  0.00    -0.357 OA
HETATM   23  H11         0      68.688  79.854 -28.542  1.00  0.00     0.218 HD
ENDBRANCH  18  22
ENDBRANCH   4  14
BRANCH   8  24
HETATM   24  O17         0      60.680  74.534 -24.592  1.00  0.00    -0.359 OA
HETATM   25  H17         0      60.612  73.938 -25.329  1.00  0.00     0.218 HD
ENDBRANCH   8  24
TORSDOF 5
ENDMDL
MODEL 7
REMARK VINA RESULT:      -3.0      4.505      6.538
REMARK  5 active torsions:
REMARK  status: ('A' for Active; 'I' for Inactive)
REMARK    1  A    between atoms: C4_4  and  C5_5 
REMARK    2  A    between atoms: C8_8  and  O9_9 
REMARK    3  A    between atoms: C10_11  and  O11_12 
REMARK    4  A    between atoms: C16_18  and  O17_19 
REMARK    5  A    between atoms: C19_22  and  O20_23 
ROOT
HETATM    1  O1          0      63.291  70.277 -26.192  1.00  0.00    -0.286 OA
HETATM    2  C2          0      63.073  71.344 -26.828  1.00  0.00     0.201 C 
HETATM    3  C3          0      63.969  71.869 -27.744  1.00  0.00     0.067 C 
HETATM    4  C4          0      63.750  73.098 -28.355  1.00  0.00     0.103 C 
HETATM    5  O13         0      62.648  73.765 -28.063  1.00  0.00    -0.307 OA
HETATM    6  C14         0      61.783  73.330 -27.173  1.00  0.00     0.107 C 
HETATM    7  C15         0      60.860  74.177 -26.575  1.00  0.00     0.049 C 
HETATM    8  C16         0      60.128  73.777 -25.464  1.00  0.00     0.093 C 
HETATM    9  C18         0      59.968  72.404 -25.330  1.00  0.00     0.048 C 
HETATM   10  C19         0      60.845  71.527 -25.953  1.00  0.00     0.096 C 
HETATM   11  C21         0      61.866  72.018 -26.720  1.00  0.00     0.084 C 
ENDROOT
BRANCH  10  12
HETATM   12  O20         0      60.953  70.222 -25.481  1.00  0.00    -0.359 OA
HETATM   13  H20         0      60.279  69.905 -24.892  1.00  0.00     0.218 HD
ENDBRANCH  10  12
BRANCH   4  14
HETATM   14  C5          0      64.929  73.845 -28.798  1.00  0.00     0.025 C 
HETATM   15  C6          0      65.015  74.445 -30.046  1.00  0.00     0.004 C 
HETATM   16  C7          0      65.646  75.682 -30.125  1.00  0.00     0.026 C 
HETATM   17  C8          0      66.290  76.243 -29.028  1.00  0.00     0.112 C 
HETATM   18  C10         0      66.691  75.331 -28.061  1.00  0.00     0.112 C 
HETATM   19  C12         0      65.988  74.137 -27.947  1.00  0.00     0.028 C 
BRANCH  17  20
HETATM   20  O9          0      66.320  77.615 -28.849  1.00  0.00    -0.357 OA
HETATM   21  H9          0      65.541  78.159 -28.808  1.00  0.00     0.218 HD
ENDBRANCH  17  20
BRANCH  18  22
HETATM   22  O11         0      67.501  75.810 -27.041  1.00  0.00    -0.357 OA
HETATM   23  H11         0      67.839  75.172 -26.424  1.00  0.00     0.218 HD
ENDBRANCH  18  22
ENDBRANCH   4  14
BRANCH   8  24
HETATM   24  O17         0      59.875  74.655 -24.403  1.00  0.00    -0.359 OA
HETATM   25  H17         0      59.019  74.712 -23.997  1.00  0.00     0.218 HD
ENDBRANCH   8  24
TORSDOF 5
ENDMDL
MODEL 8
REMARK VINA RESULT:      -3.0      4.423      5.834
REMARK  5 active torsions:
REMARK  status: ('A' for Active; 'I' for Inactive)
REMARK    1  A    between atoms: C4_4  and  C5_5 
REMARK    2  A    between atoms: C8_8  and  O9_9 
REMARK    3  A    between atoms: C10_11  and  O11_12 
REMARK    4  A    between atoms: C16_18  and  O17_19 
REMARK    5  A    between atoms: C19_22  and  O20_23 
ROOT
HETATM    1  O1          0      62.467  77.088 -22.469  1.00  0.00    -0.286 OA
HETATM    2  C2          0      63.005  76.253 -23.247  1.00  0.00     0.201 C 
HETATM    3  C3          0      64.370  76.205 -23.469  1.00  0.00     0.067 C 
HETATM    4  C4          0      64.926  75.344 -24.409  1.00  0.00     0.103 C 
HETATM    5  O13         0      64.124  74.543 -25.088  1.00  0.00    -0.307 OA
HETATM    6  C14         0      62.818  74.575 -24.943  1.00  0.00     0.107 C 
HETATM    7  C15         0      61.963  74.051 -25.903  1.00  0.00     0.049 C 
HETATM    8  C16         0      60.598  74.311 -25.872  1.00  0.00     0.093 C 
HETATM    9  C18         0      60.090  74.631 -24.619  1.00  0.00     0.048 C 
HETATM   10  C19         0      60.925  75.113 -23.621  1.00  0.00     0.096 C 
HETATM   11  C21         0      62.263  75.259 -23.867  1.00  0.00     0.084 C 
ENDROOT
BRANCH  10  12
HETATM   12  O20         0      60.376  75.825 -22.559  1.00  0.00    -0.359 OA
HETATM   13  H20         0      60.940  76.037 -21.825  1.00  0.00     0.218 HD
ENDBRANCH  10  12
BRANCH   4  14
HETATM   14  C5          0      66.200  75.742 -25.011  1.00  0.00     0.025 C 
HETATM   15  C6          0      67.027  74.851 -25.679  1.00  0.00     0.004 C 
HETATM   16  C7          0      67.683  75.310 -26.817  1.00  0.00     0.026 C 
HETATM   17  C8          0      67.627  76.645 -27.203  1.00  0.00     0.112 C 
HETATM   18  C10         0      67.335  77.533 -26.176  1.00  0.00     0.112 C 
HETATM   19  C12         0      66.604  77.069 -25.089  1.00  0.00     0.028 C 
BRANCH  17  20
HETATM   20  O9          0      67.654  76.998 -28.540  1.00  0.00    -0.357 OA
HETATM   21  H9          0      67.254  77.788 -28.886  1.00  0.00     0.218 HD
ENDBRANCH  17  20
BRANCH  18  22
HETATM   22  O11         0      67.453  78.886 -26.463  1.00  0.00    -0.357 OA
HETATM   23  H11         0      66.877  79.235 -27.135  1.00  0.00     0.218 HD
ENDBRANCH  18  22
ENDBRANCH   4  14
BRANCH   8  24
HETATM   24  O17         0      59.877  74.561 -27.045  1.00  0.00    -0.359 OA
HETATM   25  H17         0      58.996  74.915 -27.023  1.00  0.00     0.218 HD
ENDBRANCH   8  24
TORSDOF 5
ENDMDL
MODEL 9
REMARK VINA RESULT:      -2.9      3.299      7.063
REMARK  5 active torsions:
REMARK  status: ('A' for Active; 'I' for Inactive)
REMARK    1  A    between atoms: C4_4  and  C5_5 
REMARK    2  A    between atoms: C8_8  and  O9_9 
REMARK    3  A    between atoms: C10_11  and  O11_12 
REMARK    4  A    between atoms: C16_18  and  O17_19 
REMARK    5  A    between atoms: C19_22  and  O20_23 
ROOT
HETATM    1  O1          0      65.967  73.436 -25.595  1.00  0.00    -0.286 OA
HETATM    2  C2          0      64.879  73.799 -25.070  1.00  0.00     0.201 C 
HETATM    3  C3          0      63.674  73.167 -25.327  1.00  0.00     0.067 C 
HETATM    4  C4          0      62.474  73.650 -24.817  1.00  0.00     0.103 C 
HETATM    5  O13         0      62.498  74.727 -24.052  1.00  0.00    -0.307 OA
HETATM    6  C14         0      63.609  75.386 -23.807  1.00  0.00     0.107 C 
HETATM    7  C15         0      63.596  76.699 -23.360  1.00  0.00     0.049 C 
HETATM    8  C16         0      64.754  77.468 -23.347  1.00  0.00     0.093 C 
HETATM    9  C18         0      65.938  76.745 -23.279  1.00  0.00     0.048 C 
HETATM   10  C19         0      65.976  75.415 -23.674  1.00  0.00     0.096 C 
HETATM   11  C21         0      64.834  74.806 -24.118  1.00  0.00     0.084 C 
ENDROOT
BRANCH  10  12
HETATM   12  O20         0      67.197  74.841 -24.017  1.00  0.00    -0.359 OA
HETATM   13  H20         0      67.980  75.179 -23.600  1.00  0.00     0.218 HD
ENDBRANCH  10  12
BRANCH   4  14
HETATM   14  C5          0      61.256  73.347 -25.570  1.00  0.00     0.025 C 
HETATM   15  C6          0      60.453  74.330 -26.128  1.00  0.00     0.004 C 
HETATM   16  C7          0      59.888  74.071 -27.373  1.00  0.00     0.026 C 
HETATM   17  C8          0      60.006  72.827 -27.983  1.00  0.00     0.112 C 
HETATM   18  C10         0      60.251  71.775 -27.111  1.00  0.00     0.112 C 
HETATM   19  C12         0      60.894  72.049 -25.909  1.00  0.00     0.028 C 
BRANCH  17  20
HETATM   20  O9          0      60.080  72.717 -29.360  1.00  0.00    -0.357 OA
HETATM   21  H9          0      59.445  72.245 -29.887  1.00  0.00     0.218 HD
ENDBRANCH  17  20
BRANCH  18  22
HETATM   22  O11         0      60.190  70.493 -27.639  1.00  0.00    -0.357 OA
HETATM   23  H11         0      59.813  70.403 -28.507  1.00  0.00     0.218 HD
ENDBRANCH  18  22
ENDBRANCH   4  14
BRANCH   8  24
HETATM   24  O17         0      64.737  78.819 -23.713  1.00  0.00    -0.359 OA
HETATM   25  H17         0      64.062  79.174 -24.279  1.00  0.00     0.218 HD
ENDBRANCH   8  24
TORSDOF 5
ENDMDL
