MODEL 1
REMARK VINA RESULT:      -4.3      0.000      0.000
REMARK  5 active torsions:
REMARK  status: ('A' for Active; 'I' for Inactive)
REMARK    1  A    between atoms: C4_4  and  C5_5 
REMARK    2  A    between atoms: C8_8  and  O9_9 
REMARK    3  A    between atoms: C10_11  and  O11_12 
REMARK    4  A    between atoms: C16_18  and  O17_19 
REMARK    5  A    between atoms: C19_22  and  O20_23 
ROOT
HETATM    1  O1          0      42.176  44.853 -21.158  1.00  0.00    -0.286 OA
HETATM    2  C2          0      43.029  44.813 -22.086  1.00  0.00     0.201 C 
HETATM    3  C3          0      44.230  45.500 -22.032  1.00  0.00     0.067 C 
HETATM    4  C4          0      45.106  45.523 -23.111  1.00  0.00     0.103 C 
HETATM    5  O13         0      44.785  44.852 -24.203  1.00  0.00    -0.307 OA
HETATM    6  C14         0      43.641  44.214 -24.321  1.00  0.00     0.107 C 
HETATM    7  C15         0      43.126  43.860 -25.560  1.00  0.00     0.049 C 
HETATM    8  C16         0      41.815  43.421 -25.697  1.00  0.00     0.093 C 
HETATM    9  C18         0      41.259  42.865 -24.552  1.00  0.00     0.048 C 
HETATM   10  C19         0      41.779  43.162 -23.299  1.00  0.00     0.096 C 
HETATM   11  C21         0      42.858  43.995 -23.193  1.00  0.00     0.084 C 
ENDROOT
BRANCH  10  12
HETATM   12  O20         0      40.986  42.973 -22.171  1.00  0.00    -0.359 OA
HETATM   13  H20         0      40.056  42.833 -22.299  1.00  0.00     0.218 HD
ENDBRANCH  10  12
BRANCH   4  14
HETATM   14  C5          0      45.992  46.682 -23.231  1.00  0.00     0.025 C 
HETATM   15  C6          0      45.522  47.967 -23.464  1.00  0.00     0.004 C 
HETATM   16  C7          0      46.161  49.015 -22.810  1.00  0.00     0.026 C 
HETATM   17  C8          0      47.311  48.812 -22.056  1.00  0.00     0.112 C 
HETATM   18  C10         0      48.034  47.676 -22.396  1.00  0.00     0.112 C 
HETATM   19  C12         0      47.354  46.609 -22.971  1.00  0.00     0.028 C 
BRANCH  17  20
HETATM   20  O9          0      47.567  49.577 -20.932  1.00  0.00    -0.357 OA
HETATM   21  H9          0      48.358  49.503 -20.412  1.00  0.00     0.218 HD
ENDBRANCH  17  20
BRANCH  18  22
HETATM   22  O11         0      49.282  47.526 -21.808  1.00  0.00    -0.357 OA
HETATM   23  H11         0      49.874  46.900 -22.209  1.00  0.00     0.218 HD
ENDBRANCH  18  22
ENDBRANCH   4  14
BRANCH   8  24
HETATM   24  O17         0      41.024  43.816 -26.782  1.00  0.00    -0.359 OA
HETATM   25  H17         0      40.184  43.410 -26.961  1.00  0.00     0.218 HD
ENDBRANCH   8  24
TORSDOF 5
ENDMDL
MODEL 2
REMARK VINA RESULT:      -4.1      1.773      6.661
REMARK  5 active torsions:
REMARK  status: ('A' for Active; 'I' for Inactive)
REMARK    1  A    between atoms: C4_4  and  C5_5 
REMARK    2  A    between atoms: C8_8  and  O9_9 
REMARK    3  A    between atoms: C10_11  and  O11_12 
REMARK    4  A    between atoms: C16_18  and  O17_19 
REMARK    5  A    between atoms: C19_22  and  O20_23 
ROOT
HETATM    1  O1          0      48.301  45.747 -21.421  1.00  0.00    -0.286 OA
HETATM    2  C2          0      47.102  45.976 -21.743  1.00  0.00     0.201 C 
HETATM    3  C3          0      46.083  45.062 -21.538  1.00  0.00     0.067 C 
HETATM    4  C4          0      44.791  45.297 -21.994  1.00  0.00     0.103 C 
HETATM    5  O13         0      44.536  46.433 -22.620  1.00  0.00    -0.307 OA
HETATM    6  C14         0      45.475  47.317 -22.874  1.00  0.00     0.107 C 
HETATM    7  C15         0      45.318  48.291 -23.850  1.00  0.00     0.049 C 
HETATM    8  C16         0      46.394  49.053 -24.289  1.00  0.00     0.093 C 
HETATM    9  C18         0      47.438  49.172 -23.380  1.00  0.00     0.048 C 
HETATM   10  C19         0      47.597  48.242 -22.362  1.00  0.00     0.096 C 
HETATM   11  C21         0      46.709  47.208 -22.242  1.00  0.00     0.084 C 
ENDROOT
BRANCH  10  12
HETATM   12  O20         0      48.840  48.108 -21.750  1.00  0.00    -0.359 OA
HETATM   13  H20         0      49.552  47.744 -22.263  1.00  0.00     0.218 HD
ENDBRANCH  10  12
BRANCH   4  14
HETATM   14  C5          0      43.961  44.128 -22.290  1.00  0.00     0.025 C 
HETATM   15  C6          0      44.118  42.911 -21.641  1.00  0.00     0.004 C 
HETATM   16  C7          0      42.967  42.193 -21.333  1.00  0.00     0.026 C 
HETATM   17  C8          0      41.712  42.601 -21.773  1.00  0.00     0.112 C 
HETATM   18  C10         0      41.729  43.418 -22.895  1.00  0.00     0.112 C 
HETATM   19  C12         0      42.859  44.191 -23.133  1.00  0.00     0.028 C 
BRANCH  17  20
HETATM   20  O9          0      40.583  42.370 -21.007  1.00  0.00    -0.357 OA
HETATM   21  H9          0      40.026  41.607 -21.105  1.00  0.00     0.218 HD
ENDBRANCH  17  20
BRANCH  18  22
HETATM   22  O11         0      40.505  43.699 -23.486  1.00  0.00    -0.357 OA
HETATM   23  H11         0      40.043  44.469 -23.174  1.00  0.00     0.218 HD
ENDBRANCH  18  22
ENDBRANCH   4  14
BRANCH   8  24
HETATM   24  O17         0      46.554  49.378 -25.640  1.00  0.00    -0.359 OA
HETATM   25  H17         0      45.812  49.443 -26.229  1.00  0.00     0.218 HD
ENDBRANCH   8  24
TORSDOF 5
ENDMDL
MODEL 3
REMARK VINA RESULT:      -4.0      2.804      6.317
REMARK  5 active torsions:
REMARK  status: ('A' for Active; 'I' for Inactive)
REMARK    1  A    between atoms: C4_4  and  C5_5 
REMARK    2  A    between atoms: C8_8  and  O9_9 
REMARK    3  A    between atoms: C10_11  and  O11_12 
REMARK    4  A    between atoms: C16_18  and  O17_19 
REMARK    5  A    between atoms: C19_22  and  O20_23 
ROOT
HETATM    1  O1          0      44.477  46.674 -22.838  1.00  0.00    -0.286 OA
HETATM    2  C2          0      44.126  45.579 -23.356  1.00  0.00     0.201 C 
HETATM    3  C3          0      44.150  45.354 -24.722  1.00  0.00     0.067 C 
HETATM    4  C4          0      43.661  44.175 -25.275  1.00  0.00     0.103 C 
HETATM    5  O13         0      43.183  43.246 -24.466  1.00  0.00    -0.307 OA
HETATM    6  C14         0      43.103  43.424 -23.166  1.00  0.00     0.107 C 
HETATM    7  C15         0      42.262  42.656 -22.373  1.00  0.00     0.049 C 
HETATM    8  C16         0      41.990  43.010 -21.057  1.00  0.00     0.093 C 
HETATM    9  C18         0      42.961  43.794 -20.447  1.00  0.00     0.048 C 
HETATM   10  C19         0      43.850  44.538 -21.211  1.00  0.00     0.096 C 
HETATM   11  C21         0      43.779  44.487 -22.576  1.00  0.00     0.084 C 
ENDROOT
BRANCH  10  12
HETATM   12  O20         0      44.503  45.621 -20.632  1.00  0.00    -0.359 OA
HETATM   13  H20         0      44.382  45.769 -19.701  1.00  0.00     0.218 HD
ENDBRANCH  10  12
BRANCH   4  14
HETATM   14  C5          0      43.164  44.236 -26.650  1.00  0.00     0.025 C 
HETATM   15  C6          0      43.336  43.202 -27.559  1.00  0.00     0.004 C 
HETATM   16  C7          0      42.287  42.928 -28.430  1.00  0.00     0.026 C 
HETATM   17  C8          0      41.158  43.738 -28.490  1.00  0.00     0.112 C 
HETATM   18  C10         0      41.352  45.037 -28.040  1.00  0.00     0.112 C 
HETATM   19  C12         0      42.353  45.269 -27.104  1.00  0.00     0.028 C 
BRANCH  17  20
HETATM   20  O9          0      39.915  43.202 -28.777  1.00  0.00    -0.357 OA
HETATM   21  H9          0      39.533  42.472 -28.303  1.00  0.00     0.218 HD
ENDBRANCH  17  20
BRANCH  18  22
HETATM   22  O11         0      40.317  45.937 -28.252  1.00  0.00    -0.357 OA
HETATM   23  H11         0      39.447  45.660 -27.990  1.00  0.00     0.218 HD
ENDBRANCH  18  22
ENDBRANCH   4  14
BRANCH   8  24
HETATM   24  O17         0      40.706  42.877 -20.517  1.00  0.00    -0.359 OA
HETATM   25  H17         0      39.955  43.313 -20.902  1.00  0.00     0.218 HD
ENDBRANCH   8  24
TORSDOF 5
ENDMDL
MODEL 4
REMARK VINA RESULT:      -4.0      2.300      6.765
REMARK  5 active torsions:
REMARK  status: ('A' for Active; 'I' for Inactive)
REMARK    1  A    between atoms: C4_4  and  C5_5 
REMARK    2  A    between atoms: C8_8  and  O9_9 
REMARK    3  A    between atoms: C10_11  and  O11_12 
REMARK    4  A    between atoms: C16_18  and  O17_19 
REMARK    5  A    between atoms: C19_22  and  O20_23 
ROOT
HETATM    1  O1          0      46.490  44.573 -21.941  1.00  0.00    -0.286 OA
HETATM    2  C2          0      45.756  45.312 -22.652  1.00  0.00     0.201 C 
HETATM    3  C3          0      44.852  44.810 -23.573  1.00  0.00     0.067 C 
HETATM    4  C4          0      44.129  45.647 -24.416  1.00  0.00     0.103 C 
HETATM    5  O13         0      44.302  46.953 -24.314  1.00  0.00    -0.307 OA
HETATM    6  C14         0      45.174  47.480 -23.483  1.00  0.00     0.107 C 
HETATM    7  C15         0      45.646  48.775 -23.643  1.00  0.00     0.049 C 
HETATM    8  C16         0      46.744  49.237 -22.926  1.00  0.00     0.093 C 
HETATM    9  C18         0      46.982  48.576 -21.727  1.00  0.00     0.048 C 
HETATM   10  C19         0      46.485  47.297 -21.515  1.00  0.00     0.096 C 
HETATM   11  C21         0      45.739  46.689 -22.488  1.00  0.00     0.084 C 
ENDROOT
BRANCH  10  12
HETATM   12  O20         0      47.069  46.493 -20.542  1.00  0.00    -0.359 OA
HETATM   13  H20         0      47.803  46.846 -20.055  1.00  0.00     0.218 HD
ENDBRANCH  10  12
BRANCH   4  14
HETATM   14  C5          0      43.694  45.092 -25.698  1.00  0.00     0.025 C 
HETATM   15  C6          0      44.035  43.815 -26.120  1.00  0.00     0.004 C 
HETATM   16  C7          0      43.070  43.082 -26.803  1.00  0.00     0.026 C 
HETATM   17  C8          0      41.854  43.645 -27.174  1.00  0.00     0.112 C 
HETATM   18  C10         0      41.864  45.030 -27.281  1.00  0.00     0.112 C 
HETATM   19  C12         0      42.784  45.743 -26.521  1.00  0.00     0.028 C 
BRANCH  17  20
HETATM   20  O9          0      40.701  42.881 -27.215  1.00  0.00    -0.357 OA
HETATM   21  H9          0      39.831  43.244 -27.330  1.00  0.00     0.218 HD
ENDBRANCH  17  20
BRANCH  18  22
HETATM   22  O11         0      40.738  45.627 -27.828  1.00  0.00    -0.357 OA
HETATM   23  H11         0      39.900  45.220 -27.637  1.00  0.00     0.218 HD
ENDBRANCH  18  22
ENDBRANCH   4  14
BRANCH   8  24
HETATM   24  O17         0      47.711  50.055 -23.521  1.00  0.00    -0.359 OA
HETATM   25  H17         0      47.577  50.989 -23.629  1.00  0.00     0.218 HD
ENDBRANCH   8  24
TORSDOF 5
ENDMDL
MODEL 5
REMARK VINA RESULT:      -3.9      1.478      2.826
REMARK  5 active torsions:
REMARK  status: ('A' for Active; 'I' for Inactive)
REMARK    1  A    between atoms: C4_4  and  C5_5 
REMARK    2  A    between atoms: C8_8  and  O9_9 
REMARK    3  A    between atoms: C10_11  and  O11_12 
REMARK    4  A    between atoms: C16_18  and  O17_19 
REMARK    5  A    between atoms: C19_22  and  O20_23 
ROOT
HETATM    1  O1          0      42.865  43.335 -25.429  1.00  0.00    -0.286 OA
HETATM    2  C2          0      43.087  44.054 -24.417  1.00  0.00     0.201 C 
HETATM    3  C3          0      43.826  45.223 -24.474  1.00  0.00     0.067 C 
HETATM    4  C4          0      44.143  45.942 -23.327  1.00  0.00     0.103 C 
HETATM    5  O13         0      43.705  45.502 -22.161  1.00  0.00    -0.307 OA
HETATM    6  C14         0      43.031  44.378 -22.046  1.00  0.00     0.107 C 
HETATM    7  C15         0      42.919  43.713 -20.833  1.00  0.00     0.049 C 
HETATM    8  C16         0      42.432  42.414 -20.765  1.00  0.00     0.093 C 
HETATM    9  C18         0      41.603  42.042 -21.817  1.00  0.00     0.048 C 
HETATM   10  C19         0      41.656  42.716 -23.029  1.00  0.00     0.096 C 
HETATM   11  C21         0      42.519  43.766 -23.185  1.00  0.00     0.084 C 
ENDROOT
BRANCH  10  12
HETATM   12  O20         0      41.173  42.093 -24.176  1.00  0.00    -0.359 OA
HETATM   13  H20         0      40.243  41.904 -24.222  1.00  0.00     0.218 HD
ENDBRANCH  10  12
BRANCH   4  14
HETATM   14  C5          0      45.359  46.757 -23.361  1.00  0.00     0.025 C 
HETATM   15  C6          0      45.354  48.101 -23.706  1.00  0.00     0.004 C 
HETATM   16  C7          0      46.206  48.949 -23.007  1.00  0.00     0.026 C 
HETATM   17  C8          0      47.129  48.460 -22.089  1.00  0.00     0.112 C 
HETATM   18  C10         0      47.490  47.133 -22.279  1.00  0.00     0.112 C 
HETATM   19  C12         0      46.583  46.286 -22.906  1.00  0.00     0.028 C 
BRANCH  17  20
HETATM   20  O9          0      47.473  49.197 -20.969  1.00  0.00    -0.357 OA
HETATM   21  H9          0      47.004  49.153 -20.144  1.00  0.00     0.218 HD
ENDBRANCH  17  20
BRANCH  18  22
HETATM   22  O11         0      48.542  46.651 -21.513  1.00  0.00    -0.357 OA
HETATM   23  H11         0      49.330  47.182 -21.483  1.00  0.00     0.218 HD
ENDBRANCH  18  22
ENDBRANCH   4  14
BRANCH   8  24
HETATM   24  O17         0      42.998  41.467 -19.904  1.00  0.00    -0.359 OA
HETATM   25  H17         0      43.152  41.656 -18.986  1.00  0.00     0.218 HD
ENDBRANCH   8  24
TORSDOF 5
ENDMDL
MODEL 6
REMARK VINA RESULT:      -3.8      3.009      4.163
REMARK  5 active torsions:
REMARK  status: ('A' for Active; 'I' for Inactive)
REMARK    1  A    between atoms: C4_4  and  C5_5 
REMARK    2  A    between atoms: C8_8  and  O9_9 
REMARK    3  A    between atoms: C10_11  and  O11_12 
REMARK    4  A    between atoms: C16_18  and  O17_19 
REMARK    5  A    between atoms: C19_22  and  O20_23 
ROOT
HETATM    1  O1          0      41.474  42.810 -23.494  1.00  0.00    -0.286 OA
HETATM    2  C2          0      41.865  43.133 -24.649  1.00  0.00     0.201 C 
HETATM    3  C3          0      42.789  44.138 -24.874  1.00  0.00     0.067 C 
HETATM    4  C4          0      43.126  44.544 -26.161  1.00  0.00     0.103 C 
HETATM    5  O13         0      42.559  43.935 -27.187  1.00  0.00    -0.307 OA
HETATM    6  C14         0      41.647  43.000 -27.029  1.00  0.00     0.107 C 
HETATM    7  C15         0      40.776  42.648 -28.050  1.00  0.00     0.049 C 
HETATM    8  C16         0      39.662  41.854 -27.806  1.00  0.00     0.093 C 
HETATM    9  C18         0      39.761  41.031 -26.690  1.00  0.00     0.048 C 
HETATM   10  C19         0      40.656  41.328 -25.671  1.00  0.00     0.096 C 
HETATM   11  C21         0      41.459  42.431 -25.774  1.00  0.00     0.084 C 
ENDROOT
BRANCH  10  12
HETATM   12  O20         0      40.452  40.785 -24.407  1.00  0.00    -0.359 OA
HETATM   13  H20         0      39.571  40.517 -24.174  1.00  0.00     0.218 HD
ENDBRANCH  10  12
BRANCH   4  14
HETATM   14  C5          0      43.591  45.922 -26.329  1.00  0.00     0.025 C 
HETATM   15  C6          0      43.209  46.720 -27.397  1.00  0.00     0.004 C 
HETATM   16  C7          0      42.972  48.067 -27.143  1.00  0.00     0.026 C 
HETATM   17  C8          0      43.235  48.632 -25.900  1.00  0.00     0.112 C 
HETATM   18  C10         0      44.172  47.947 -25.138  1.00  0.00     0.112 C 
HETATM   19  C12         0      44.328  46.583 -25.354  1.00  0.00     0.028 C 
BRANCH  17  20
HETATM   20  O9          0      42.455  49.666 -25.412  1.00  0.00    -0.357 OA
HETATM   21  H9          0      41.689  49.536 -24.866  1.00  0.00     0.218 HD
ENDBRANCH  17  20
BRANCH  18  22
HETATM   22  O11         0      44.610  48.565 -23.976  1.00  0.00    -0.357 OA
HETATM   23  H11         0      45.548  48.690 -23.883  1.00  0.00     0.218 HD
ENDBRANCH  18  22
ENDBRANCH   4  14
BRANCH   8  24
HETATM   24  O17         0      38.434  42.111 -28.424  1.00  0.00    -0.359 OA
HETATM   25  H17         0      37.698  42.470 -27.942  1.00  0.00     0.218 HD
ENDBRANCH   8  24
TORSDOF 5
ENDMDL
MODEL 7
REMARK VINA RESULT:      -3.6      2.654      4.040
REMARK  5 active torsions:
REMARK  status: ('A' for Active; 'I' for Inactive)
REMARK    1  A    between atoms: C4_4  and  C5_5 
REMARK    2  A    between atoms: C8_8  and  O9_9 
REMARK    3  A    between atoms: C10_11  and  O11_12 
REMARK    4  A    between atoms: C16_18  and  O17_19 
REMARK    5  A    between atoms: C19_22  and  O20_23 
ROOT
HETATM    1  O1          0      45.842  41.873 -23.253  1.00  0.00    -0.286 OA
HETATM    2  C2          0      44.875  42.564 -23.677  1.00  0.00     0.201 C 
HETATM    3  C3          0      45.029  43.582 -24.603  1.00  0.00     0.067 C 
HETATM    4  C4          0      43.964  44.394 -24.975  1.00  0.00     0.103 C 
HETATM    5  O13         0      42.776  44.168 -24.442  1.00  0.00    -0.307 OA
HETATM    6  C14         0      42.584  43.240 -23.531  1.00  0.00     0.107 C 
HETATM    7  C15         0      41.479  43.256 -22.693  1.00  0.00     0.049 C 
HETATM    8  C16         0      41.408  42.432 -21.576  1.00  0.00     0.093 C 
HETATM    9  C18         0      42.185  41.282 -21.645  1.00  0.00     0.048 C 
HETATM   10  C19         0      43.270  41.214 -22.508  1.00  0.00     0.096 C 
HETATM   11  C21         0      43.568  42.283 -23.309  1.00  0.00     0.084 C 
ENDROOT
BRANCH  10  12
HETATM   12  O20         0      44.272  40.279 -22.268  1.00  0.00    -0.359 OA
HETATM   13  H20         0      44.273  39.832 -21.430  1.00  0.00     0.218 HD
ENDBRANCH  10  12
BRANCH   4  14
HETATM   14  C5          0      44.283  45.746 -25.439  1.00  0.00     0.025 C 
HETATM   15  C6          0      43.850  46.244 -26.659  1.00  0.00     0.004 C 
HETATM   16  C7          0      43.462  47.579 -26.709  1.00  0.00     0.026 C 
HETATM   17  C8          0      43.624  48.427 -25.619  1.00  0.00     0.112 C 
HETATM   18  C10         0      44.605  48.033 -24.718  1.00  0.00     0.112 C 
HETATM   19  C12         0      44.913  46.681 -24.628  1.00  0.00     0.028 C 
BRANCH  17  20
HETATM   20  O9          0      42.722  49.448 -25.375  1.00  0.00    -0.357 OA
HETATM   21  H9          0      42.978  50.339 -25.163  1.00  0.00     0.218 HD
ENDBRANCH  17  20
BRANCH  18  22
HETATM   22  O11         0      44.937  48.935 -23.717  1.00  0.00    -0.357 OA
HETATM   23  H11         0      45.349  48.579 -22.938  1.00  0.00     0.218 HD
ENDBRANCH  18  22
ENDBRANCH   4  14
BRANCH   8  24
HETATM   24  O17         0      40.876  42.889 -20.365  1.00  0.00    -0.359 OA
HETATM   25  H17         0      41.179  43.692 -19.958  1.00  0.00     0.218 HD
ENDBRANCH   8  24
TORSDOF 5
ENDMDL
MODEL 8
REMARK VINA RESULT:      -3.6      2.148      3.377
REMARK  5 active torsions:
REMARK  status: ('A' for Active; 'I' for Inactive)
REMARK    1  A    between atoms: C4_4  and  C5_5 
REMARK    2  A    between atoms: C8_8  and  O9_9 
REMARK    3  A    between atoms: C10_11  and  O11_12 
REMARK    4  A    between atoms: C16_18  and  O17_19 
REMARK    5  A    between atoms: C19_22  and  O20_23 
ROOT
HETATM    1  O1          0      41.242  43.113 -24.762  1.00  0.00    -0.286 OA
HETATM    2  C2          0      42.264  43.851 -24.811  1.00  0.00     0.201 C 
HETATM    3  C3          0      43.150  43.976 -23.755  1.00  0.00     0.067 C 
HETATM    4  C4          0      44.211  44.874 -23.797  1.00  0.00     0.103 C 
HETATM    5  O13         0      44.380  45.606 -24.884  1.00  0.00    -0.307 OA
HETATM    6  C14         0      43.546  45.553 -25.900  1.00  0.00     0.107 C 
HETATM    7  C15         0      43.476  46.569 -26.842  1.00  0.00     0.049 C 
HETATM    8  C16         0      42.432  46.634 -27.757  1.00  0.00     0.093 C 
HETATM    9  C18         0      41.812  45.420 -28.027  1.00  0.00     0.048 C 
HETATM   10  C19         0      41.901  44.367 -27.128  1.00  0.00     0.096 C 
HETATM   11  C21         0      42.619  44.519 -25.973  1.00  0.00     0.084 C 
ENDROOT
BRANCH  10  12
HETATM   12  O20         0      40.956  43.347 -27.178  1.00  0.00    -0.359 OA
HETATM   13  H20         0      40.217  43.395 -26.585  1.00  0.00     0.218 HD
ENDBRANCH  10  12
BRANCH   4  14
HETATM   14  C5          0      44.706  45.387 -22.518  1.00  0.00     0.025 C 
HETATM   15  C6          0      44.552  44.700 -21.323  1.00  0.00     0.004 C 
HETATM   16  C7          0      45.605  44.742 -20.415  1.00  0.00     0.026 C 
HETATM   17  C8          0      46.719  45.547 -20.627  1.00  0.00     0.112 C 
HETATM   18  C10         0      46.502  46.626 -21.473  1.00  0.00     0.112 C 
HETATM   19  C12         0      45.497  46.524 -22.428  1.00  0.00     0.028 C 
BRANCH  17  20
HETATM   20  O9          0      47.971  45.155 -20.188  1.00  0.00    -0.357 OA
HETATM   21  H9          0      48.325  44.282 -20.314  1.00  0.00     0.218 HD
ENDBRANCH  17  20
BRANCH  18  22
HETATM   22  O11         0      47.520  47.564 -21.570  1.00  0.00    -0.357 OA
HETATM   23  H11         0      48.356  47.333 -21.181  1.00  0.00     0.218 HD
ENDBRANCH  18  22
ENDBRANCH   4  14
BRANCH   8  24
HETATM   24  O17         0      41.844  47.855 -28.106  1.00  0.00    -0.359 OA
HETATM   25  H17         0      41.412  48.403 -27.462  1.00  0.00     0.218 HD
ENDBRANCH   8  24
TORSDOF 5
ENDMDL
MODEL 9
REMARK VINA RESULT:      -3.5      3.271      6.073
REMARK  5 active torsions:
REMARK  status: ('A' for Active; 'I' for Inactive)
REMARK    1  A    between atoms: C4_4  and  C5_5 
REMARK    2  A    between atoms: C8_8  and  O9_9 
REMARK    3  A    between atoms: C10_11  and  O11_12 
REMARK    4  A    between atoms: C16_18  and  O17_19 
REMARK    5  A    between atoms: C19_22  and  O20_23 
ROOT
HETATM    1  O1          0      46.576  46.967 -27.437  1.00  0.00    -0.286 OA
HETATM    2  C2          0      45.834  47.266 -26.461  1.00  0.00     0.201 C 
HETATM    3  C3          0      45.870  46.587 -25.255  1.00  0.00     0.067 C 
HETATM    4  C4          0      44.971  46.869 -24.233  1.00  0.00     0.103 C 
HETATM    5  O13         0      44.078  47.825 -24.419  1.00  0.00    -0.307 OA
HETATM    6  C14         0      43.976  48.474 -25.558  1.00  0.00     0.107 C 
HETATM    7  C15         0      42.826  49.169 -25.903  1.00  0.00     0.049 C 
HETATM    8  C16         0      42.624  49.634 -27.197  1.00  0.00     0.093 C 
HETATM    9  C18         0      43.784  49.843 -27.933  1.00  0.00     0.048 C 
HETATM   10  C19         0      44.964  49.199 -27.587  1.00  0.00     0.096 C 
HETATM   11  C21         0      44.990  48.366 -26.503  1.00  0.00     0.084 C 
ENDROOT
BRANCH  10  12
HETATM   12  O20         0      45.968  49.062 -28.540  1.00  0.00    -0.359 OA
HETATM   13  H20         0      46.267  48.185 -28.749  1.00  0.00     0.218 HD
ENDBRANCH  10  12
BRANCH   4  14
HETATM   14  C5          0      44.662  45.789 -23.295  1.00  0.00     0.025 C 
HETATM   15  C6          0      44.733  45.944 -21.918  1.00  0.00     0.004 C 
HETATM   16  C7          0      43.760  45.315 -21.147  1.00  0.00     0.026 C 
HETATM   17  C8          0      42.829  44.450 -21.712  1.00  0.00     0.112 C 
HETATM   18  C10         0      43.221  43.882 -22.917  1.00  0.00     0.112 C 
HETATM   19  C12         0      44.131  44.574 -23.708  1.00  0.00     0.028 C 
BRANCH  17  20
HETATM   20  O9          0      41.548  44.356 -21.199  1.00  0.00    -0.357 OA
HETATM   21  H9          0      40.761  44.418 -21.729  1.00  0.00     0.218 HD
ENDBRANCH  17  20
BRANCH  18  22
HETATM   22  O11         0      42.417  42.873 -23.427  1.00  0.00    -0.357 OA
HETATM   23  H11         0      42.089  42.990 -24.311  1.00  0.00     0.218 HD
ENDBRANCH  18  22
ENDBRANCH   4  14
BRANCH   8  24
HETATM   24  O17         0      41.367  49.568 -27.808  1.00  0.00    -0.359 OA
HETATM   25  H17         0      40.687  50.204 -27.621  1.00  0.00     0.218 HD
ENDBRANCH   8  24
TORSDOF 5
ENDMDL
