MODEL 1
REMARK VINA RESULT:      -5.4      0.000      0.000
REMARK  5 active torsions:
REMARK  status: ('A' for Active; 'I' for Inactive)
REMARK    1  A    between atoms: C4_4  and  C5_5 
REMARK    2  A    between atoms: C8_8  and  O9_9 
REMARK    3  A    between atoms: C10_11  and  O11_12 
REMARK    4  A    between atoms: C16_18  and  O17_19 
REMARK    5  A    between atoms: C19_22  and  O20_23 
ROOT
HETATM    1  O1          0      64.674   4.125  18.012  1.00  0.00    -0.286 OA
HETATM    2  C2          0      65.278   4.048  19.117  1.00  0.00     0.201 C 
HETATM    3  C3          0      64.636   4.205  20.334  1.00  0.00     0.067 C 
HETATM    4  C4          0      65.341   4.218  21.533  1.00  0.00     0.103 C 
HETATM    5  O13         0      66.652   4.056  21.500  1.00  0.00    -0.307 OA
HETATM    6  C14         0      67.314   3.941  20.370  1.00  0.00     0.107 C 
HETATM    7  C15         0      68.680   4.172  20.296  1.00  0.00     0.049 C 
HETATM    8  C16         0      69.326   4.300  19.072  1.00  0.00     0.093 C 
HETATM    9  C18         0      68.689   3.678  18.005  1.00  0.00     0.048 C 
HETATM   10  C19         0      67.332   3.390  18.064  1.00  0.00     0.096 C 
HETATM   11  C21         0      66.619   3.706  19.188  1.00  0.00     0.084 C 
ENDROOT
BRANCH  10  12
HETATM   12  O20         0      66.628   3.185  16.881  1.00  0.00    -0.359 OA
HETATM   13  H20         0      65.706   2.968  16.944  1.00  0.00     0.218 HD
ENDBRANCH  10  12
BRANCH   4  14
HETATM   14  C5          0      64.750   4.958  22.649  1.00  0.00     0.025 C 
HETATM   15  C6          0      65.112   6.260  22.964  1.00  0.00     0.004 C 
HETATM   16  C7          0      64.106   7.124  23.385  1.00  0.00     0.026 C 
HETATM   17  C8          0      62.809   6.678  23.615  1.00  0.00     0.112 C 
HETATM   18  C10         0      62.703   5.321  23.888  1.00  0.00     0.112 C 
HETATM   19  C12         0      63.677   4.468  23.383  1.00  0.00     0.028 C 
BRANCH  17  20
HETATM   20  O9          0      61.723   7.500  23.372  1.00  0.00    -0.357 OA
HETATM   21  H9          0      61.543   8.295  23.861  1.00  0.00     0.218 HD
ENDBRANCH  17  20
BRANCH  18  22
HETATM   22  O11         0      61.464   4.859  24.309  1.00  0.00    -0.357 OA
HETATM   23  H11         0      61.145   4.058  23.909  1.00  0.00     0.218 HD
ENDBRANCH  18  22
ENDBRANCH   4  14
BRANCH   8  24
HETATM   24  O17         0      70.334   5.250  18.875  1.00  0.00    -0.359 OA
HETATM   25  H17         0      70.976   5.443  19.547  1.00  0.00     0.218 HD
ENDBRANCH   8  24
TORSDOF 5
ENDMDL
MODEL 2
REMARK VINA RESULT:      -5.3      1.937      6.959
REMARK  5 active torsions:
REMARK  status: ('A' for Active; 'I' for Inactive)
REMARK    1  A    between atoms: C4_4  and  C5_5 
REMARK    2  A    between atoms: C8_8  and  O9_9 
REMARK    3  A    between atoms: C10_11  and  O11_12 
REMARK    4  A    between atoms: C16_18  and  O17_19 
REMARK    5  A    between atoms: C19_22  and  O20_23 
ROOT
HETATM    1  O1          0      65.165   6.672  23.383  1.00  0.00    -0.286 OA
HETATM    2  C2          0      64.566   5.826  22.665  1.00  0.00     0.201 C 
HETATM    3  C3          0      65.232   4.874  21.911  1.00  0.00     0.067 C 
HETATM    4  C4          0      64.553   4.021  21.049  1.00  0.00     0.103 C 
HETATM    5  O13         0      63.237   4.115  20.970  1.00  0.00    -0.307 OA
HETATM    6  C14         0      62.559   5.025  21.634  1.00  0.00     0.107 C 
HETATM    7  C15         0      61.273   5.392  21.267  1.00  0.00     0.049 C 
HETATM    8  C16         0      60.663   6.519  21.803  1.00  0.00     0.093 C 
HETATM    9  C18         0      61.148   6.914  23.045  1.00  0.00     0.048 C 
HETATM   10  C19         0      62.413   6.525  23.464  1.00  0.00     0.096 C 
HETATM   11  C21         0      63.182   5.733  22.656  1.00  0.00     0.084 C 
ENDROOT
BRANCH  10  12
HETATM   12  O20         0      63.051   7.252  24.464  1.00  0.00    -0.359 OA
HETATM   13  H20         0      63.703   7.891  24.203  1.00  0.00     0.218 HD
ENDBRANCH  10  12
BRANCH   4  14
HETATM   14  C5          0      65.294   3.503  19.898  1.00  0.00     0.025 C 
HETATM   15  C6          0      64.669   2.966  18.782  1.00  0.00     0.004 C 
HETATM   16  C7          0      65.225   3.241  17.536  1.00  0.00     0.026 C 
HETATM   17  C8          0      66.435   3.915  17.411  1.00  0.00     0.112 C 
HETATM   18  C10         0      67.258   3.841  18.526  1.00  0.00     0.112 C 
HETATM   19  C12         0      66.669   3.650  19.770  1.00  0.00     0.028 C 
BRANCH  17  20
HETATM   20  O9          0      66.671   4.753  16.336  1.00  0.00    -0.357 OA
HETATM   21  H9          0      67.227   5.523  16.379  1.00  0.00     0.218 HD
ENDBRANCH  17  20
BRANCH  18  22
HETATM   22  O11         0      68.549   4.331  18.388  1.00  0.00    -0.357 OA
HETATM   23  H11         0      68.684   5.010  17.737  1.00  0.00     0.218 HD
ENDBRANCH  18  22
ENDBRANCH   4  14
BRANCH   8  24
HETATM   24  O17         0      59.879   7.369  21.015  1.00  0.00    -0.359 OA
HETATM   25  H17         0      58.943   7.240  20.922  1.00  0.00     0.218 HD
ENDBRANCH   8  24
TORSDOF 5
ENDMDL
MODEL 3
REMARK VINA RESULT:      -5.2     11.475     13.606
REMARK  5 active torsions:
REMARK  status: ('A' for Active; 'I' for Inactive)
REMARK    1  A    between atoms: C4_4  and  C5_5 
REMARK    2  A    between atoms: C8_8  and  O9_9 
REMARK    3  A    between atoms: C10_11  and  O11_12 
REMARK    4  A    between atoms: C16_18  and  O17_19 
REMARK    5  A    between atoms: C19_22  and  O20_23 
ROOT
HETATM    1  O1          0      79.473   0.660  26.728  1.00  0.00    -0.286 OA
HETATM    2  C2          0      78.402   1.092  26.221  1.00  0.00     0.201 C 
HETATM    3  C3          0      78.361   2.187  25.374  1.00  0.00     0.067 C 
HETATM    4  C4          0      77.157   2.705  24.911  1.00  0.00     0.103 C 
HETATM    5  O13         0      76.030   2.120  25.279  1.00  0.00    -0.307 OA
HETATM    6  C14         0      76.011   1.102  26.111  1.00  0.00     0.107 C 
HETATM    7  C15         0      74.863   0.745  26.804  1.00  0.00     0.049 C 
HETATM    8  C16         0      74.908  -0.156  27.861  1.00  0.00     0.093 C 
HETATM    9  C18         0      75.980  -1.040  27.832  1.00  0.00     0.048 C 
HETATM   10  C19         0      77.126  -0.737  27.111  1.00  0.00     0.096 C 
HETATM   11  C21         0      77.195   0.435  26.408  1.00  0.00     0.084 C 
ENDROOT
BRANCH  10  12
HETATM   12  O20         0      78.319  -1.379  27.427  1.00  0.00    -0.359 OA
HETATM   13  H20         0      78.488  -1.581  28.339  1.00  0.00     0.218 HD
ENDBRANCH  10  12
BRANCH   4  14
HETATM   14  C5          0      77.130   4.126  24.560  1.00  0.00     0.025 C 
HETATM   15  C6          0      76.017   4.744  24.008  1.00  0.00     0.004 C 
HETATM   16  C7          0      75.727   6.040  24.422  1.00  0.00     0.026 C 
HETATM   17  C8          0      76.587   6.749  25.254  1.00  0.00     0.112 C 
HETATM   18  C10         0      77.907   6.318  25.227  1.00  0.00     0.112 C 
HETATM   19  C12         0      78.162   4.994  24.892  1.00  0.00     0.028 C 
BRANCH  17  20
HETATM   20  O9          0      76.094   7.657  26.175  1.00  0.00    -0.357 OA
HETATM   21  H9          0      75.443   7.440  26.833  1.00  0.00     0.218 HD
ENDBRANCH  17  20
BRANCH  18  22
HETATM   22  O11         0      78.838   7.105  25.889  1.00  0.00    -0.357 OA
HETATM   23  H11         0      78.521   7.913  26.276  1.00  0.00     0.218 HD
ENDBRANCH  18  22
ENDBRANCH   4  14
BRANCH   8  24
HETATM   24  O17         0      74.143   0.036  29.017  1.00  0.00    -0.359 OA
HETATM   25  H17         0      73.278  -0.344  29.111  1.00  0.00     0.218 HD
ENDBRANCH   8  24
TORSDOF 5
ENDMDL
MODEL 4
REMARK VINA RESULT:      -5.2      1.558      2.379
REMARK  5 active torsions:
REMARK  status: ('A' for Active; 'I' for Inactive)
REMARK    1  A    between atoms: C4_4  and  C5_5 
REMARK    2  A    between atoms: C8_8  and  O9_9 
REMARK    3  A    between atoms: C10_11  and  O11_12 
REMARK    4  A    between atoms: C16_18  and  O17_19 
REMARK    5  A    between atoms: C19_22  and  O20_23 
ROOT
HETATM    1  O1          0      66.714   1.766  17.582  1.00  0.00    -0.286 OA
HETATM    2  C2          0      66.974   2.400  18.641  1.00  0.00     0.201 C 
HETATM    3  C3          0      66.012   2.698  19.592  1.00  0.00     0.067 C 
HETATM    4  C4          0      66.303   3.486  20.700  1.00  0.00     0.103 C 
HETATM    5  O13         0      67.535   3.940  20.850  1.00  0.00    -0.307 OA
HETATM    6  C14         0      68.476   3.718  19.959  1.00  0.00     0.107 C 
HETATM    7  C15         0      69.622   4.497  19.896  1.00  0.00     0.049 C 
HETATM    8  C16         0      70.483   4.427  18.808  1.00  0.00     0.093 C 
HETATM    9  C18         0      70.442   3.230  18.103  1.00  0.00     0.048 C 
HETATM   10  C19         0      69.330   2.404  18.180  1.00  0.00     0.096 C 
HETATM   11  C21         0      68.271   2.762  18.969  1.00  0.00     0.084 C 
ENDROOT
BRANCH  10  12
HETATM   12  O20         0      69.106   1.468  17.174  1.00  0.00    -0.359 OA
HETATM   13  H20         0      68.793   0.609  17.428  1.00  0.00     0.218 HD
ENDBRANCH  10  12
BRANCH   4  14
HETATM   14  C5          0      65.197   4.238  21.295  1.00  0.00     0.025 C 
HETATM   15  C6          0      63.966   3.666  21.581  1.00  0.00     0.004 C 
HETATM   16  C7          0      63.326   4.063  22.750  1.00  0.00     0.026 C 
HETATM   17  C8          0      63.825   5.092  23.542  1.00  0.00     0.112 C 
HETATM   18  C10         0      64.651   5.988  22.875  1.00  0.00     0.112 C 
HETATM   19  C12         0      65.346   5.539  21.758  1.00  0.00     0.028 C 
BRANCH  17  20
HETATM   20  O9          0      63.665   5.071  24.916  1.00  0.00    -0.357 OA
HETATM   21  H9          0      62.860   4.814  25.350  1.00  0.00     0.218 HD
ENDBRANCH  17  20
BRANCH  18  22
HETATM   22  O11         0      65.023   7.132  23.565  1.00  0.00    -0.357 OA
HETATM   23  H11         0      65.769   7.059  24.150  1.00  0.00     0.218 HD
ENDBRANCH  18  22
ENDBRANCH   4  14
BRANCH   8  24
HETATM   24  O17         0      71.078   5.576  18.274  1.00  0.00    -0.359 OA
HETATM   25  H17         0      70.720   6.015  17.512  1.00  0.00     0.218 HD
ENDBRANCH   8  24
TORSDOF 5
ENDMDL
MODEL 5
REMARK VINA RESULT:      -5.1      1.807      2.297
REMARK  5 active torsions:
REMARK  status: ('A' for Active; 'I' for Inactive)
REMARK    1  A    between atoms: C4_4  and  C5_5 
REMARK    2  A    between atoms: C8_8  and  O9_9 
REMARK    3  A    between atoms: C10_11  and  O11_12 
REMARK    4  A    between atoms: C16_18  and  O17_19 
REMARK    5  A    between atoms: C19_22  and  O20_23 
ROOT
HETATM    1  O1          0      64.410   1.210  21.192  1.00  0.00    -0.286 OA
HETATM    2  C2          0      64.827   2.387  21.373  1.00  0.00     0.201 C 
HETATM    3  C3          0      64.495   3.137  22.488  1.00  0.00     0.067 C 
HETATM    4  C4          0      64.884   4.466  22.614  1.00  0.00     0.103 C 
HETATM    5  O13         0      65.603   5.011  21.649  1.00  0.00    -0.307 OA
HETATM    6  C14         0      65.913   4.355  20.552  1.00  0.00     0.107 C 
HETATM    7  C15         0      66.303   5.011  19.393  1.00  0.00     0.049 C 
HETATM    8  C16         0      66.381   4.343  18.177  1.00  0.00     0.093 C 
HETATM    9  C18         0      66.577   2.970  18.273  1.00  0.00     0.048 C 
HETATM   10  C19         0      66.241   2.289  19.436  1.00  0.00     0.096 C 
HETATM   11  C21         0      65.729   2.978  20.502  1.00  0.00     0.084 C 
ENDROOT
BRANCH  10  12
HETATM   12  O20         0      66.026   0.916  19.381  1.00  0.00    -0.359 OA
HETATM   13  H20         0      65.229   0.606  18.967  1.00  0.00     0.218 HD
ENDBRANCH  10  12
BRANCH   4  14
HETATM   14  C5          0      64.045   5.334  23.443  1.00  0.00     0.025 C 
HETATM   15  C6          0      64.259   6.700  23.558  1.00  0.00     0.004 C 
HETATM   16  C7          0      63.140   7.524  23.619  1.00  0.00     0.026 C 
HETATM   17  C8          0      61.853   7.003  23.698  1.00  0.00     0.112 C 
HETATM   18  C10         0      61.780   5.712  24.206  1.00  0.00     0.112 C 
HETATM   19  C12         0      62.884   4.881  24.057  1.00  0.00     0.028 C 
BRANCH  17  20
HETATM   20  O9          0      60.785   7.659  23.113  1.00  0.00    -0.357 OA
HETATM   21  H9          0      60.820   8.062  22.253  1.00  0.00     0.218 HD
ENDBRANCH  17  20
BRANCH  18  22
HETATM   22  O11         0      60.515   5.216  24.483  1.00  0.00    -0.357 OA
HETATM   23  H11         0      60.300   5.073  25.398  1.00  0.00     0.218 HD
ENDBRANCH  18  22
ENDBRANCH   4  14
BRANCH   8  24
HETATM   24  O17         0      65.960   4.944  16.986  1.00  0.00    -0.359 OA
HETATM   25  H17         0      66.090   4.527  16.143  1.00  0.00     0.218 HD
ENDBRANCH   8  24
TORSDOF 5
ENDMDL
MODEL 6
REMARK VINA RESULT:      -5.1      1.675      6.709
REMARK  5 active torsions:
REMARK  status: ('A' for Active; 'I' for Inactive)
REMARK    1  A    between atoms: C4_4  and  C5_5 
REMARK    2  A    between atoms: C8_8  and  O9_9 
REMARK    3  A    between atoms: C10_11  and  O11_12 
REMARK    4  A    between atoms: C16_18  and  O17_19 
REMARK    5  A    between atoms: C19_22  and  O20_23 
ROOT
HETATM    1  O1          0      63.838   3.151  19.151  1.00  0.00    -0.286 OA
HETATM    2  C2          0      64.715   3.883  19.687  1.00  0.00     0.201 C 
HETATM    3  C3          0      66.026   3.930  19.244  1.00  0.00     0.067 C 
HETATM    4  C4          0      66.996   4.666  19.915  1.00  0.00     0.103 C 
HETATM    5  O13         0      66.644   5.349  20.990  1.00  0.00    -0.307 OA
HETATM    6  C14         0      65.422   5.308  21.475  1.00  0.00     0.107 C 
HETATM    7  C15         0      65.142   5.677  22.783  1.00  0.00     0.049 C 
HETATM    8  C16         0      63.912   5.394  23.365  1.00  0.00     0.093 C 
HETATM    9  C18         0      62.861   5.238  22.469  1.00  0.00     0.048 C 
HETATM   10  C19         0      63.108   4.915  21.142  1.00  0.00     0.096 C 
HETATM   11  C21         0      64.397   4.766  20.707  1.00  0.00     0.084 C 
ENDROOT
BRANCH  10  12
HETATM   12  O20         0      62.093   4.343  20.381  1.00  0.00    -0.359 OA
HETATM   13  H20         0      62.142   3.412  20.200  1.00  0.00     0.218 HD
ENDBRANCH  10  12
BRANCH   4  14
HETATM   14  C5          0      68.383   4.217  19.788  1.00  0.00     0.025 C 
HETATM   15  C6          0      68.748   2.879  19.832  1.00  0.00     0.004 C 
HETATM   16  C7          0      69.762   2.459  18.977  1.00  0.00     0.026 C 
HETATM   17  C8          0      70.482   3.361  18.201  1.00  0.00     0.112 C 
HETATM   18  C10         0      70.488   4.663  18.682  1.00  0.00     0.112 C 
HETATM   19  C12         0      69.420   5.083  19.465  1.00  0.00     0.028 C 
BRANCH  17  20
HETATM   20  O9          0      70.957   3.001  16.953  1.00  0.00    -0.357 OA
HETATM   21  H9          0      70.910   2.118  16.604  1.00  0.00     0.218 HD
ENDBRANCH  17  20
BRANCH  18  22
HETATM   22  O11         0      71.342   5.561  18.056  1.00  0.00    -0.357 OA
HETATM   23  H11         0      71.569   5.378  17.151  1.00  0.00     0.218 HD
ENDBRANCH  18  22
ENDBRANCH   4  14
BRANCH   8  24
HETATM   24  O17         0      63.815   4.970  24.695  1.00  0.00    -0.359 OA
HETATM   25  H17         0      64.194   4.149  24.985  1.00  0.00     0.218 HD
ENDBRANCH   8  24
TORSDOF 5
ENDMDL
MODEL 7
REMARK VINA RESULT:      -5.1      1.925      2.572
REMARK  5 active torsions:
REMARK  status: ('A' for Active; 'I' for Inactive)
REMARK    1  A    between atoms: C4_4  and  C5_5 
REMARK    2  A    between atoms: C8_8  and  O9_9 
REMARK    3  A    between atoms: C10_11  and  O11_12 
REMARK    4  A    between atoms: C16_18  and  O17_19 
REMARK    5  A    between atoms: C19_22  and  O20_23 
ROOT
HETATM    1  O1          0      67.762   5.160  19.749  1.00  0.00    -0.286 OA
HETATM    2  C2          0      66.804   4.576  20.325  1.00  0.00     0.201 C 
HETATM    3  C3          0      65.812   5.257  21.009  1.00  0.00     0.067 C 
HETATM    4  C4          0      64.825   4.585  21.722  1.00  0.00     0.103 C 
HETATM    5  O13         0      64.832   3.264  21.724  1.00  0.00    -0.307 OA
HETATM    6  C14         0      65.772   2.569  21.122  1.00  0.00     0.107 C 
HETATM    7  C15         0      66.018   1.241  21.443  1.00  0.00     0.049 C 
HETATM    8  C16         0      67.163   0.592  20.998  1.00  0.00     0.093 C 
HETATM    9  C18         0      67.728   1.122  19.844  1.00  0.00     0.048 C 
HETATM   10  C19         0      67.466   2.433  19.469  1.00  0.00     0.096 C 
HETATM   11  C21         0      66.631   3.203  20.231  1.00  0.00     0.084 C 
ENDROOT
BRANCH  10  12
HETATM   12  O20         0      68.341   3.080  18.602  1.00  0.00    -0.359 OA
HETATM   13  H20         0      68.469   4.014  18.714  1.00  0.00     0.218 HD
ENDBRANCH  10  12
BRANCH   4  14
HETATM   14  C5          0      64.221   5.289  22.854  1.00  0.00     0.025 C 
HETATM   15  C6          0      64.575   6.581  23.213  1.00  0.00     0.004 C 
HETATM   16  C7          0      63.563   7.429  23.650  1.00  0.00     0.026 C 
HETATM   17  C8          0      62.265   6.973  23.853  1.00  0.00     0.112 C 
HETATM   18  C10         0      62.160   5.607  24.082  1.00  0.00     0.112 C 
HETATM   19  C12         0      63.142   4.773  23.561  1.00  0.00     0.028 C 
BRANCH  17  20
HETATM   20  O9          0      61.179   7.799  23.625  1.00  0.00    -0.357 OA
HETATM   21  H9          0      60.631   8.154  24.315  1.00  0.00     0.218 HD
ENDBRANCH  17  20
BRANCH  18  22
HETATM   22  O11         0      60.918   5.130  24.476  1.00  0.00    -0.357 OA
HETATM   23  H11         0      60.277   5.775  24.750  1.00  0.00     0.218 HD
ENDBRANCH  18  22
ENDBRANCH   4  14
BRANCH   8  24
HETATM   24  O17         0      67.868  -0.292  21.823  1.00  0.00    -0.359 OA
HETATM   25  H17         0      68.111  -1.162  21.530  1.00  0.00     0.218 HD
ENDBRANCH   8  24
TORSDOF 5
ENDMDL
MODEL 8
REMARK VINA RESULT:      -5.1      2.792      6.822
REMARK  5 active torsions:
REMARK  status: ('A' for Active; 'I' for Inactive)
REMARK    1  A    between atoms: C4_4  and  C5_5 
REMARK    2  A    between atoms: C8_8  and  O9_9 
REMARK    3  A    between atoms: C10_11  and  O11_12 
REMARK    4  A    between atoms: C16_18  and  O17_19 
REMARK    5  A    between atoms: C19_22  and  O20_23 
ROOT
HETATM    1  O1          0      65.878   5.273  21.415  1.00  0.00    -0.286 OA
HETATM    2  C2          0      64.698   4.861  21.247  1.00  0.00     0.201 C 
HETATM    3  C3          0      64.318   4.097  20.156  1.00  0.00     0.067 C 
HETATM    4  C4          0      62.990   3.744  19.942  1.00  0.00     0.103 C 
HETATM    5  O13         0      62.080   4.135  20.816  1.00  0.00    -0.307 OA
HETATM    6  C14         0      62.381   4.892  21.847  1.00  0.00     0.107 C 
HETATM    7  C15         0      61.416   5.624  22.524  1.00  0.00     0.049 C 
HETATM    8  C16         0      61.766   6.610  23.438  1.00  0.00     0.093 C 
HETATM    9  C18         0      63.022   6.457  24.014  1.00  0.00     0.048 C 
HETATM   10  C19         0      63.997   5.693  23.387  1.00  0.00     0.096 C 
HETATM   11  C21         0      63.714   5.071  22.201  1.00  0.00     0.084 C 
ENDROOT
BRANCH  10  12
HETATM   12  O20         0      65.334   5.892  23.717  1.00  0.00    -0.359 OA
HETATM   13  H20         0      65.649   6.786  23.776  1.00  0.00     0.218 HD
ENDBRANCH  10  12
BRANCH   4  14
HETATM   14  C5          0      62.579   3.496  18.559  1.00  0.00     0.025 C 
HETATM   15  C6          0      61.249   3.455  18.166  1.00  0.00     0.004 C 
HETATM   16  C7          0      60.924   4.008  16.931  1.00  0.00     0.026 C 
HETATM   17  C8          0      61.904   4.466  16.057  1.00  0.00     0.112 C 
HETATM   18  C10         0      63.158   3.902  16.245  1.00  0.00     0.112 C 
HETATM   19  C12         0      63.489   3.433  17.511  1.00  0.00     0.028 C 
BRANCH  17  20
HETATM   20  O9          0      61.664   5.546  15.226  1.00  0.00    -0.357 OA
HETATM   21  H9          0      61.926   6.437  15.429  1.00  0.00     0.218 HD
ENDBRANCH  17  20
BRANCH  18  22
HETATM   22  O11         0      64.122   4.179  15.286  1.00  0.00    -0.357 OA
HETATM   23  H11         0      65.015   3.920  15.486  1.00  0.00     0.218 HD
ENDBRANCH  18  22
ENDBRANCH   4  14
BRANCH   8  24
HETATM   24  O17         0      61.066   7.819  23.511  1.00  0.00    -0.359 OA
HETATM   25  H17         0      60.117   7.849  23.480  1.00  0.00     0.218 HD
ENDBRANCH   8  24
TORSDOF 5
ENDMDL
MODEL 9
REMARK VINA RESULT:      -5.0      7.800     10.274
REMARK  5 active torsions:
REMARK  status: ('A' for Active; 'I' for Inactive)
REMARK    1  A    between atoms: C4_4  and  C5_5 
REMARK    2  A    between atoms: C8_8  and  O9_9 
REMARK    3  A    between atoms: C10_11  and  O11_12 
REMARK    4  A    between atoms: C16_18  and  O17_19 
REMARK    5  A    between atoms: C19_22  and  O20_23 
ROOT
HETATM    1  O1          0      76.312   3.143  20.225  1.00  0.00    -0.286 OA
HETATM    2  C2          0      76.092   3.007  21.460  1.00  0.00     0.201 C 
HETATM    3  C3          0      75.351   1.960  21.979  1.00  0.00     0.067 C 
HETATM    4  C4          0      75.037   1.890  23.332  1.00  0.00     0.103 C 
HETATM    5  O13         0      75.480   2.840  24.136  1.00  0.00    -0.307 OA
HETATM    6  C14         0      76.155   3.876  23.689  1.00  0.00     0.107 C 
HETATM    7  C15         0      76.272   5.046  24.426  1.00  0.00     0.049 C 
HETATM    8  C16         0      76.761   6.214  23.853  1.00  0.00     0.093 C 
HETATM    9  C18         0      77.587   6.026  22.751  1.00  0.00     0.048 C 
HETATM   10  C19         0      77.529   4.847  22.019  1.00  0.00     0.096 C 
HETATM   11  C21         0      76.664   3.856  22.395  1.00  0.00     0.084 C 
ENDROOT
BRANCH  10  12
HETATM   12  O20         0      78.009   4.834  20.713  1.00  0.00    -0.359 OA
HETATM   13  H20         0      78.433   4.043  20.403  1.00  0.00     0.218 HD
ENDBRANCH  10  12
BRANCH   4  14
HETATM   14  C5          0      73.820   1.164  23.701  1.00  0.00     0.025 C 
HETATM   15  C6          0      73.779   0.241  24.736  1.00  0.00     0.004 C 
HETATM   16  C7          0      72.637   0.213  25.529  1.00  0.00     0.026 C 
HETATM   17  C8          0      71.518   0.980  25.224  1.00  0.00     0.112 C 
HETATM   18  C10         0      71.415   1.351  23.890  1.00  0.00     0.112 C 
HETATM   19  C12         0      72.582   1.455  23.142  1.00  0.00     0.028 C 
BRANCH  17  20
HETATM   20  O9          0      70.713   1.490  26.227  1.00  0.00    -0.357 OA
HETATM   21  H9          0      69.868   1.124  26.464  1.00  0.00     0.218 HD
ENDBRANCH  17  20
BRANCH  18  22
HETATM   22  O11         0      70.229   1.953  23.494  1.00  0.00    -0.357 OA
HETATM   23  H11         0      69.870   1.686  22.656  1.00  0.00     0.218 HD
ENDBRANCH  18  22
ENDBRANCH   4  14
BRANCH   8  24
HETATM   24  O17         0      76.199   7.461  24.147  1.00  0.00    -0.359 OA
HETATM   25  H17         0      76.125   7.777  25.040  1.00  0.00     0.218 HD
ENDBRANCH   8  24
TORSDOF 5
ENDMDL
