MODEL 1
REMARK VINA RESULT:      -6.8      0.000      0.000
REMARK  5 active torsions:
REMARK  status: ('A' for Active; 'I' for Inactive)
REMARK    1  A    between atoms: C4_4  and  C5_5 
REMARK    2  A    between atoms: C8_8  and  O9_9 
REMARK    3  A    between atoms: C10_11  and  O11_12 
REMARK    4  A    between atoms: C16_18  and  O17_19 
REMARK    5  A    between atoms: C19_22  and  O20_23 
ROOT
HETATM    1  O1          0      65.634  22.064  -2.303  1.00  0.00    -0.286 OA
HETATM    2  C2          0      65.507  23.286  -2.587  1.00  0.00     0.201 C 
HETATM    3  C3          0      66.545  24.050  -3.093  1.00  0.00     0.067 C 
HETATM    4  C4          0      66.408  25.418  -3.301  1.00  0.00     0.103 C 
HETATM    5  O13         0      65.249  25.990  -3.025  1.00  0.00    -0.307 OA
HETATM    6  C14         0      64.244  25.317  -2.507  1.00  0.00     0.107 C 
HETATM    7  C15         0      63.199  25.954  -1.854  1.00  0.00     0.049 C 
HETATM    8  C16         0      62.280  25.239  -1.094  1.00  0.00     0.093 C 
HETATM    9  C18         0      62.141  23.902  -1.448  1.00  0.00     0.048 C 
HETATM   10  C19         0      63.148  23.247  -2.143  1.00  0.00     0.096 C 
HETATM   11  C21         0      64.281  23.927  -2.498  1.00  0.00     0.084 C 
ENDROOT
BRANCH  10  12
HETATM   12  O20         0      63.206  21.857  -2.109  1.00  0.00    -0.359 OA
HETATM   13  H20         0      63.771  21.451  -1.462  1.00  0.00     0.218 HD
ENDBRANCH  10  12
BRANCH   4  14
HETATM   14  C5          0      67.626  26.229  -3.243  1.00  0.00     0.025 C 
HETATM   15  C6          0      67.603  27.614  -3.162  1.00  0.00     0.004 C 
HETATM   16  C7          0      68.555  28.228  -2.355  1.00  0.00     0.026 C 
HETATM   17  C8          0      69.579  27.503  -1.754  1.00  0.00     0.112 C 
HETATM   18  C10         0      69.885  26.303  -2.382  1.00  0.00     0.112 C 
HETATM   19  C12         0      68.889  25.667  -3.113  1.00  0.00     0.028 C 
BRANCH  17  20
HETATM   20  O9          0      70.078  27.873  -0.518  1.00  0.00    -0.357 OA
HETATM   21  H9          0      70.879  27.522  -0.145  1.00  0.00     0.218 HD
ENDBRANCH  17  20
BRANCH  18  22
HETATM   22  O11         0      71.017  25.634  -1.940  1.00  0.00    -0.357 OA
HETATM   23  H11         0      70.886  24.937  -1.307  1.00  0.00     0.218 HD
ENDBRANCH  18  22
ENDBRANCH   4  14
BRANCH   8  24
HETATM   24  O17         0      61.801  25.732   0.124  1.00  0.00    -0.359 OA
HETATM   25  H17         0      60.923  26.083   0.210  1.00  0.00     0.218 HD
ENDBRANCH   8  24
TORSDOF 5
ENDMDL
MODEL 2
REMARK VINA RESULT:      -6.0      4.506      8.092
REMARK  5 active torsions:
REMARK  status: ('A' for Active; 'I' for Inactive)
REMARK    1  A    between atoms: C4_4  and  C5_5 
REMARK    2  A    between atoms: C8_8  and  O9_9 
REMARK    3  A    between atoms: C10_11  and  O11_12 
REMARK    4  A    between atoms: C16_18  and  O17_19 
REMARK    5  A    between atoms: C19_22  and  O20_23 
ROOT
HETATM    1  O1          0      59.875  21.588  -2.049  1.00  0.00    -0.286 OA
HETATM    2  C2          0      60.484  22.113  -3.022  1.00  0.00     0.201 C 
HETATM    3  C3          0      60.265  21.735  -4.336  1.00  0.00     0.067 C 
HETATM    4  C4          0      61.023  22.256  -5.379  1.00  0.00     0.103 C 
HETATM    5  O13         0      61.958  23.147  -5.101  1.00  0.00    -0.307 OA
HETATM    6  C14         0      62.231  23.512  -3.868  1.00  0.00     0.107 C 
HETATM    7  C15         0      63.435  24.116  -3.534  1.00  0.00     0.049 C 
HETATM    8  C16         0      63.824  24.266  -2.209  1.00  0.00     0.093 C 
HETATM    9  C18         0      62.782  24.288  -1.290  1.00  0.00     0.048 C 
HETATM   10  C19         0      61.549  23.735  -1.609  1.00  0.00     0.096 C 
HETATM   11  C21         0      61.353  23.178  -2.843  1.00  0.00     0.084 C 
ENDROOT
BRANCH  10  12
HETATM   12  O20         0      60.681  23.371  -0.583  1.00  0.00    -0.359 OA
HETATM   13  H20         0      59.772  23.210  -0.806  1.00  0.00     0.218 HD
ENDBRANCH  10  12
BRANCH   4  14
HETATM   14  C5          0      61.172  21.427  -6.577  1.00  0.00     0.025 C 
HETATM   15  C6          0      62.282  21.499  -7.407  1.00  0.00     0.004 C 
HETATM   16  C7          0      62.761  20.309  -7.946  1.00  0.00     0.026 C 
HETATM   17  C8          0      62.084  19.106  -7.777  1.00  0.00     0.112 C 
HETATM   18  C10         0      60.728  19.237  -7.506  1.00  0.00     0.112 C 
HETATM   19  C12         0      60.288  20.402  -6.888  1.00  0.00     0.028 C 
BRANCH  17  20
HETATM   20  O9          0      62.774  17.911  -7.681  1.00  0.00    -0.357 OA
HETATM   21  H9          0      62.431  17.136  -7.252  1.00  0.00     0.218 HD
ENDBRANCH  17  20
BRANCH  18  22
HETATM   22  O11         0      59.970  18.075  -7.515  1.00  0.00    -0.357 OA
HETATM   23  H11         0      59.516  17.852  -6.711  1.00  0.00     0.218 HD
ENDBRANCH  18  22
ENDBRANCH   4  14
BRANCH   8  24
HETATM   24  O17         0      65.151  24.067  -1.811  1.00  0.00    -0.359 OA
HETATM   25  H17         0      65.455  23.226  -1.491  1.00  0.00     0.218 HD
ENDBRANCH   8  24
TORSDOF 5
ENDMDL
MODEL 3
REMARK VINA RESULT:      -5.9      1.694      2.157
REMARK  5 active torsions:
REMARK  status: ('A' for Active; 'I' for Inactive)
REMARK    1  A    between atoms: C4_4  and  C5_5 
REMARK    2  A    between atoms: C8_8  and  O9_9 
REMARK    3  A    between atoms: C10_11  and  O11_12 
REMARK    4  A    between atoms: C16_18  and  O17_19 
REMARK    5  A    between atoms: C19_22  and  O20_23 
ROOT
HETATM    1  O1          0      65.776  21.980  -2.170  1.00  0.00    -0.286 OA
HETATM    2  C2          0      65.564  23.169  -2.535  1.00  0.00     0.201 C 
HETATM    3  C3          0      66.538  23.957  -3.123  1.00  0.00     0.067 C 
HETATM    4  C4          0      66.309  25.296  -3.422  1.00  0.00     0.103 C 
HETATM    5  O13         0      65.123  25.813  -3.152  1.00  0.00    -0.307 OA
HETATM    6  C14         0      64.176  25.118  -2.560  1.00  0.00     0.107 C 
HETATM    7  C15         0      63.109  25.733  -1.923  1.00  0.00     0.049 C 
HETATM    8  C16         0      62.257  25.019  -1.089  1.00  0.00     0.093 C 
HETATM    9  C18         0      62.194  23.654  -1.344  1.00  0.00     0.048 C 
HETATM   10  C19         0      63.224  23.015  -2.020  1.00  0.00     0.096 C 
HETATM   11  C21         0      64.302  23.737  -2.455  1.00  0.00     0.084 C 
ENDROOT
BRANCH  10  12
HETATM   12  O20         0      63.371  21.637  -1.891  1.00  0.00    -0.359 OA
HETATM   13  H20         0      64.243  21.272  -1.980  1.00  0.00     0.218 HD
ENDBRANCH  10  12
BRANCH   4  14
HETATM   14  C5          0      67.473  26.183  -3.456  1.00  0.00     0.025 C 
HETATM   15  C6          0      68.647  25.858  -4.120  1.00  0.00     0.004 C 
HETATM   16  C7          0      69.312  26.880  -4.791  1.00  0.00     0.026 C 
HETATM   17  C8          0      68.901  28.204  -4.694  1.00  0.00     0.112 C 
HETATM   18  C10         0      68.162  28.500  -3.557  1.00  0.00     0.112 C 
HETATM   19  C12         0      67.437  27.478  -2.955  1.00  0.00     0.028 C 
BRANCH  17  20
HETATM   20  O9          0      69.049  29.072  -5.762  1.00  0.00    -0.357 OA
HETATM   21  H9          0      68.878  28.832  -6.665  1.00  0.00     0.218 HD
ENDBRANCH  17  20
BRANCH  18  22
HETATM   22  O11         0      67.888  29.839  -3.316  1.00  0.00    -0.357 OA
HETATM   23  H11         0      67.565  30.063  -2.451  1.00  0.00     0.218 HD
ENDBRANCH  18  22
ENDBRANCH   4  14
BRANCH   8  24
HETATM   24  O17         0      61.778  25.567   0.106  1.00  0.00    -0.359 OA
HETATM   25  H17         0      62.363  25.817   0.811  1.00  0.00     0.218 HD
ENDBRANCH   8  24
TORSDOF 5
ENDMDL
MODEL 4
REMARK VINA RESULT:      -5.5      4.483      7.056
REMARK  5 active torsions:
REMARK  status: ('A' for Active; 'I' for Inactive)
REMARK    1  A    between atoms: C4_4  and  C5_5 
REMARK    2  A    between atoms: C8_8  and  O9_9 
REMARK    3  A    between atoms: C10_11  and  O11_12 
REMARK    4  A    between atoms: C16_18  and  O17_19 
REMARK    5  A    between atoms: C19_22  and  O20_23 
ROOT
HETATM    1  O1          0      64.135  23.751  -7.293  1.00  0.00    -0.286 OA
HETATM    2  C2          0      63.319  23.237  -6.480  1.00  0.00     0.201 C 
HETATM    3  C3          0      63.133  23.721  -5.196  1.00  0.00     0.067 C 
HETATM    4  C4          0      62.304  23.074  -4.287  1.00  0.00     0.103 C 
HETATM    5  O13         0      61.667  21.983  -4.674  1.00  0.00    -0.307 OA
HETATM    6  C14         0      61.836  21.461  -5.869  1.00  0.00     0.107 C 
HETATM    7  C15         0      61.505  20.142  -6.143  1.00  0.00     0.049 C 
HETATM    8  C16         0      61.917  19.524  -7.318  1.00  0.00     0.093 C 
HETATM    9  C18         0      62.177  20.388  -8.375  1.00  0.00     0.048 C 
HETATM   10  C19         0      62.466  21.725  -8.139  1.00  0.00     0.096 C 
HETATM   11  C21         0      62.478  22.201  -6.856  1.00  0.00     0.084 C 
ENDROOT
BRANCH  10  12
HETATM   12  O20         0      63.137  22.459  -9.113  1.00  0.00    -0.359 OA
HETATM   13  H20         0      62.621  22.854  -9.805  1.00  0.00     0.218 HD
ENDBRANCH  10  12
BRANCH   4  14
HETATM   14  C5          0      62.606  23.247  -2.865  1.00  0.00     0.025 C 
HETATM   15  C6          0      63.793  23.804  -2.410  1.00  0.00     0.004 C 
HETATM   16  C7          0      63.728  24.641  -1.301  1.00  0.00     0.026 C 
HETATM   17  C8          0      62.549  24.813  -0.584  1.00  0.00     0.112 C 
HETATM   18  C10         0      61.636  23.774  -0.712  1.00  0.00     0.112 C 
HETATM   19  C12         0      61.667  23.007  -1.870  1.00  0.00     0.028 C 
BRANCH  17  20
HETATM   20  O9          0      62.256  26.023   0.019  1.00  0.00    -0.357 OA
HETATM   21  H9          0      61.866  26.102   0.882  1.00  0.00     0.218 HD
ENDBRANCH  17  20
BRANCH  18  22
HETATM   22  O11         0      60.530  23.804   0.125  1.00  0.00    -0.357 OA
HETATM   23  H11         0      60.145  22.967   0.359  1.00  0.00     0.218 HD
ENDBRANCH  18  22
ENDBRANCH   4  14
BRANCH   8  24
HETATM   24  O17         0      62.355  18.195  -7.329  1.00  0.00    -0.359 OA
HETATM   25  H17         0      61.900  17.516  -6.846  1.00  0.00     0.218 HD
ENDBRANCH   8  24
TORSDOF 5
ENDMDL
MODEL 5
REMARK VINA RESULT:      -5.3      2.088      3.483
REMARK  5 active torsions:
REMARK  status: ('A' for Active; 'I' for Inactive)
REMARK    1  A    between atoms: C4_4  and  C5_5 
REMARK    2  A    between atoms: C8_8  and  O9_9 
REMARK    3  A    between atoms: C10_11  and  O11_12 
REMARK    4  A    between atoms: C16_18  and  O17_19 
REMARK    5  A    between atoms: C19_22  and  O20_23 
ROOT
HETATM    1  O1          0      62.248  24.817  -0.819  1.00  0.00    -0.286 OA
HETATM    2  C2          0      62.902  24.091  -1.616  1.00  0.00     0.201 C 
HETATM    3  C3          0      64.270  24.211  -1.792  1.00  0.00     0.067 C 
HETATM    4  C4          0      64.949  23.469  -2.751  1.00  0.00     0.103 C 
HETATM    5  O13         0      64.267  22.616  -3.494  1.00  0.00    -0.307 OA
HETATM    6  C14         0      62.962  22.490  -3.394  1.00  0.00     0.107 C 
HETATM    7  C15         0      62.203  21.920  -4.406  1.00  0.00     0.049 C 
HETATM    8  C16         0      60.817  22.018  -4.411  1.00  0.00     0.093 C 
HETATM    9  C18         0      60.238  22.214  -3.163  1.00  0.00     0.048 C 
HETATM   10  C19         0      60.981  22.739  -2.115  1.00  0.00     0.096 C 
HETATM   11  C21         0      62.300  23.050  -2.307  1.00  0.00     0.084 C 
ENDROOT
BRANCH  10  12
HETATM   12  O20         0      60.322  23.328  -1.041  1.00  0.00    -0.359 OA
HETATM   13  H20         0      60.265  22.838  -0.230  1.00  0.00     0.218 HD
ENDBRANCH  10  12
BRANCH   4  14
HETATM   14  C5          0      66.185  24.041  -3.289  1.00  0.00     0.025 C 
HETATM   15  C6          0      66.368  25.405  -3.464  1.00  0.00     0.004 C 
HETATM   16  C7          0      67.627  25.928  -3.184  1.00  0.00     0.026 C 
HETATM   17  C8          0      68.704  25.106  -2.871  1.00  0.00     0.112 C 
HETATM   18  C10         0      68.592  23.802  -3.333  1.00  0.00     0.112 C 
HETATM   19  C12         0      67.320  23.276  -3.523  1.00  0.00     0.028 C 
BRANCH  17  20
HETATM   20  O9          0      69.685  25.528  -1.991  1.00  0.00    -0.357 OA
HETATM   21  H9          0      70.590  25.242  -2.032  1.00  0.00     0.218 HD
ENDBRANCH  17  20
BRANCH  18  22
HETATM   22  O11         0      69.714  22.995  -3.214  1.00  0.00    -0.357 OA
HETATM   23  H11         0      70.175  23.018  -2.384  1.00  0.00     0.218 HD
ENDBRANCH  18  22
ENDBRANCH   4  14
BRANCH   8  24
HETATM   24  O17         0      60.106  22.242  -5.596  1.00  0.00    -0.359 OA
HETATM   25  H17         0      60.466  22.014  -6.444  1.00  0.00     0.218 HD
ENDBRANCH   8  24
TORSDOF 5
ENDMDL
MODEL 6
REMARK VINA RESULT:      -5.3      3.209      6.658
REMARK  5 active torsions:
REMARK  status: ('A' for Active; 'I' for Inactive)
REMARK    1  A    between atoms: C4_4  and  C5_5 
REMARK    2  A    between atoms: C8_8  and  O9_9 
REMARK    3  A    between atoms: C10_11  and  O11_12 
REMARK    4  A    between atoms: C16_18  and  O17_19 
REMARK    5  A    between atoms: C19_22  and  O20_23 
ROOT
HETATM    1  O1          0      67.142  24.036  -5.663  1.00  0.00    -0.286 OA
HETATM    2  C2          0      66.576  23.375  -4.748  1.00  0.00     0.201 C 
HETATM    3  C3          0      65.209  23.409  -4.534  1.00  0.00     0.067 C 
HETATM    4  C4          0      64.624  22.754  -3.456  1.00  0.00     0.103 C 
HETATM    5  O13         0      65.399  22.067  -2.634  1.00  0.00    -0.307 OA
HETATM    6  C14         0      66.706  22.033  -2.771  1.00  0.00     0.107 C 
HETATM    7  C15         0      67.541  21.670  -1.724  1.00  0.00     0.049 C 
HETATM    8  C16         0      68.913  21.879  -1.790  1.00  0.00     0.093 C 
HETATM    9  C18         0      69.436  21.947  -3.076  1.00  0.00     0.048 C 
HETATM   10  C19         0      68.618  22.262  -4.153  1.00  0.00     0.096 C 
HETATM   11  C21         0      67.285  22.490  -3.950  1.00  0.00     0.084 C 
ENDROOT
BRANCH  10  12
HETATM   12  O20         0      69.193  22.750  -5.323  1.00  0.00    -0.359 OA
HETATM   13  H20         0      70.042  23.169  -5.261  1.00  0.00     0.218 HD
ENDBRANCH  10  12
BRANCH   4  14
HETATM   14  C5          0      63.362  23.294  -2.949  1.00  0.00     0.025 C 
HETATM   15  C6          0      62.127  22.746  -3.266  1.00  0.00     0.004 C 
HETATM   16  C7          0      61.163  22.704  -2.264  1.00  0.00     0.026 C 
HETATM   17  C8          0      61.369  23.308  -1.028  1.00  0.00     0.112 C 
HETATM   18  C10         0      62.309  24.330  -1.032  1.00  0.00     0.112 C 
HETATM   19  C12         0      63.313  24.300  -1.993  1.00  0.00     0.028 C 
BRANCH  17  20
HETATM   20  O9          0      60.826  22.768   0.124  1.00  0.00    -0.357 OA
HETATM   21  H9          0      59.936  22.441   0.184  1.00  0.00     0.218 HD
ENDBRANCH  17  20
BRANCH  18  22
HETATM   22  O11         0      62.417  25.088   0.125  1.00  0.00    -0.357 OA
HETATM   23  H11         0      63.196  25.625   0.216  1.00  0.00     0.218 HD
ENDBRANCH  18  22
ENDBRANCH   4  14
BRANCH   8  24
HETATM   24  O17         0      69.638  22.319  -0.677  1.00  0.00    -0.359 OA
HETATM   25  H17         0      70.476  22.757  -0.769  1.00  0.00     0.218 HD
ENDBRANCH   8  24
TORSDOF 5
ENDMDL
MODEL 7
REMARK VINA RESULT:      -5.2      2.896      4.908
REMARK  5 active torsions:
REMARK  status: ('A' for Active; 'I' for Inactive)
REMARK    1  A    between atoms: C4_4  and  C5_5 
REMARK    2  A    between atoms: C8_8  and  O9_9 
REMARK    3  A    between atoms: C10_11  and  O11_12 
REMARK    4  A    between atoms: C16_18  and  O17_19 
REMARK    5  A    between atoms: C19_22  and  O20_23 
ROOT
HETATM    1  O1          0      66.131  26.634  -3.345  1.00  0.00    -0.286 OA
HETATM    2  C2          0      66.119  25.388  -3.147  1.00  0.00     0.201 C 
HETATM    3  C3          0      67.247  24.597  -3.280  1.00  0.00     0.067 C 
HETATM    4  C4          0      67.185  23.213  -3.156  1.00  0.00     0.103 C 
HETATM    5  O13         0      66.020  22.652  -2.886  1.00  0.00    -0.307 OA
HETATM    6  C14         0      64.912  23.353  -2.788  1.00  0.00     0.107 C 
HETATM    7  C15         0      63.661  22.765  -2.906  1.00  0.00     0.049 C 
HETATM    8  C16         0      62.513  23.533  -3.056  1.00  0.00     0.093 C 
HETATM    9  C18         0      62.605  24.828  -2.560  1.00  0.00     0.048 C 
HETATM   10  C19         0      63.843  25.431  -2.385  1.00  0.00     0.096 C 
HETATM   11  C21         0      64.984  24.739  -2.688  1.00  0.00     0.084 C 
ENDROOT
BRANCH  10  12
HETATM   12  O20         0      63.921  26.818  -2.317  1.00  0.00    -0.359 OA
HETATM   13  H20         0      63.223  27.282  -1.870  1.00  0.00     0.218 HD
ENDBRANCH  10  12
BRANCH   4  14
HETATM   14  C5          0      68.196  22.431  -3.871  1.00  0.00     0.025 C 
HETATM   15  C6          0      69.537  22.435  -3.519  1.00  0.00     0.004 C 
HETATM   16  C7          0      70.230  21.232  -3.606  1.00  0.00     0.026 C 
HETATM   17  C8          0      69.648  20.093  -4.152  1.00  0.00     0.112 C 
HETATM   18  C10         0      68.594  20.341  -5.022  1.00  0.00     0.112 C 
HETATM   19  C12         0      67.864  21.512  -4.858  1.00  0.00     0.028 C 
BRANCH  17  20
HETATM   20  O9          0      69.976  18.834  -3.682  1.00  0.00    -0.357 OA
HETATM   21  H9          0      69.980  18.052  -4.222  1.00  0.00     0.218 HD
ENDBRANCH  17  20
BRANCH  18  22
HETATM   22  O11         0      68.103  19.258  -5.738  1.00  0.00    -0.357 OA
HETATM   23  H11         0      68.238  18.396  -5.362  1.00  0.00     0.218 HD
ENDBRANCH  18  22
ENDBRANCH   4  14
BRANCH   8  24
HETATM   24  O17         0      61.488  23.150  -3.928  1.00  0.00    -0.359 OA
HETATM   25  H17         0      61.381  23.555  -4.781  1.00  0.00     0.218 HD
ENDBRANCH   8  24
TORSDOF 5
ENDMDL
MODEL 8
REMARK VINA RESULT:      -4.8      2.246      6.902
REMARK  5 active torsions:
REMARK  status: ('A' for Active; 'I' for Inactive)
REMARK    1  A    between atoms: C4_4  and  C5_5 
REMARK    2  A    between atoms: C8_8  and  O9_9 
REMARK    3  A    between atoms: C10_11  and  O11_12 
REMARK    4  A    between atoms: C16_18  and  O17_19 
REMARK    5  A    between atoms: C19_22  and  O20_23 
ROOT
HETATM    1  O1          0      67.048  26.649  -3.174  1.00  0.00    -0.286 OA
HETATM    2  C2          0      66.515  25.507  -3.234  1.00  0.00     0.201 C 
HETATM    3  C3          0      65.146  25.323  -3.326  1.00  0.00     0.067 C 
HETATM    4  C4          0      64.577  24.054  -3.287  1.00  0.00     0.103 C 
HETATM    5  O13         0      65.373  23.005  -3.179  1.00  0.00    -0.307 OA
HETATM    6  C14         0      66.676  23.127  -3.050  1.00  0.00     0.107 C 
HETATM    7  C15         0      67.460  22.099  -2.544  1.00  0.00     0.049 C 
HETATM    8  C16         0      68.781  22.315  -2.172  1.00  0.00     0.093 C 
HETATM    9  C18         0      69.401  23.387  -2.804  1.00  0.00     0.048 C 
HETATM   10  C19         0      68.646  24.409  -3.362  1.00  0.00     0.096 C 
HETATM   11  C21         0      67.280  24.353  -3.305  1.00  0.00     0.084 C 
ENDROOT
BRANCH  10  12
HETATM   12  O20         0      69.239  25.647  -3.590  1.00  0.00    -0.359 OA
HETATM   13  H20         0      70.077  25.663  -4.036  1.00  0.00     0.218 HD
ENDBRANCH  10  12
BRANCH   4  14
HETATM   14  C5          0      63.204  23.951  -2.791  1.00  0.00     0.025 C 
HETATM   15  C6          0      62.111  24.436  -3.496  1.00  0.00     0.004 C 
HETATM   16  C7          0      60.939  23.687  -3.463  1.00  0.00     0.026 C 
HETATM   17  C8          0      60.813  22.566  -2.650  1.00  0.00     0.112 C 
HETATM   18  C10         0      61.672  22.541  -1.559  1.00  0.00     0.112 C 
HETATM   19  C12         0      62.876  23.229  -1.651  1.00  0.00     0.028 C 
BRANCH  17  20
HETATM   20  O9          0      60.039  21.489  -3.043  1.00  0.00    -0.357 OA
HETATM   21  H9          0      60.086  20.630  -2.640  1.00  0.00     0.218 HD
ENDBRANCH  17  20
BRANCH  18  22
HETATM   22  O11         0      61.460  21.546  -0.615  1.00  0.00    -0.357 OA
HETATM   23  H11         0      60.831  21.732   0.072  1.00  0.00     0.218 HD
ENDBRANCH  18  22
ENDBRANCH   4  14
BRANCH   8  24
HETATM   24  O17         0      69.322  21.725  -1.024  1.00  0.00    -0.359 OA
HETATM   25  H17         0      69.835  22.225  -0.401  1.00  0.00     0.218 HD
ENDBRANCH   8  24
TORSDOF 5
ENDMDL
MODEL 9
REMARK VINA RESULT:      -4.7     10.037     12.627
REMARK  5 active torsions:
REMARK  status: ('A' for Active; 'I' for Inactive)
REMARK    1  A    between atoms: C4_4  and  C5_5 
REMARK    2  A    between atoms: C8_8  and  O9_9 
REMARK    3  A    between atoms: C10_11  and  O11_12 
REMARK    4  A    between atoms: C16_18  and  O17_19 
REMARK    5  A    between atoms: C19_22  and  O20_23 
ROOT
HETATM    1  O1          0      69.692  15.750 -10.668  1.00  0.00    -0.286 OA
HETATM    2  C2          0      68.726  15.671  -9.859  1.00  0.00     0.201 C 
HETATM    3  C3          0      67.407  15.823 -10.249  1.00  0.00     0.067 C 
HETATM    4  C4          0      66.370  15.834  -9.322  1.00  0.00     0.103 C 
HETATM    5  O13         0      66.660  15.674  -8.043  1.00  0.00    -0.307 OA
HETATM    6  C14         0      67.899  15.563  -7.616  1.00  0.00     0.107 C 
HETATM    7  C15         0      68.239  15.796  -6.291  1.00  0.00     0.049 C 
HETATM    8  C16         0      69.566  15.928  -5.899  1.00  0.00     0.093 C 
HETATM    9  C18         0      70.489  15.308  -6.733  1.00  0.00     0.048 C 
HETATM   10  C19         0      70.165  15.018  -8.051  1.00  0.00     0.096 C 
HETATM   11  C21         0      68.921  15.330  -8.529  1.00  0.00     0.084 C 
ENDROOT
BRANCH  10  12
HETATM   12  O20         0      71.187  14.816  -8.974  1.00  0.00    -0.359 OA
HETATM   13  H20         0      71.661  15.577  -9.287  1.00  0.00     0.218 HD
ENDBRANCH  10  12
BRANCH   4  14
HETATM   14  C5          0      65.157  16.570  -9.683  1.00  0.00     0.025 C 
HETATM   15  C6          0      64.288  16.146 -10.678  1.00  0.00     0.004 C 
HETATM   16  C7          0      62.925  16.321 -10.461  1.00  0.00     0.026 C 
HETATM   17  C8          0      62.446  17.014  -9.355  1.00  0.00     0.112 C 
HETATM   18  C10         0      63.348  17.910  -8.796  1.00  0.00     0.112 C 
HETATM   19  C12         0      64.707  17.665  -8.957  1.00  0.00     0.028 C 
BRANCH  17  20
HETATM   20  O9          0      61.247  16.661  -8.761  1.00  0.00    -0.357 OA
HETATM   21  H9          0      60.807  17.189  -8.105  1.00  0.00     0.218 HD
ENDBRANCH  17  20
BRANCH  18  22
HETATM   22  O11         0      62.862  18.761  -7.814  1.00  0.00    -0.357 OA
HETATM   23  H11         0      62.563  18.359  -7.007  1.00  0.00     0.218 HD
ENDBRANCH  18  22
ENDBRANCH   4  14
BRANCH   8  24
HETATM   24  O17         0      69.954  16.881  -4.950  1.00  0.00    -0.359 OA
HETATM   25  H17         0      69.505  16.968  -4.118  1.00  0.00     0.218 HD
ENDBRANCH   8  24
TORSDOF 5
ENDMDL
