MODEL 1
REMARK VINA RESULT:      -6.5      0.000      0.000
REMARK  5 active torsions:
REMARK  status: ('A' for Active; 'I' for Inactive)
REMARK    1  A    between atoms: C4_4  and  C5_5 
REMARK    2  A    between atoms: C8_8  and  O9_9 
REMARK    3  A    between atoms: C10_11  and  O11_12 
REMARK    4  A    between atoms: C16_18  and  O17_19 
REMARK    5  A    between atoms: C19_22  and  O20_23 
ROOT
HETATM    1  O1          0      63.522   6.133   2.641  1.00  0.00    -0.286 OA
HETATM    2  C2          0      62.826   5.114   2.379  1.00  0.00     0.201 C 
HETATM    3  C3          0      61.614   5.183   1.713  1.00  0.00     0.067 C 
HETATM    4  C4          0      60.819   4.058   1.529  1.00  0.00     0.103 C 
HETATM    5  O13         0      61.248   2.895   1.987  1.00  0.00    -0.307 OA
HETATM    6  C14         0      62.373   2.781   2.658  1.00  0.00     0.107 C 
HETATM    7  C15         0      62.632   1.685   3.469  1.00  0.00     0.049 C 
HETATM    8  C16         0      63.693   1.686   4.367  1.00  0.00     0.093 C 
HETATM    9  C18         0      64.736   2.545   4.041  1.00  0.00     0.048 C 
HETATM   10  C19         0      64.523   3.624   3.195  1.00  0.00     0.096 C 
HETATM   11  C21         0      63.280   3.835   2.663  1.00  0.00     0.084 C 
ENDROOT
BRANCH  10  12
HETATM   12  O20         0      65.412   4.695   3.221  1.00  0.00    -0.359 OA
HETATM   13  H20         0      65.905   4.844   4.018  1.00  0.00     0.218 HD
ENDBRANCH  10  12
BRANCH   4  14
HETATM   14  C5          0      59.377   4.272   1.391  1.00  0.00     0.025 C 
HETATM   15  C6          0      58.478   4.015   2.415  1.00  0.00     0.004 C 
HETATM   16  C7          0      57.411   4.895   2.573  1.00  0.00     0.026 C 
HETATM   17  C8          0      57.170   5.919   1.663  1.00  0.00     0.112 C 
HETATM   18  C10         0      57.701   5.707   0.398  1.00  0.00     0.112 C 
HETATM   19  C12         0      58.819   4.890   0.279  1.00  0.00     0.028 C 
BRANCH  17  20
HETATM   20  O9          0      56.630   7.123   2.078  1.00  0.00    -0.357 OA
HETATM   21  H9          0      55.705   7.254   2.254  1.00  0.00     0.218 HD
ENDBRANCH  17  20
BRANCH  18  22
HETATM   22  O11         0      57.332   6.602  -0.596  1.00  0.00    -0.357 OA
HETATM   23  H11         0      57.120   7.487  -0.322  1.00  0.00     0.218 HD
ENDBRANCH  18  22
ENDBRANCH   4  14
BRANCH   8  24
HETATM   24  O17         0      63.567   1.133   5.646  1.00  0.00    -0.359 OA
HETATM   25  H17         0      63.442   0.201   5.777  1.00  0.00     0.218 HD
ENDBRANCH   8  24
TORSDOF 5
ENDMDL
MODEL 2
REMARK VINA RESULT:      -6.4      1.945      6.571
REMARK  5 active torsions:
REMARK  status: ('A' for Active; 'I' for Inactive)
REMARK    1  A    between atoms: C4_4  and  C5_5 
REMARK    2  A    between atoms: C8_8  and  O9_9 
REMARK    3  A    between atoms: C10_11  and  O11_12 
REMARK    4  A    between atoms: C16_18  and  O17_19 
REMARK    5  A    between atoms: C19_22  and  O20_23 
ROOT
HETATM    1  O1          0      59.637   6.526  -0.608  1.00  0.00    -0.286 OA
HETATM    2  C2          0      59.758   5.696   0.334  1.00  0.00     0.201 C 
HETATM    3  C3          0      60.959   5.469   0.984  1.00  0.00     0.067 C 
HETATM    4  C4          0      61.089   4.477   1.949  1.00  0.00     0.103 C 
HETATM    5  O13         0      60.029   3.752   2.261  1.00  0.00    -0.307 OA
HETATM    6  C14         0      58.875   3.901   1.649  1.00  0.00     0.107 C 
HETATM    7  C15         0      57.901   2.914   1.674  1.00  0.00     0.049 C 
HETATM    8  C16         0      56.801   2.963   0.826  1.00  0.00     0.093 C 
HETATM    9  C18         0      56.460   4.235   0.380  1.00  0.00     0.048 C 
HETATM   10  C19         0      57.398   5.259   0.385  1.00  0.00     0.096 C 
HETATM   11  C21         0      58.663   5.019   0.849  1.00  0.00     0.084 C 
ENDROOT
BRANCH  10  12
HETATM   12  O20         0      57.203   6.363  -0.438  1.00  0.00    -0.359 OA
HETATM   13  H20         0      57.957   6.717  -0.894  1.00  0.00     0.218 HD
ENDBRANCH  10  12
BRANCH   4  14
HETATM   14  C5          0      62.420   3.897   2.139  1.00  0.00     0.025 C 
HETATM   15  C6          0      62.843   2.753   1.478  1.00  0.00     0.004 C 
HETATM   16  C7          0      64.165   2.708   1.048  1.00  0.00     0.026 C 
HETATM   17  C8          0      65.074   3.708   1.379  1.00  0.00     0.112 C 
HETATM   18  C10         0      64.749   4.433   2.517  1.00  0.00     0.112 C 
HETATM   19  C12         0      63.410   4.532   2.878  1.00  0.00     0.028 C 
BRANCH  17  20
HETATM   20  O9          0      66.088   4.061   0.506  1.00  0.00    -0.357 OA
HETATM   21  H9          0      66.879   4.514   0.773  1.00  0.00     0.218 HD
ENDBRANCH  17  20
BRANCH  18  22
HETATM   22  O11         0      65.709   5.311   2.999  1.00  0.00    -0.357 OA
HETATM   23  H11         0      65.420   5.964   3.625  1.00  0.00     0.218 HD
ENDBRANCH  18  22
ENDBRANCH   4  14
BRANCH   8  24
HETATM   24  O17         0      56.301   1.810   0.211  1.00  0.00    -0.359 OA
HETATM   25  H17         0      56.845   1.267  -0.347  1.00  0.00     0.218 HD
ENDBRANCH   8  24
TORSDOF 5
ENDMDL
MODEL 3
REMARK VINA RESULT:      -6.3      1.246      1.837
REMARK  5 active torsions:
REMARK  status: ('A' for Active; 'I' for Inactive)
REMARK    1  A    between atoms: C4_4  and  C5_5 
REMARK    2  A    between atoms: C8_8  and  O9_9 
REMARK    3  A    between atoms: C10_11  and  O11_12 
REMARK    4  A    between atoms: C16_18  and  O17_19 
REMARK    5  A    between atoms: C19_22  and  O20_23 
ROOT
HETATM    1  O1          0      64.153   6.287   2.659  1.00  0.00    -0.286 OA
HETATM    2  C2          0      63.353   5.363   2.348  1.00  0.00     0.201 C 
HETATM    3  C3          0      62.188   5.588   1.634  1.00  0.00     0.067 C 
HETATM    4  C4          0      61.273   4.570   1.393  1.00  0.00     0.103 C 
HETATM    5  O13         0      61.540   3.357   1.844  1.00  0.00    -0.307 OA
HETATM    6  C14         0      62.612   3.097   2.559  1.00  0.00     0.107 C 
HETATM    7  C15         0      62.702   1.966   3.357  1.00  0.00     0.049 C 
HETATM    8  C16         0      63.716   1.825   4.298  1.00  0.00     0.093 C 
HETATM    9  C18         0      64.867   2.557   4.034  1.00  0.00     0.048 C 
HETATM   10  C19         0      64.822   3.667   3.202  1.00  0.00     0.096 C 
HETATM   11  C21         0      63.638   4.034   2.623  1.00  0.00     0.084 C 
ENDROOT
BRANCH  10  12
HETATM   12  O20         0      65.830   4.622   3.287  1.00  0.00    -0.359 OA
HETATM   13  H20         0      65.667   5.477   2.905  1.00  0.00     0.218 HD
ENDBRANCH  10  12
BRANCH   4  14
HETATM   14  C5          0      59.874   4.958   1.201  1.00  0.00     0.025 C 
HETATM   15  C6          0      59.399   5.493   0.012  1.00  0.00     0.004 C 
HETATM   16  C7          0      58.131   5.105  -0.409  1.00  0.00     0.026 C 
HETATM   17  C8          0      57.307   4.318   0.389  1.00  0.00     0.112 C 
HETATM   18  C10         0      57.591   4.373   1.747  1.00  0.00     0.112 C 
HETATM   19  C12         0      58.888   4.681   2.139  1.00  0.00     0.028 C 
BRANCH  17  20
HETATM   20  O9          0      56.432   3.408  -0.176  1.00  0.00    -0.357 OA
HETATM   21  H9          0      56.339   2.510   0.121  1.00  0.00     0.218 HD
ENDBRANCH  17  20
BRANCH  18  22
HETATM   22  O11         0      56.687   3.761   2.603  1.00  0.00    -0.357 OA
HETATM   23  H11         0      56.286   2.955   2.300  1.00  0.00     0.218 HD
ENDBRANCH  18  22
ENDBRANCH   4  14
BRANCH   8  24
HETATM   24  O17         0      63.469   1.271   5.559  1.00  0.00    -0.359 OA
HETATM   25  H17         0      62.741   1.559   6.096  1.00  0.00     0.218 HD
ENDBRANCH   8  24
TORSDOF 5
ENDMDL
MODEL 4
REMARK VINA RESULT:      -6.3      2.470      6.721
REMARK  5 active torsions:
REMARK  status: ('A' for Active; 'I' for Inactive)
REMARK    1  A    between atoms: C4_4  and  C5_5 
REMARK    2  A    between atoms: C8_8  and  O9_9 
REMARK    3  A    between atoms: C10_11  and  O11_12 
REMARK    4  A    between atoms: C16_18  and  O17_19 
REMARK    5  A    between atoms: C19_22  and  O20_23 
ROOT
HETATM    1  O1          0      56.356   5.940   1.395  1.00  0.00    -0.286 OA
HETATM    2  C2          0      57.122   4.979   1.681  1.00  0.00     0.201 C 
HETATM    3  C3          0      58.474   5.145   1.928  1.00  0.00     0.067 C 
HETATM    4  C4          0      59.314   4.059   2.140  1.00  0.00     0.103 C 
HETATM    5  O13         0      58.797   2.843   2.123  1.00  0.00    -0.307 OA
HETATM    6  C14         0      57.527   2.627   1.856  1.00  0.00     0.107 C 
HETATM    7  C15         0      57.068   1.384   1.446  1.00  0.00     0.049 C 
HETATM    8  C16         0      55.790   1.223   0.924  1.00  0.00     0.093 C 
HETATM    9  C18         0      54.869   2.185   1.321  1.00  0.00     0.048 C 
HETATM   10  C19         0      55.296   3.424   1.781  1.00  0.00     0.096 C 
HETATM   11  C21         0      56.635   3.693   1.860  1.00  0.00     0.084 C 
ENDROOT
BRANCH  10  12
HETATM   12  O20         0      54.414   4.500   1.756  1.00  0.00    -0.359 OA
HETATM   13  H20         0      54.738   5.347   2.036  1.00  0.00     0.218 HD
ENDBRANCH  10  12
BRANCH   4  14
HETATM   14  C5          0      60.727   4.228   1.796  1.00  0.00     0.025 C 
HETATM   15  C6          0      61.174   5.194   0.905  1.00  0.00     0.004 C 
HETATM   16  C7          0      62.374   5.834   1.198  1.00  0.00     0.026 C 
HETATM   17  C8          0      63.172   5.436   2.265  1.00  0.00     0.112 C 
HETATM   18  C10         0      62.979   4.124   2.676  1.00  0.00     0.112 C 
HETATM   19  C12         0      61.740   3.536   2.447  1.00  0.00     0.028 C 
BRANCH  17  20
HETATM   20  O9          0      63.926   6.358   2.969  1.00  0.00    -0.357 OA
HETATM   21  H9          0      63.566   7.147   3.358  1.00  0.00     0.218 HD
ENDBRANCH  17  20
BRANCH  18  22
HETATM   22  O11         0      63.875   3.618   3.607  1.00  0.00    -0.357 OA
HETATM   23  H11         0      63.628   2.815   4.050  1.00  0.00     0.218 HD
ENDBRANCH  18  22
ENDBRANCH   4  14
BRANCH   8  24
HETATM   24  O17         0      55.547   0.376  -0.163  1.00  0.00    -0.359 OA
HETATM   25  H17         0      55.262  -0.522  -0.042  1.00  0.00     0.218 HD
ENDBRANCH   8  24
TORSDOF 5
ENDMDL
MODEL 5
REMARK VINA RESULT:      -6.2      1.652      6.627
REMARK  5 active torsions:
REMARK  status: ('A' for Active; 'I' for Inactive)
REMARK    1  A    between atoms: C4_4  and  C5_5 
REMARK    2  A    between atoms: C8_8  and  O9_9 
REMARK    3  A    between atoms: C10_11  and  O11_12 
REMARK    4  A    between atoms: C16_18  and  O17_19 
REMARK    5  A    between atoms: C19_22  and  O20_23 
ROOT
HETATM    1  O1          0      59.424   6.498  -0.773  1.00  0.00    -0.286 OA
HETATM    2  C2          0      59.581   5.738   0.221  1.00  0.00     0.201 C 
HETATM    3  C3          0      60.822   5.472   0.774  1.00  0.00     0.067 C 
HETATM    4  C4          0      60.979   4.552   1.804  1.00  0.00     0.103 C 
HETATM    5  O13         0      59.908   3.935   2.273  1.00  0.00    -0.307 OA
HETATM    6  C14         0      58.713   4.123   1.759  1.00  0.00     0.107 C 
HETATM    7  C15         0      57.681   3.216   1.958  1.00  0.00     0.049 C 
HETATM    8  C16         0      56.509   3.282   1.215  1.00  0.00     0.093 C 
HETATM    9  C18         0      56.213   4.536   0.696  1.00  0.00     0.048 C 
HETATM   10  C19         0      57.213   5.484   0.527  1.00  0.00     0.096 C 
HETATM   11  C21         0      58.498   5.187   0.890  1.00  0.00     0.084 C 
ENDROOT
BRANCH  10  12
HETATM   12  O20         0      57.013   6.532  -0.366  1.00  0.00    -0.359 OA
HETATM   13  H20         0      56.487   7.269  -0.078  1.00  0.00     0.218 HD
ENDBRANCH  10  12
BRANCH   4  14
HETATM   14  C5          0      62.280   3.890   1.919  1.00  0.00     0.025 C 
HETATM   15  C6          0      63.465   4.485   1.510  1.00  0.00     0.004 C 
HETATM   16  C7          0      64.596   4.271   2.290  1.00  0.00     0.026 C 
HETATM   17  C8          0      64.585   3.387   3.364  1.00  0.00     0.112 C 
HETATM   18  C10         0      63.603   2.408   3.299  1.00  0.00     0.112 C 
HETATM   19  C12         0      62.444   2.681   2.582  1.00  0.00     0.028 C 
BRANCH  17  20
HETATM   20  O9          0      65.360   3.625   4.485  1.00  0.00    -0.357 OA
HETATM   21  H9          0      65.329   4.431   4.988  1.00  0.00     0.218 HD
ENDBRANCH  17  20
BRANCH  18  22
HETATM   22  O11         0      63.666   1.392   4.242  1.00  0.00    -0.357 OA
HETATM   23  H11         0      64.522   1.191   4.602  1.00  0.00     0.218 HD
ENDBRANCH  18  22
ENDBRANCH   4  14
BRANCH   8  24
HETATM   24  O17         0      55.875   2.125   0.749  1.00  0.00    -0.359 OA
HETATM   25  H17         0      56.001   1.283   1.171  1.00  0.00     0.218 HD
ENDBRANCH   8  24
TORSDOF 5
ENDMDL
MODEL 6
REMARK VINA RESULT:      -6.1      1.582      2.884
REMARK  5 active torsions:
REMARK  status: ('A' for Active; 'I' for Inactive)
REMARK    1  A    between atoms: C4_4  and  C5_5 
REMARK    2  A    between atoms: C8_8  and  O9_9 
REMARK    3  A    between atoms: C10_11  and  O11_12 
REMARK    4  A    between atoms: C16_18  and  O17_19 
REMARK    5  A    between atoms: C19_22  and  O20_23 
ROOT
HETATM    1  O1          0      61.888   1.110   3.349  1.00  0.00    -0.286 OA
HETATM    2  C2          0      61.754   2.274   2.882  1.00  0.00     0.201 C 
HETATM    3  C3          0      60.552   2.750   2.386  1.00  0.00     0.067 C 
HETATM    4  C4          0      60.456   4.000   1.785  1.00  0.00     0.103 C 
HETATM    5  O13         0      61.540   4.752   1.708  1.00  0.00    -0.307 OA
HETATM    6  C14         0      62.713   4.334   2.129  1.00  0.00     0.107 C 
HETATM    7  C15         0      63.895   4.922   1.704  1.00  0.00     0.049 C 
HETATM    8  C16         0      65.126   4.324   1.945  1.00  0.00     0.093 C 
HETATM    9  C18         0      65.157   3.461   3.034  1.00  0.00     0.048 C 
HETATM   10  C19         0      63.986   2.892   3.516  1.00  0.00     0.096 C 
HETATM   11  C21         0      62.790   3.195   2.924  1.00  0.00     0.084 C 
ENDROOT
BRANCH  10  12
HETATM   12  O20         0      64.058   1.734   4.284  1.00  0.00    -0.359 OA
HETATM   13  H20         0      64.370   1.812   5.178  1.00  0.00     0.218 HD
ENDBRANCH  10  12
BRANCH   4  14
HETATM   14  C5          0      59.398   4.185   0.790  1.00  0.00     0.025 C 
HETATM   15  C6          0      58.872   3.138   0.047  1.00  0.00     0.004 C 
HETATM   16  C7          0      57.505   3.151  -0.208  1.00  0.00     0.026 C 
HETATM   17  C8          0      56.707   4.234   0.146  1.00  0.00     0.112 C 
HETATM   18  C10         0      57.389   5.436   0.285  1.00  0.00     0.112 C 
HETATM   19  C12         0      58.736   5.395   0.624  1.00  0.00     0.028 C 
BRANCH  17  20
HETATM   20  O9          0      55.390   4.049   0.528  1.00  0.00    -0.357 OA
HETATM   21  H9          0      54.791   3.457   0.089  1.00  0.00     0.218 HD
ENDBRANCH  17  20
BRANCH  18  22
HETATM   22  O11         0      56.620   6.579   0.450  1.00  0.00    -0.357 OA
HETATM   23  H11         0      55.949   6.744  -0.203  1.00  0.00     0.218 HD
ENDBRANCH  18  22
ENDBRANCH   4  14
BRANCH   8  24
HETATM   24  O17         0      66.140   4.326   0.980  1.00  0.00    -0.359 OA
HETATM   25  H17         0      65.945   4.286   0.051  1.00  0.00     0.218 HD
ENDBRANCH   8  24
TORSDOF 5
ENDMDL
MODEL 7
REMARK VINA RESULT:      -6.1      2.185      6.608
REMARK  5 active torsions:
REMARK  status: ('A' for Active; 'I' for Inactive)
REMARK    1  A    between atoms: C4_4  and  C5_5 
REMARK    2  A    between atoms: C8_8  and  O9_9 
REMARK    3  A    between atoms: C10_11  and  O11_12 
REMARK    4  A    between atoms: C16_18  and  O17_19 
REMARK    5  A    between atoms: C19_22  and  O20_23 
ROOT
HETATM    1  O1          0      61.969   6.856   0.225  1.00  0.00    -0.286 OA
HETATM    2  C2          0      61.872   5.832   0.955  1.00  0.00     0.201 C 
HETATM    3  C3          0      62.822   5.492   1.903  1.00  0.00     0.067 C 
HETATM    4  C4          0      62.742   4.305   2.622  1.00  0.00     0.103 C 
HETATM    5  O13         0      61.720   3.497   2.402  1.00  0.00    -0.307 OA
HETATM    6  C14         0      60.811   3.754   1.488  1.00  0.00     0.107 C 
HETATM    7  C15         0      59.988   2.760   0.977  1.00  0.00     0.049 C 
HETATM    8  C16         0      59.214   2.977  -0.157  1.00  0.00     0.093 C 
HETATM    9  C18         0      58.901   4.307  -0.409  1.00  0.00     0.048 C 
HETATM   10  C19         0      59.676   5.327   0.125  1.00  0.00     0.096 C 
HETATM   11  C21         0      60.747   5.021   0.920  1.00  0.00     0.084 C 
ENDROOT
BRANCH  10  12
HETATM   12  O20         0      59.638   6.589  -0.461  1.00  0.00    -0.359 OA
HETATM   13  H20         0      59.891   7.334   0.070  1.00  0.00     0.218 HD
ENDBRANCH  10  12
BRANCH   4  14
HETATM   14  C5          0      63.998   3.735   3.115  1.00  0.00     0.025 C 
HETATM   15  C6          0      64.046   2.605   3.918  1.00  0.00     0.004 C 
HETATM   16  C7          0      65.080   1.701   3.696  1.00  0.00     0.026 C 
HETATM   17  C8          0      66.108   1.974   2.800  1.00  0.00     0.112 C 
HETATM   18  C10         0      66.313   3.324   2.547  1.00  0.00     0.112 C 
HETATM   19  C12         0      65.239   4.194   2.694  1.00  0.00     0.028 C 
BRANCH  17  20
HETATM   20  O9          0      66.710   0.957   2.080  1.00  0.00    -0.357 OA
HETATM   21  H9          0      66.473   0.040   2.163  1.00  0.00     0.218 HD
ENDBRANCH  17  20
BRANCH  18  22
HETATM   22  O11         0      67.441   3.661   1.812  1.00  0.00    -0.357 OA
HETATM   23  H11         0      67.944   4.408   2.115  1.00  0.00     0.218 HD
ENDBRANCH  18  22
ENDBRANCH   4  14
BRANCH   8  24
HETATM   24  O17         0      59.058   1.986  -1.133  1.00  0.00    -0.359 OA
HETATM   25  H17         0      59.354   2.115  -2.026  1.00  0.00     0.218 HD
ENDBRANCH   8  24
TORSDOF 5
ENDMDL
MODEL 8
REMARK VINA RESULT:      -6.0      3.016      4.952
REMARK  5 active torsions:
REMARK  status: ('A' for Active; 'I' for Inactive)
REMARK    1  A    between atoms: C4_4  and  C5_5 
REMARK    2  A    between atoms: C8_8  and  O9_9 
REMARK    3  A    between atoms: C10_11  and  O11_12 
REMARK    4  A    between atoms: C16_18  and  O17_19 
REMARK    5  A    between atoms: C19_22  and  O20_23 
ROOT
HETATM    1  O1          0      58.127   5.628   0.881  1.00  0.00    -0.286 OA
HETATM    2  C2          0      58.793   4.674   1.368  1.00  0.00     0.201 C 
HETATM    3  C3          0      58.202   3.571   1.960  1.00  0.00     0.067 C 
HETATM    4  C4          0      58.959   2.583   2.579  1.00  0.00     0.103 C 
HETATM    5  O13         0      60.275   2.699   2.580  1.00  0.00    -0.307 OA
HETATM    6  C14         0      60.885   3.744   2.065  1.00  0.00     0.107 C 
HETATM    7  C15         0      62.191   4.069   2.405  1.00  0.00     0.049 C 
HETATM    8  C16         0      62.740   5.299   2.064  1.00  0.00     0.093 C 
HETATM    9  C18         0      62.155   5.920   0.967  1.00  0.00     0.048 C 
HETATM   10  C19         0      60.867   5.585   0.571  1.00  0.00     0.096 C 
HETATM   11  C21         0      60.175   4.624   1.256  1.00  0.00     0.084 C 
ENDROOT
BRANCH  10  12
HETATM   12  O20         0      60.142   6.478  -0.212  1.00  0.00    -0.359 OA
HETATM   13  H20         0      59.202   6.519  -0.086  1.00  0.00     0.218 HD
ENDBRANCH  10  12
BRANCH   4  14
HETATM   14  C5          0      58.318   1.823   3.654  1.00  0.00     0.025 C 
HETATM   15  C6          0      59.026   1.007   4.524  1.00  0.00     0.004 C 
HETATM   16  C7          0      58.628   0.986   5.857  1.00  0.00     0.026 C 
HETATM   17  C8          0      57.482   1.647   6.286  1.00  0.00     0.112 C 
HETATM   18  C10         0      56.539   1.877   5.293  1.00  0.00     0.112 C 
HETATM   19  C12         0      56.976   1.979   3.978  1.00  0.00     0.028 C 
BRANCH  17  20
HETATM   20  O9          0      57.417   2.203   7.551  1.00  0.00    -0.357 OA
HETATM   21  H9          0      57.962   2.926   7.839  1.00  0.00     0.218 HD
ENDBRANCH  17  20
BRANCH  18  22
HETATM   22  O11         0      55.304   2.361   5.700  1.00  0.00    -0.357 OA
HETATM   23  H11         0      54.978   2.057   6.539  1.00  0.00     0.218 HD
ENDBRANCH  18  22
ENDBRANCH   4  14
BRANCH   8  24
HETATM   24  O17         0      63.570   5.997   2.948  1.00  0.00    -0.359 OA
HETATM   25  H17         0      63.851   6.887   2.771  1.00  0.00     0.218 HD
ENDBRANCH   8  24
TORSDOF 5
ENDMDL
MODEL 9
REMARK VINA RESULT:      -5.8      2.948      4.828
REMARK  5 active torsions:
REMARK  status: ('A' for Active; 'I' for Inactive)
REMARK    1  A    between atoms: C4_4  and  C5_5 
REMARK    2  A    between atoms: C8_8  and  O9_9 
REMARK    3  A    between atoms: C10_11  and  O11_12 
REMARK    4  A    between atoms: C16_18  and  O17_19 
REMARK    5  A    between atoms: C19_22  and  O20_23 
ROOT
HETATM    1  O1          0      57.815   5.990   0.475  1.00  0.00    -0.286 OA
HETATM    2  C2          0      58.308   4.917   0.920  1.00  0.00     0.201 C 
HETATM    3  C3          0      57.531   3.840   1.311  1.00  0.00     0.067 C 
HETATM    4  C4          0      58.093   2.710   1.894  1.00  0.00     0.103 C 
HETATM    5  O13         0      59.403   2.664   2.055  1.00  0.00    -0.307 OA
HETATM    6  C14         0      60.183   3.674   1.736  1.00  0.00     0.107 C 
HETATM    7  C15         0      61.463   3.801   2.254  1.00  0.00     0.049 C 
HETATM    8  C16         0      62.182   4.983   2.121  1.00  0.00     0.093 C 
HETATM    9  C18         0      61.808   5.779   1.044  1.00  0.00     0.048 C 
HETATM   10  C19         0      60.551   5.645   0.471  1.00  0.00     0.096 C 
HETATM   11  C21         0      59.678   4.711   0.959  1.00  0.00     0.084 C 
ENDROOT
BRANCH  10  12
HETATM   12  O20         0      60.031   6.694  -0.281  1.00  0.00    -0.359 OA
HETATM   13  H20         0      60.501   7.519  -0.279  1.00  0.00     0.218 HD
ENDBRANCH  10  12
BRANCH   4  14
HETATM   14  C5          0      57.244   1.929   2.795  1.00  0.00     0.025 C 
HETATM   15  C6          0      57.739   1.267   3.909  1.00  0.00     0.004 C 
HETATM   16  C7          0      56.955   1.264   5.059  1.00  0.00     0.026 C 
HETATM   17  C8          0      55.665   1.784   5.063  1.00  0.00     0.112 C 
HETATM   18  C10         0      55.053   1.827   3.818  1.00  0.00     0.112 C 
HETATM   19  C12         0      55.859   1.916   2.689  1.00  0.00     0.028 C 
BRANCH  17  20
HETATM   20  O9          0      55.151   2.393   6.194  1.00  0.00    -0.357 OA
HETATM   21  H9          0      55.679   2.652   6.941  1.00  0.00     0.218 HD
ENDBRANCH  17  20
BRANCH  18  22
HETATM   22  O11         0      53.706   2.158   3.791  1.00  0.00    -0.357 OA
HETATM   23  H11         0      53.491   3.080   3.713  1.00  0.00     0.218 HD
ENDBRANCH  18  22
ENDBRANCH   4  14
BRANCH   8  24
HETATM   24  O17         0      62.966   5.482   3.167  1.00  0.00    -0.359 OA
HETATM   25  H17         0      62.587   5.979   3.882  1.00  0.00     0.218 HD
ENDBRANCH   8  24
TORSDOF 5
ENDMDL
