MODEL 1
REMARK VINA RESULT:      -4.0      0.000      0.000
REMARK  5 active torsions:
REMARK  status: ('A' for Active; 'I' for Inactive)
REMARK    1  A    between atoms: C4_4  and  C5_5 
REMARK    2  A    between atoms: C8_8  and  O9_9 
REMARK    3  A    between atoms: C10_11  and  O11_12 
REMARK    4  A    between atoms: C16_18  and  O17_19 
REMARK    5  A    between atoms: C19_22  and  O20_23 
ROOT
HETATM    1  O1          0      47.363 115.786  13.501  1.00  0.00    -0.286 OA
HETATM    2  C2          0      46.347 115.549  12.792  1.00  0.00     0.201 C 
HETATM    3  C3          0      45.678 116.534  12.085  1.00  0.00     0.067 C 
HETATM    4  C4          0      44.502 116.264  11.396  1.00  0.00     0.103 C 
HETATM    5  O13         0      44.029 115.030  11.404  1.00  0.00    -0.307 OA
HETATM    6  C14         0      44.604 114.066  12.090  1.00  0.00     0.107 C 
HETATM    7  C15         0      43.924 112.906  12.430  1.00  0.00     0.049 C 
HETATM    8  C16         0      44.442 112.013  13.361  1.00  0.00     0.093 C 
HETATM    9  C18         0      45.824 112.052  13.505  1.00  0.00     0.048 C 
HETATM   10  C19         0      46.541 113.180  13.131  1.00  0.00     0.096 C 
HETATM   11  C21         0      45.884 114.256  12.599  1.00  0.00     0.084 C 
ENDROOT
BRANCH  10  12
HETATM   12  O20         0      47.809 113.388  13.664  1.00  0.00    -0.359 OA
HETATM   13  H20         0      48.544 112.952  13.248  1.00  0.00     0.218 HD
ENDBRANCH  10  12
BRANCH   4  14
HETATM   14  C5          0      43.567 117.375  11.205  1.00  0.00     0.025 C 
HETATM   15  C6          0      42.605 117.385  10.206  1.00  0.00     0.004 C 
HETATM   16  C7          0      41.361 117.926  10.515  1.00  0.00     0.026 C 
HETATM   17  C8          0      41.121 118.556  11.731  1.00  0.00     0.112 C 
HETATM   18  C10         0      42.256 119.046  12.364  1.00  0.00     0.112 C 
HETATM   19  C12         0      43.475 118.432  12.101  1.00  0.00     0.028 C 
BRANCH  17  20
HETATM   20  O9          0      39.875 118.493  12.329  1.00  0.00    -0.357 OA
HETATM   21  H9          0      39.147 117.992  11.980  1.00  0.00     0.218 HD
ENDBRANCH  17  20
BRANCH  18  22
HETATM   22  O11         0      42.057 119.846  13.480  1.00  0.00    -0.357 OA
HETATM   23  H11         0      41.362 119.589  14.075  1.00  0.00     0.218 HD
ENDBRANCH  18  22
ENDBRANCH   4  14
BRANCH   8  24
HETATM   24  O17         0      43.621 111.382  14.302  1.00  0.00    -0.359 OA
HETATM   25  H17         0      43.250 110.522  14.145  1.00  0.00     0.218 HD
ENDBRANCH   8  24
TORSDOF 5
ENDMDL
MODEL 2
REMARK VINA RESULT:      -3.6      1.813      6.778
REMARK  5 active torsions:
REMARK  status: ('A' for Active; 'I' for Inactive)
REMARK    1  A    between atoms: C4_4  and  C5_5 
REMARK    2  A    between atoms: C8_8  and  O9_9 
REMARK    3  A    between atoms: C10_11  and  O11_12 
REMARK    4  A    between atoms: C16_18  and  O17_19 
REMARK    5  A    between atoms: C19_22  and  O20_23 
ROOT
HETATM    1  O1          0      41.382 117.421   9.875  1.00  0.00    -0.286 OA
HETATM    2  C2          0      42.267 117.639  10.748  1.00  0.00     0.201 C 
HETATM    3  C3          0      43.310 116.763  10.993  1.00  0.00     0.067 C 
HETATM    4  C4          0      44.213 116.977  12.029  1.00  0.00     0.103 C 
HETATM    5  O13         0      44.074 118.057  12.779  1.00  0.00    -0.307 OA
HETATM    6  C14         0      43.079 118.901  12.612  1.00  0.00     0.107 C 
HETATM    7  C15         0      42.697 119.786  13.609  1.00  0.00     0.049 C 
HETATM    8  C16         0      41.501 120.489  13.530  1.00  0.00     0.093 C 
HETATM    9  C18         0      41.012 120.672  12.243  1.00  0.00     0.048 C 
HETATM   10  C19         0      41.410 119.833  11.211  1.00  0.00     0.096 C 
HETATM   11  C21         0      42.304 118.828  11.460  1.00  0.00     0.084 C 
ENDROOT
BRANCH  10  12
HETATM   12  O20         0      40.619 119.736  10.070  1.00  0.00    -0.359 OA
HETATM   13  H20         0      40.971 119.266   9.323  1.00  0.00     0.218 HD
ENDBRANCH  10  12
BRANCH   4  14
HETATM   14  C5          0      44.864 115.799  12.604  1.00  0.00     0.025 C 
HETATM   15  C6          0      44.895 115.547  13.968  1.00  0.00     0.004 C 
HETATM   16  C7          0      44.756 114.226  14.383  1.00  0.00     0.026 C 
HETATM   17  C8          0      44.723 113.176  13.472  1.00  0.00     0.112 C 
HETATM   18  C10         0      45.319 113.450  12.249  1.00  0.00     0.112 C 
HETATM   19  C12         0      45.369 114.770  11.819  1.00  0.00     0.028 C 
BRANCH  17  20
HETATM   20  O9          0      43.964 112.046  13.721  1.00  0.00    -0.357 OA
HETATM   21  H9          0      43.048 112.070  13.975  1.00  0.00     0.218 HD
ENDBRANCH  17  20
BRANCH  18  22
HETATM   22  O11         0      45.482 112.383  11.376  1.00  0.00    -0.357 OA
HETATM   23  H11         0      46.179 112.455  10.734  1.00  0.00     0.218 HD
ENDBRANCH  18  22
ENDBRANCH   4  14
BRANCH   8  24
HETATM   24  O17         0      40.697 120.690  14.658  1.00  0.00    -0.359 OA
HETATM   25  H17         0      39.750 120.624  14.615  1.00  0.00     0.218 HD
ENDBRANCH   8  24
TORSDOF 5
ENDMDL
MODEL 3
REMARK VINA RESULT:      -3.2      4.456      6.458
REMARK  5 active torsions:
REMARK  status: ('A' for Active; 'I' for Inactive)
REMARK    1  A    between atoms: C4_4  and  C5_5 
REMARK    2  A    between atoms: C8_8  and  O9_9 
REMARK    3  A    between atoms: C10_11  and  O11_12 
REMARK    4  A    between atoms: C16_18  and  O17_19 
REMARK    5  A    between atoms: C19_22  and  O20_23 
ROOT
HETATM    1  O1          0      42.378 115.549  18.116  1.00  0.00    -0.286 OA
HETATM    2  C2          0      42.990 114.507  17.753  1.00  0.00     0.201 C 
HETATM    3  C3          0      43.819 114.472  16.644  1.00  0.00     0.067 C 
HETATM    4  C4          0      44.400 113.288  16.206  1.00  0.00     0.103 C 
HETATM    5  O13         0      44.167 112.178  16.884  1.00  0.00    -0.307 OA
HETATM    6  C14         0      43.359 112.149  17.921  1.00  0.00     0.107 C 
HETATM    7  C15         0      42.801 110.964  18.380  1.00  0.00     0.049 C 
HETATM    8  C16         0      41.761 110.965  19.301  1.00  0.00     0.093 C 
HETATM    9  C18         0      41.688 112.099  20.102  1.00  0.00     0.048 C 
HETATM   10  C19         0      42.275 113.289  19.695  1.00  0.00     0.096 C 
HETATM   11  C21         0      42.947 113.342  18.504  1.00  0.00     0.084 C 
ENDROOT
BRANCH  10  12
HETATM   12  O20         0      41.842 114.488  20.253  1.00  0.00    -0.359 OA
HETATM   13  H20         0      42.501 115.097  20.565  1.00  0.00     0.218 HD
ENDBRANCH  10  12
BRANCH   4  14
HETATM   14  C5          0      44.729 113.189  14.783  1.00  0.00     0.025 C 
HETATM   15  C6          0      44.874 111.975  14.127  1.00  0.00     0.004 C 
HETATM   16  C7          0      44.392 111.885  12.825  1.00  0.00     0.026 C 
HETATM   17  C8          0      43.904 112.997  12.149  1.00  0.00     0.112 C 
HETATM   18  C10         0      44.375 114.215  12.621  1.00  0.00     0.112 C 
HETATM   19  C12         0      44.771 114.300  13.950  1.00  0.00     0.028 C 
BRANCH  17  20
HETATM   20  O9          0      42.875 112.875  11.232  1.00  0.00    -0.357 OA
HETATM   21  H9          0      42.889 112.268  10.501  1.00  0.00     0.218 HD
ENDBRANCH  17  20
BRANCH  18  22
HETATM   22  O11         0      44.072 115.341  11.868  1.00  0.00    -0.357 OA
HETATM   23  H11         0      44.151 116.182  12.301  1.00  0.00     0.218 HD
ENDBRANCH  18  22
ENDBRANCH   4  14
BRANCH   8  24
HETATM   24  O17         0      40.692 110.069  19.196  1.00  0.00    -0.359 OA
HETATM   25  H17         0      40.575 109.357  19.815  1.00  0.00     0.218 HD
ENDBRANCH   8  24
TORSDOF 5
ENDMDL
MODEL 4
REMARK VINA RESULT:      -3.1      2.648      2.995
REMARK  5 active torsions:
REMARK  status: ('A' for Active; 'I' for Inactive)
REMARK    1  A    between atoms: C4_4  and  C5_5 
REMARK    2  A    between atoms: C8_8  and  O9_9 
REMARK    3  A    between atoms: C10_11  and  O11_12 
REMARK    4  A    between atoms: C16_18  and  O17_19 
REMARK    5  A    between atoms: C19_22  and  O20_23 
ROOT
HETATM    1  O1          0      43.617 116.028  17.190  1.00  0.00    -0.286 OA
HETATM    2  C2          0      44.146 115.687  16.097  1.00  0.00     0.201 C 
HETATM    3  C3          0      44.370 116.580  15.062  1.00  0.00     0.067 C 
HETATM    4  C4          0      44.859 116.159  13.830  1.00  0.00     0.103 C 
HETATM    5  O13         0      45.133 114.877  13.660  1.00  0.00    -0.307 OA
HETATM    6  C14         0      44.903 113.983  14.597  1.00  0.00     0.107 C 
HETATM    7  C15         0      44.804 112.630  14.307  1.00  0.00     0.049 C 
HETATM    8  C16         0      44.314 111.726  15.242  1.00  0.00     0.093 C 
HETATM    9  C18         0      44.444 112.124  16.567  1.00  0.00     0.048 C 
HETATM   10  C19         0      44.592 113.466  16.890  1.00  0.00     0.096 C 
HETATM   11  C21         0      44.628 114.403  15.894  1.00  0.00     0.084 C 
ENDROOT
BRANCH  10  12
HETATM   12  O20         0      44.286 113.894  18.178  1.00  0.00    -0.359 OA
HETATM   13  H20         0      43.654 114.596  18.275  1.00  0.00     0.218 HD
ENDBRANCH  10  12
BRANCH   4  14
HETATM   14  C5          0      44.511 116.967  12.660  1.00  0.00     0.025 C 
HETATM   15  C6          0      44.681 116.517  11.359  1.00  0.00     0.004 C 
HETATM   16  C7          0      43.705 116.856  10.427  1.00  0.00     0.026 C 
HETATM   17  C8          0      42.664 117.722  10.743  1.00  0.00     0.112 C 
HETATM   18  C10         0      42.927 118.581  11.802  1.00  0.00     0.112 C 
HETATM   19  C12         0      43.845 118.181  12.765  1.00  0.00     0.028 C 
BRANCH  17  20
HETATM   20  O9          0      41.414 117.567  10.171  1.00  0.00    -0.357 OA
HETATM   21  H9          0      41.240 117.680   9.243  1.00  0.00     0.218 HD
ENDBRANCH  17  20
BRANCH  18  22
HETATM   22  O11         0      42.003 119.590  12.037  1.00  0.00    -0.357 OA
HETATM   23  H11         0      42.245 120.467  11.764  1.00  0.00     0.218 HD
ENDBRANCH  18  22
ENDBRANCH   4  14
BRANCH   8  24
HETATM   24  O17         0      43.465 110.678  14.868  1.00  0.00    -0.359 OA
HETATM   25  H17         0      42.724 110.818  14.291  1.00  0.00     0.218 HD
ENDBRANCH   8  24
TORSDOF 5
ENDMDL
MODEL 5
REMARK VINA RESULT:      -3.0      2.194      6.357
REMARK  5 active torsions:
REMARK  status: ('A' for Active; 'I' for Inactive)
REMARK    1  A    between atoms: C4_4  and  C5_5 
REMARK    2  A    between atoms: C8_8  and  O9_9 
REMARK    3  A    between atoms: C10_11  and  O11_12 
REMARK    4  A    between atoms: C16_18  and  O17_19 
REMARK    5  A    between atoms: C19_22  and  O20_23 
ROOT
HETATM    1  O1          0      43.095 119.223  11.468  1.00  0.00    -0.286 OA
HETATM    2  C2          0      43.629 118.551  12.393  1.00  0.00     0.201 C 
HETATM    3  C3          0      44.381 117.413  12.156  1.00  0.00     0.067 C 
HETATM    4  C4          0      44.872 116.634  13.197  1.00  0.00     0.103 C 
HETATM    5  O13         0      44.627 117.009  14.440  1.00  0.00    -0.307 OA
HETATM    6  C14         0      43.887 118.060  14.721  1.00  0.00     0.107 C 
HETATM    7  C15         0      43.301 118.229  15.967  1.00  0.00     0.049 C 
HETATM    8  C16         0      42.324 119.195  16.179  1.00  0.00     0.093 C 
HETATM    9  C18         0      42.361 120.270  15.299  1.00  0.00     0.048 C 
HETATM   10  C19         0      42.981 120.149  14.063  1.00  0.00     0.096 C 
HETATM   11  C21         0      43.575 118.967  13.714  1.00  0.00     0.084 C 
ENDROOT
BRANCH  10  12
HETATM   12  O20         0      42.646 121.036  13.045  1.00  0.00    -0.359 OA
HETATM   13  H20         0      43.351 121.497  12.607  1.00  0.00     0.218 HD
ENDBRANCH  10  12
BRANCH   4  14
HETATM   14  C5          0      45.102 115.215  12.921  1.00  0.00     0.025 C 
HETATM   15  C6          0      45.943 114.426  13.692  1.00  0.00     0.004 C 
HETATM   16  C7          0      45.550 113.114  13.938  1.00  0.00     0.026 C 
HETATM   17  C8          0      44.428 112.562  13.329  1.00  0.00     0.112 C 
HETATM   18  C10         0      44.049 113.180  12.144  1.00  0.00     0.112 C 
HETATM   19  C12         0      44.381 114.517  11.961  1.00  0.00     0.028 C 
BRANCH  17  20
HETATM   20  O9          0      43.657 111.620  13.985  1.00  0.00    -0.357 OA
HETATM   21  H9          0      43.880 111.253  14.833  1.00  0.00     0.218 HD
ENDBRANCH  17  20
BRANCH  18  22
HETATM   22  O11         0      43.057 112.557  11.401  1.00  0.00    -0.357 OA
HETATM   23  H11         0      43.119 111.613  11.306  1.00  0.00     0.218 HD
ENDBRANCH  18  22
ENDBRANCH   4  14
BRANCH   8  24
HETATM   24  O17         0      41.206 118.937  16.980  1.00  0.00    -0.359 OA
HETATM   25  H17         0      41.105 118.116  17.447  1.00  0.00     0.218 HD
ENDBRANCH   8  24
TORSDOF 5
ENDMDL
MODEL 6
REMARK VINA RESULT:      -3.0      2.281      2.824
REMARK  5 active torsions:
REMARK  status: ('A' for Active; 'I' for Inactive)
REMARK    1  A    between atoms: C4_4  and  C5_5 
REMARK    2  A    between atoms: C8_8  and  O9_9 
REMARK    3  A    between atoms: C10_11  and  O11_12 
REMARK    4  A    between atoms: C16_18  and  O17_19 
REMARK    5  A    between atoms: C19_22  and  O20_23 
ROOT
HETATM    1  O1          0      44.171 115.036  16.476  1.00  0.00    -0.286 OA
HETATM    2  C2          0      44.402 115.580  15.362  1.00  0.00     0.201 C 
HETATM    3  C3          0      44.491 116.952  15.201  1.00  0.00     0.067 C 
HETATM    4  C4          0      44.645 117.531  13.946  1.00  0.00     0.103 C 
HETATM    5  O13         0      44.728 116.741  12.890  1.00  0.00    -0.307 OA
HETATM    6  C14         0      44.612 115.435  12.982  1.00  0.00     0.107 C 
HETATM    7  C15         0      44.299 114.649  11.882  1.00  0.00     0.049 C 
HETATM    8  C16         0      43.930 113.317  12.029  1.00  0.00     0.093 C 
HETATM    9  C18         0      44.393 112.703  13.186  1.00  0.00     0.048 C 
HETATM   10  C19         0      44.760 113.462  14.289  1.00  0.00     0.096 C 
HETATM   11  C21         0      44.679 114.827  14.231  1.00  0.00     0.084 C 
ENDROOT
BRANCH  10  12
HETATM   12  O20         0      44.797 112.864  15.545  1.00  0.00    -0.359 OA
HETATM   13  H20         0      44.778 111.915  15.586  1.00  0.00     0.218 HD
ENDBRANCH  10  12
BRANCH   4  14
HETATM   14  C5          0      44.139 118.893  13.770  1.00  0.00     0.025 C 
HETATM   15  C6          0      44.412 119.657  12.644  1.00  0.00     0.004 C 
HETATM   16  C7          0      43.392 120.465  12.152  1.00  0.00     0.026 C 
HETATM   17  C8          0      42.187 120.614  12.830  1.00  0.00     0.112 C 
HETATM   18  C10         0      42.251 120.346  14.191  1.00  0.00     0.112 C 
HETATM   19  C12         0      43.227 119.468  14.646  1.00  0.00     0.028 C 
BRANCH  17  20
HETATM   20  O9          0      41.004 120.805  12.139  1.00  0.00    -0.357 OA
HETATM   21  H9          0      40.356 120.123  12.002  1.00  0.00     0.218 HD
ENDBRANCH  17  20
BRANCH  18  22
HETATM   22  O11         0      41.130 120.660  14.946  1.00  0.00    -0.357 OA
HETATM   23  H11         0      41.202 121.403  15.534  1.00  0.00     0.218 HD
ENDBRANCH  18  22
ENDBRANCH   4  14
BRANCH   8  24
HETATM   24  O17         0      42.907 112.755  11.257  1.00  0.00    -0.359 OA
HETATM   25  H17         0      42.829 112.932  10.327  1.00  0.00     0.218 HD
ENDBRANCH   8  24
TORSDOF 5
ENDMDL
MODEL 7
REMARK VINA RESULT:      -3.0      4.197      6.778
REMARK  5 active torsions:
REMARK  status: ('A' for Active; 'I' for Inactive)
REMARK    1  A    between atoms: C4_4  and  C5_5 
REMARK    2  A    between atoms: C8_8  and  O9_9 
REMARK    3  A    between atoms: C10_11  and  O11_12 
REMARK    4  A    between atoms: C16_18  and  O17_19 
REMARK    5  A    between atoms: C19_22  and  O20_23 
ROOT
HETATM    1  O1          0      42.425 115.822  16.924  1.00  0.00    -0.286 OA
HETATM    2  C2          0      42.995 114.718  16.705  1.00  0.00     0.201 C 
HETATM    3  C3          0      44.102 114.595  15.882  1.00  0.00     0.067 C 
HETATM    4  C4          0      44.647 113.353  15.576  1.00  0.00     0.103 C 
HETATM    5  O13         0      44.101 112.272  16.105  1.00  0.00    -0.307 OA
HETATM    6  C14         0      43.028 112.330  16.862  1.00  0.00     0.107 C 
HETATM    7  C15         0      42.229 111.217  17.084  1.00  0.00     0.049 C 
HETATM    8  C16         0      40.973 111.336  17.666  1.00  0.00     0.093 C 
HETATM    9  C18         0      40.798 112.461  18.463  1.00  0.00     0.048 C 
HETATM   10  C19         0      41.610 113.574  18.298  1.00  0.00     0.096 C 
HETATM   11  C21         0      42.602 113.558  17.356  1.00  0.00     0.084 C 
ENDROOT
BRANCH  10  12
HETATM   12  O20         0      41.172 114.810  18.763  1.00  0.00    -0.359 OA
HETATM   13  H20         0      40.632 115.337  18.187  1.00  0.00     0.218 HD
ENDBRANCH  10  12
BRANCH   4  14
HETATM   14  C5          0      45.364 113.231  14.305  1.00  0.00     0.025 C 
HETATM   15  C6          0      46.744 113.115  14.228  1.00  0.00     0.004 C 
HETATM   16  C7          0      47.266 112.258  13.264  1.00  0.00     0.026 C 
HETATM   17  C8          0      46.452 111.641  12.319  1.00  0.00     0.112 C 
HETATM   18  C10         0      45.248 112.289  12.079  1.00  0.00     0.112 C 
HETATM   19  C12         0      44.706 113.072  13.092  1.00  0.00     0.028 C 
BRANCH  17  20
HETATM   20  O9          0      46.754 110.379  11.840  1.00  0.00    -0.357 OA
HETATM   21  H9          0      47.623 109.996  11.873  1.00  0.00     0.218 HD
ENDBRANCH  17  20
BRANCH  18  22
HETATM   22  O11         0      44.486 111.825  11.017  1.00  0.00    -0.357 OA
HETATM   23  H11         0      43.559 111.689  11.179  1.00  0.00     0.218 HD
ENDBRANCH  18  22
ENDBRANCH   4  14
BRANCH   8  24
HETATM   24  O17         0      39.886 110.578  17.215  1.00  0.00    -0.359 OA
HETATM   25  H17         0      39.833 110.265  16.320  1.00  0.00     0.218 HD
ENDBRANCH   8  24
TORSDOF 5
ENDMDL
MODEL 8
REMARK VINA RESULT:      -2.9      2.825      5.373
REMARK  5 active torsions:
REMARK  status: ('A' for Active; 'I' for Inactive)
REMARK    1  A    between atoms: C4_4  and  C5_5 
REMARK    2  A    between atoms: C8_8  and  O9_9 
REMARK    3  A    between atoms: C10_11  and  O11_12 
REMARK    4  A    between atoms: C16_18  and  O17_19 
REMARK    5  A    between atoms: C19_22  and  O20_23 
ROOT
HETATM    1  O1          0      43.516 115.369  11.253  1.00  0.00    -0.286 OA
HETATM    2  C2          0      44.588 115.127  11.872  1.00  0.00     0.201 C 
HETATM    3  C3          0      45.375 116.121  12.428  1.00  0.00     0.067 C 
HETATM    4  C4          0      46.603 115.835  13.015  1.00  0.00     0.103 C 
HETATM    5  O13         0      47.009 114.578  13.056  1.00  0.00    -0.307 OA
HETATM    6  C14         0      46.318 113.602  12.510  1.00  0.00     0.107 C 
HETATM    7  C15         0      46.900 112.382  12.196  1.00  0.00     0.049 C 
HETATM    8  C16         0      46.243 111.454  11.396  1.00  0.00     0.093 C 
HETATM    9  C18         0      44.857 111.562  11.389  1.00  0.00     0.048 C 
HETATM   10  C19         0      44.241 112.754  11.743  1.00  0.00     0.096 C 
HETATM   11  C21         0      45.003 113.827  12.120  1.00  0.00     0.084 C 
ENDROOT
BRANCH  10  12
HETATM   12  O20         0      42.936 112.996  11.326  1.00  0.00    -0.359 OA
HETATM   13  H20         0      42.265 112.374  11.582  1.00  0.00     0.218 HD
ENDBRANCH  10  12
BRANCH   4  14
HETATM   14  C5          0      47.606 116.901  13.021  1.00  0.00     0.025 C 
HETATM   15  C6          0      48.734 116.867  13.828  1.00  0.00     0.004 C 
HETATM   16  C7          0      49.925 117.348  13.292  1.00  0.00     0.026 C 
HETATM   17  C8          0      49.967 117.966  12.047  1.00  0.00     0.112 C 
HETATM   18  C10         0      48.759 118.508  11.628  1.00  0.00     0.112 C 
HETATM   19  C12         0      47.582 117.952  12.114  1.00  0.00     0.028 C 
BRANCH  17  20
HETATM   20  O9          0      51.078 117.844  11.232  1.00  0.00    -0.357 OA
HETATM   21  H9          0      51.837 117.314  11.450  1.00  0.00     0.218 HD
ENDBRANCH  17  20
BRANCH  18  22
HETATM   22  O11         0      48.787 119.297  10.487  1.00  0.00    -0.357 OA
HETATM   23  H11         0      49.452 119.975  10.449  1.00  0.00     0.218 HD
ENDBRANCH  18  22
ENDBRANCH   4  14
BRANCH   8  24
HETATM   24  O17         0      46.928 110.710  10.429  1.00  0.00    -0.359 OA
HETATM   25  H17         0      47.156 111.079   9.584  1.00  0.00     0.218 HD
ENDBRANCH   8  24
TORSDOF 5
ENDMDL
MODEL 9
REMARK VINA RESULT:      -2.9      3.815      5.943
REMARK  5 active torsions:
REMARK  status: ('A' for Active; 'I' for Inactive)
REMARK    1  A    between atoms: C4_4  and  C5_5 
REMARK    2  A    between atoms: C8_8  and  O9_9 
REMARK    3  A    between atoms: C10_11  and  O11_12 
REMARK    4  A    between atoms: C16_18  and  O17_19 
REMARK    5  A    between atoms: C19_22  and  O20_23 
ROOT
HETATM    1  O1          0      46.077 112.690  18.504  1.00  0.00    -0.286 OA
HETATM    2  C2          0      45.270 112.323  17.606  1.00  0.00     0.201 C 
HETATM    3  C3          0      45.611 112.273  16.265  1.00  0.00     0.067 C 
HETATM    4  C4          0      44.674 111.963  15.286  1.00  0.00     0.103 C 
HETATM    5  O13         0      43.435 111.692  15.657  1.00  0.00    -0.307 OA
HETATM    6  C14         0      43.049 111.761  16.912  1.00  0.00     0.107 C 
HETATM    7  C15         0      41.711 111.875  17.261  1.00  0.00     0.049 C 
HETATM    8  C16         0      41.329 112.202  18.556  1.00  0.00     0.093 C 
HETATM    9  C18         0      42.257 111.885  19.540  1.00  0.00     0.048 C 
HETATM   10  C19         0      43.597 111.718  19.218  1.00  0.00     0.096 C 
HETATM   11  C21         0      44.005 111.850  17.919  1.00  0.00     0.084 C 
ENDROOT
BRANCH  10  12
HETATM   12  O20         0      44.557 111.838  20.219  1.00  0.00    -0.359 OA
HETATM   13  H20         0      45.022 111.055  20.485  1.00  0.00     0.218 HD
ENDBRANCH  10  12
BRANCH   4  14
HETATM   14  C5          0      44.907 112.498  13.943  1.00  0.00     0.025 C 
HETATM   15  C6          0      44.212 112.055  12.827  1.00  0.00     0.004 C 
HETATM   16  C7          0      43.854 113.002  11.873  1.00  0.00     0.026 C 
HETATM   17  C8          0      44.285 114.322  11.957  1.00  0.00     0.112 C 
HETATM   18  C10         0      45.440 114.507  12.705  1.00  0.00     0.112 C 
HETATM   19  C12         0      45.730 113.592  13.710  1.00  0.00     0.028 C 
BRANCH  17  20
HETATM   20  O9          0      43.490 115.358  11.502  1.00  0.00    -0.357 OA
HETATM   21  H9          0      42.614 115.237  11.152  1.00  0.00     0.218 HD
ENDBRANCH  17  20
BRANCH  18  22
HETATM   22  O11         0      46.018 115.768  12.666  1.00  0.00    -0.357 OA
HETATM   23  H11         0      46.246 116.163  13.500  1.00  0.00     0.218 HD
ENDBRANCH  18  22
ENDBRANCH   4  14
BRANCH   8  24
HETATM   24  O17         0      40.263 113.075  18.803  1.00  0.00    -0.359 OA
HETATM   25  H17         0      39.801 113.511  18.097  1.00  0.00     0.218 HD
ENDBRANCH   8  24
TORSDOF 5
ENDMDL
