MODEL 1
REMARK VINA RESULT:      -1.8      0.000      0.000
REMARK  5 active torsions:
REMARK  status: ('A' for Active; 'I' for Inactive)
REMARK    1  A    between atoms: C4_4  and  C5_5 
REMARK    2  A    between atoms: C8_8  and  O9_9 
REMARK    3  A    between atoms: C10_11  and  O11_12 
REMARK    4  A    between atoms: C16_18  and  O17_19 
REMARK    5  A    between atoms: C19_22  and  O20_23 
ROOT
HETATM    1  O1          0      61.237  44.742 -14.928  1.00  0.00    -0.286 OA
HETATM    2  C2          0      60.807  44.635 -13.747  1.00  0.00     0.201 C 
HETATM    3  C3          0      60.706  45.714 -12.885  1.00  0.00     0.067 C 
HETATM    4  C4          0      60.327  45.553 -11.557  1.00  0.00     0.103 C 
HETATM    5  O13         0      60.038  44.339 -11.123  1.00  0.00    -0.307 OA
HETATM    6  C14         0      60.152  43.276 -11.889  1.00  0.00     0.107 C 
HETATM    7  C15         0      60.244  41.998 -11.357  1.00  0.00     0.049 C 
HETATM    8  C16         0      60.618  40.915 -12.143  1.00  0.00     0.093 C 
HETATM    9  C18         0      60.372  41.063 -13.503  1.00  0.00     0.048 C 
HETATM   10  C19         0      60.229  42.326 -14.060  1.00  0.00     0.096 C 
HETATM   11  C21         0      60.313  43.434 -13.261  1.00  0.00     0.084 C 
ENDROOT
BRANCH  10  12
HETATM   12  O20         0      60.421  42.492 -15.428  1.00  0.00    -0.359 OA
HETATM   13  H20         0      59.680  42.777 -15.950  1.00  0.00     0.218 HD
ENDBRANCH  10  12
BRANCH   4  14
HETATM   14  C5          0      60.807  46.549 -10.597  1.00  0.00     0.025 C 
HETATM   15  C6          0      62.112  46.572 -10.126  1.00  0.00     0.004 C 
HETATM   16  C7          0      62.708  47.815  -9.939  1.00  0.00     0.026 C 
HETATM   17  C8          0      61.991  48.997 -10.086  1.00  0.00     0.112 C 
HETATM   18  C10         0      60.617  48.866  -9.927  1.00  0.00     0.112 C 
HETATM   19  C12         0      60.035  47.634 -10.203  1.00  0.00     0.028 C 
BRANCH  17  20
HETATM   20  O9          0      62.603  50.143 -10.561  1.00  0.00    -0.357 OA
HETATM   21  H9          0      62.140  50.842 -11.010  1.00  0.00     0.218 HD
ENDBRANCH  17  20
BRANCH  18  22
HETATM   22  O11         0      59.876  50.038  -9.875  1.00  0.00    -0.357 OA
HETATM   23  H11         0      58.966  49.983 -10.144  1.00  0.00     0.218 HD
ENDBRANCH  18  22
ENDBRANCH   4  14
BRANCH   8  24
HETATM   24  O17         0      61.471  39.919 -11.654  1.00  0.00    -0.359 OA
HETATM   25  H17         0      61.717  39.169 -12.182  1.00  0.00     0.218 HD
ENDBRANCH   8  24
TORSDOF 5
ENDMDL
MODEL 2
REMARK VINA RESULT:      -1.7      2.073      7.027
REMARK  5 active torsions:
REMARK  status: ('A' for Active; 'I' for Inactive)
REMARK    1  A    between atoms: C4_4  and  C5_5 
REMARK    2  A    between atoms: C8_8  and  O9_9 
REMARK    3  A    between atoms: C10_11  and  O11_12 
REMARK    4  A    between atoms: C16_18  and  O17_19 
REMARK    5  A    between atoms: C19_22  and  O20_23 
ROOT
HETATM    1  O1          0      65.215  47.501 -10.934  1.00  0.00    -0.286 OA
HETATM    2  C2          0      64.129  46.970 -10.575  1.00  0.00     0.201 C 
HETATM    3  C3          0      63.926  45.601 -10.578  1.00  0.00     0.067 C 
HETATM    4  C4          0      62.687  45.047 -10.277  1.00  0.00     0.103 C 
HETATM    5  O13         0      61.690  45.855  -9.962  1.00  0.00    -0.307 OA
HETATM    6  C14         0      61.819  47.164  -9.980  1.00  0.00     0.107 C 
HETATM    7  C15         0      60.718  48.005 -10.047  1.00  0.00     0.049 C 
HETATM    8  C16         0      60.861  49.360 -10.322  1.00  0.00     0.093 C 
HETATM    9  C18         0      62.101  49.897  -9.997  1.00  0.00     0.048 C 
HETATM   10  C19         0      63.215  49.077  -9.876  1.00  0.00     0.096 C 
HETATM   11  C21         0      63.088  47.727 -10.060  1.00  0.00     0.084 C 
ENDROOT
BRANCH  10  12
HETATM   12  O20         0      64.485  49.634  -9.987  1.00  0.00    -0.359 OA
HETATM   13  H20         0      65.132  49.168 -10.503  1.00  0.00     0.218 HD
ENDBRANCH  10  12
BRANCH   4  14
HETATM   14  C5          0      62.377  43.740 -10.861  1.00  0.00     0.025 C 
HETATM   15  C6          0      61.172  43.465 -11.491  1.00  0.00     0.004 C 
HETATM   16  C7          0      61.207  42.660 -12.625  1.00  0.00     0.026 C 
HETATM   17  C8          0      62.379  42.038 -13.042  1.00  0.00     0.112 C 
HETATM   18  C10         0      63.326  41.854 -12.043  1.00  0.00     0.112 C 
HETATM   19  C12         0      63.322  42.727 -10.961  1.00  0.00     0.028 C 
BRANCH  17  20
HETATM   20  O9          0      62.632  41.829 -14.387  1.00  0.00    -0.357 OA
HETATM   21  H9          0      62.843  40.981 -14.759  1.00  0.00     0.218 HD
ENDBRANCH  17  20
BRANCH  18  22
HETATM   22  O11         0      64.429  41.074 -12.358  1.00  0.00    -0.357 OA
HETATM   23  H11         0      64.335  40.469 -13.084  1.00  0.00     0.218 HD
ENDBRANCH  18  22
ENDBRANCH   4  14
BRANCH   8  24
HETATM   24  O17         0      59.964  50.033 -11.159  1.00  0.00    -0.359 OA
HETATM   25  H17         0      59.200  50.480 -10.815  1.00  0.00     0.218 HD
ENDBRANCH   8  24
TORSDOF 5
ENDMDL
MODEL 3
REMARK VINA RESULT:      -1.6      2.450      3.241
REMARK  5 active torsions:
REMARK  status: ('A' for Active; 'I' for Inactive)
REMARK    1  A    between atoms: C4_4  and  C5_5 
REMARK    2  A    between atoms: C8_8  and  O9_9 
REMARK    3  A    between atoms: C10_11  and  O11_12 
REMARK    4  A    between atoms: C16_18  and  O17_19 
REMARK    5  A    between atoms: C19_22  and  O20_23 
ROOT
HETATM    1  O1          0      60.181  42.863 -12.628  1.00  0.00    -0.286 OA
HETATM    2  C2          0      61.007  43.393 -11.836  1.00  0.00     0.201 C 
HETATM    3  C3          0      61.008  44.747 -11.548  1.00  0.00     0.067 C 
HETATM    4  C4          0      61.992  45.322 -10.753  1.00  0.00     0.103 C 
HETATM    5  O13         0      62.934  44.545 -10.246  1.00  0.00    -0.307 OA
HETATM    6  C14         0      63.001  43.260 -10.518  1.00  0.00     0.107 C 
HETATM    7  C15         0      64.169  42.534 -10.336  1.00  0.00     0.049 C 
HETATM    8  C16         0      64.312  41.254 -10.857  1.00  0.00     0.093 C 
HETATM    9  C18         0      63.120  40.571 -11.072  1.00  0.00     0.048 C 
HETATM   10  C19         0      61.926  41.264 -11.212  1.00  0.00     0.096 C 
HETATM   11  C21         0      61.918  42.629 -11.122  1.00  0.00     0.084 C 
ENDROOT
BRANCH  10  12
HETATM   12  O20         0      60.851  40.646 -11.844  1.00  0.00    -0.359 OA
HETATM   13  H20         0      60.280  41.184 -12.378  1.00  0.00     0.218 HD
ENDBRANCH  10  12
BRANCH   4  14
HETATM   14  C5          0      62.292  46.738 -10.975  1.00  0.00     0.025 C 
HETATM   15  C6          0      61.857  47.742 -10.122  1.00  0.00     0.004 C 
HETATM   16  C7          0      62.726  48.800  -9.877  1.00  0.00     0.026 C 
HETATM   17  C8          0      63.931  48.927 -10.559  1.00  0.00     0.112 C 
HETATM   18  C10         0      63.976  48.275 -11.784  1.00  0.00     0.112 C 
HETATM   19  C12         0      63.158  47.168 -11.972  1.00  0.00     0.028 C 
BRANCH  17  20
HETATM   20  O9          0      65.039  49.482  -9.943  1.00  0.00    -0.357 OA
HETATM   21  H9          0      65.060  49.744  -9.030  1.00  0.00     0.218 HD
ENDBRANCH  17  20
BRANCH  18  22
HETATM   22  O11         0      65.079  48.524 -12.588  1.00  0.00    -0.357 OA
HETATM   23  H11         0      65.698  47.812 -12.701  1.00  0.00     0.218 HD
ENDBRANCH  18  22
ENDBRANCH   4  14
BRANCH   8  24
HETATM   24  O17         0      65.516  40.830 -11.429  1.00  0.00    -0.359 OA
HETATM   25  H17         0      65.602  39.976 -11.836  1.00  0.00     0.218 HD
ENDBRANCH   8  24
TORSDOF 5
ENDMDL
MODEL 4
REMARK VINA RESULT:      -1.5      2.364      2.820
REMARK  5 active torsions:
REMARK  status: ('A' for Active; 'I' for Inactive)
REMARK    1  A    between atoms: C4_4  and  C5_5 
REMARK    2  A    between atoms: C8_8  and  O9_9 
REMARK    3  A    between atoms: C10_11  and  O11_12 
REMARK    4  A    between atoms: C16_18  and  O17_19 
REMARK    5  A    between atoms: C19_22  and  O20_23 
ROOT
HETATM    1  O1          0      61.860  44.789 -16.050  1.00  0.00    -0.286 OA
HETATM    2  C2          0      61.748  44.072 -15.018  1.00  0.00     0.201 C 
HETATM    3  C3          0      61.295  44.565 -13.806  1.00  0.00     0.067 C 
HETATM    4  C4          0      61.279  43.778 -12.660  1.00  0.00     0.103 C 
HETATM    5  O13         0      61.691  42.526 -12.744  1.00  0.00    -0.307 OA
HETATM    6  C14         0      62.166  42.019 -13.860  1.00  0.00     0.107 C 
HETATM    7  C15         0      62.953  40.876 -13.868  1.00  0.00     0.049 C 
HETATM    8  C16         0      63.658  40.493 -15.003  1.00  0.00     0.093 C 
HETATM    9  C18         0      63.137  40.961 -16.203  1.00  0.00     0.048 C 
HETATM   10  C19         0      62.308  42.074 -16.226  1.00  0.00     0.096 C 
HETATM   11  C21         0      61.988  42.707 -15.056  1.00  0.00     0.084 C 
ENDROOT
BRANCH  10  12
HETATM   12  O20         0      62.153  42.782 -17.414  1.00  0.00    -0.359 OA
HETATM   13  H20         0      61.562  42.429 -18.069  1.00  0.00     0.218 HD
ENDBRANCH  10  12
BRANCH   4  14
HETATM   14  C5          0      61.381  44.469 -11.373  1.00  0.00     0.025 C 
HETATM   15  C6          0      62.516  44.414 -10.577  1.00  0.00     0.004 C 
HETATM   16  C7          0      62.889  45.573  -9.905  1.00  0.00     0.026 C 
HETATM   17  C8          0      62.089  46.711  -9.914  1.00  0.00     0.112 C 
HETATM   18  C10         0      60.746  46.473 -10.176  1.00  0.00     0.112 C 
HETATM   19  C12         0      60.407  45.352 -10.923  1.00  0.00     0.028 C 
BRANCH  17  20
HETATM   20  O9          0      62.652  47.974  -9.875  1.00  0.00    -0.357 OA
HETATM   21  H9          0      63.139  48.357 -10.596  1.00  0.00     0.218 HD
ENDBRANCH  17  20
BRANCH  18  22
HETATM   22  O11         0      59.875  47.541 -10.011  1.00  0.00    -0.357 OA
HETATM   23  H11         0      59.026  47.472 -10.432  1.00  0.00     0.218 HD
ENDBRANCH  18  22
ENDBRANCH   4  14
BRANCH   8  24
HETATM   24  O17         0      64.955  39.976 -14.915  1.00  0.00    -0.359 OA
HETATM   25  H17         0      65.565  40.034 -15.641  1.00  0.00     0.218 HD
ENDBRANCH   8  24
TORSDOF 5
ENDMDL
MODEL 5
REMARK VINA RESULT:      -1.5      2.556      7.463
REMARK  5 active torsions:
REMARK  status: ('A' for Active; 'I' for Inactive)
REMARK    1  A    between atoms: C4_4  and  C5_5 
REMARK    2  A    between atoms: C8_8  and  O9_9 
REMARK    3  A    between atoms: C10_11  and  O11_12 
REMARK    4  A    between atoms: C16_18  and  O17_19 
REMARK    5  A    between atoms: C19_22  and  O20_23 
ROOT
HETATM    1  O1          0      64.942  49.766 -11.953  1.00  0.00    -0.286 OA
HETATM    2  C2          0      63.797  49.631 -11.441  1.00  0.00     0.201 C 
HETATM    3  C3          0      63.410  48.492 -10.756  1.00  0.00     0.067 C 
HETATM    4  C4          0      62.111  48.327 -10.291  1.00  0.00     0.103 C 
HETATM    5  O13         0      61.236  49.297 -10.494  1.00  0.00    -0.307 OA
HETATM    6  C14         0      61.541  50.382 -11.170  1.00  0.00     0.107 C 
HETATM    7  C15         0      60.564  51.196 -11.725  1.00  0.00     0.049 C 
HETATM    8  C16         0      60.886  52.188 -12.643  1.00  0.00     0.093 C 
HETATM    9  C18         0      62.191  52.660 -12.564  1.00  0.00     0.048 C 
HETATM   10  C19         0      63.184  51.891 -11.972  1.00  0.00     0.096 C 
HETATM   11  C21         0      62.873  50.665 -11.449  1.00  0.00     0.084 C 
ENDROOT
BRANCH  10  12
HETATM   12  O20         0      64.517  52.152 -12.275  1.00  0.00    -0.359 OA
HETATM   13  H20         0      64.702  52.767 -12.974  1.00  0.00     0.218 HD
ENDBRANCH  10  12
BRANCH   4  14
HETATM   14  C5          0      61.621  46.955 -10.143  1.00  0.00     0.025 C 
HETATM   15  C6          0      60.275  46.626 -10.212  1.00  0.00     0.004 C 
HETATM   16  C7          0      59.934  45.437 -10.850  1.00  0.00     0.026 C 
HETATM   17  C8          0      60.902  44.539 -11.285  1.00  0.00     0.112 C 
HETATM   18  C10         0      62.122  44.639 -10.629  1.00  0.00     0.112 C 
HETATM   19  C12         0      62.476  45.863 -10.074  1.00  0.00     0.028 C 
BRANCH  17  20
HETATM   20  O9          0      60.701  43.775 -12.421  1.00  0.00    -0.357 OA
HETATM   21  H9          0      61.002  44.027 -13.287  1.00  0.00     0.218 HD
ENDBRANCH  17  20
BRANCH  18  22
HETATM   22  O11         0      63.058  43.648 -10.890  1.00  0.00    -0.357 OA
HETATM   23  H11         0      63.817  43.613 -10.319  1.00  0.00     0.218 HD
ENDBRANCH  18  22
ENDBRANCH   4  14
BRANCH   8  24
HETATM   24  O17         0      60.080  52.438 -13.760  1.00  0.00    -0.359 OA
HETATM   25  H17         0      59.475  53.170 -13.784  1.00  0.00     0.218 HD
ENDBRANCH   8  24
TORSDOF 5
ENDMDL
MODEL 6
REMARK VINA RESULT:      -1.4      2.911      7.433
REMARK  5 active torsions:
REMARK  status: ('A' for Active; 'I' for Inactive)
REMARK    1  A    between atoms: C4_4  and  C5_5 
REMARK    2  A    between atoms: C8_8  and  O9_9 
REMARK    3  A    between atoms: C10_11  and  O11_12 
REMARK    4  A    between atoms: C16_18  and  O17_19 
REMARK    5  A    between atoms: C19_22  and  O20_23 
ROOT
HETATM    1  O1          0      66.728  47.455 -11.500  1.00  0.00    -0.286 OA
HETATM    2  C2          0      65.598  47.838 -11.090  1.00  0.00     0.201 C 
HETATM    3  C3          0      64.687  46.982 -10.494  1.00  0.00     0.067 C 
HETATM    4  C4          0      63.410  47.407 -10.144  1.00  0.00     0.103 C 
HETATM    5  O13         0      63.075  48.664 -10.372  1.00  0.00    -0.307 OA
HETATM    6  C14         0      63.888  49.508 -10.969  1.00  0.00     0.107 C 
HETATM    7  C15         0      63.426  50.673 -11.564  1.00  0.00     0.049 C 
HETATM    8  C16         0      64.237  51.425 -12.405  1.00  0.00     0.093 C 
HETATM    9  C18         0      65.602  51.271 -12.197  1.00  0.00     0.048 C 
HETATM   10  C19         0      66.095  50.138 -11.563  1.00  0.00     0.096 C 
HETATM   11  C21         0      65.229  49.174 -11.125  1.00  0.00     0.084 C 
ENDROOT
BRANCH  10  12
HETATM   12  O20         0      67.429  49.784 -11.743  1.00  0.00    -0.359 OA
HETATM   13  H20         0      67.998  50.403 -12.185  1.00  0.00     0.218 HD
ENDBRANCH  10  12
BRANCH   4  14
HETATM   14  C5          0      62.355  46.393 -10.102  1.00  0.00     0.025 C 
HETATM   15  C6          0      61.009  46.711  -9.991  1.00  0.00     0.004 C 
HETATM   16  C7          0      60.103  45.944 -10.716  1.00  0.00     0.026 C 
HETATM   17  C8          0      60.504  44.815 -11.421  1.00  0.00     0.112 C 
HETATM   18  C10         0      61.682  44.236 -10.968  1.00  0.00     0.112 C 
HETATM   19  C12         0      62.609  45.045 -10.321  1.00  0.00     0.028 C 
BRANCH  17  20
HETATM   20  O9          0      59.875  44.454 -12.600  1.00  0.00    -0.357 OA
HETATM   21  H9          0      60.097  43.678 -13.101  1.00  0.00     0.218 HD
ENDBRANCH  17  20
BRANCH  18  22
HETATM   22  O11         0      62.027  43.006 -11.510  1.00  0.00    -0.357 OA
HETATM   23  H11         0      62.338  43.003 -12.408  1.00  0.00     0.218 HD
ENDBRANCH  18  22
ENDBRANCH   4  14
BRANCH   8  24
HETATM   24  O17         0      63.732  52.012 -13.571  1.00  0.00    -0.359 OA
HETATM   25  H17         0      62.830  52.304 -13.632  1.00  0.00     0.218 HD
ENDBRANCH   8  24
TORSDOF 5
ENDMDL
MODEL 7
REMARK VINA RESULT:      -1.4      2.500      6.630
REMARK  5 active torsions:
REMARK  status: ('A' for Active; 'I' for Inactive)
REMARK    1  A    between atoms: C4_4  and  C5_5 
REMARK    2  A    between atoms: C8_8  and  O9_9 
REMARK    3  A    between atoms: C10_11  and  O11_12 
REMARK    4  A    between atoms: C16_18  and  O17_19 
REMARK    5  A    between atoms: C19_22  and  O20_23 
ROOT
HETATM    1  O1          0      59.900  48.910 -11.541  1.00  0.00    -0.286 OA
HETATM    2  C2          0      60.646  47.986 -11.967  1.00  0.00     0.201 C 
HETATM    3  C3          0      60.389  46.646 -11.731  1.00  0.00     0.067 C 
HETATM    4  C4          0      61.281  45.654 -12.123  1.00  0.00     0.103 C 
HETATM    5  O13         0      62.388  46.007 -12.752  1.00  0.00    -0.307 OA
HETATM    6  C14         0      62.697  47.267 -12.968  1.00  0.00     0.107 C 
HETATM    7  C15         0      63.996  47.662 -13.252  1.00  0.00     0.049 C 
HETATM    8  C16         0      64.365  49.002 -13.226  1.00  0.00     0.093 C 
HETATM    9  C18         0      63.326  49.901 -13.436  1.00  0.00     0.048 C 
HETATM   10  C19         0      62.010  49.524 -13.207  1.00  0.00     0.096 C 
HETATM   11  C21         0      61.732  48.252 -12.787  1.00  0.00     0.084 C 
ENDROOT
BRANCH  10  12
HETATM   12  O20         0      61.048  50.506 -12.994  1.00  0.00    -0.359 OA
HETATM   13  H20         0      60.715  50.974 -13.750  1.00  0.00     0.218 HD
ENDBRANCH  10  12
BRANCH   4  14
HETATM   14  C5          0      61.274  44.407 -11.356  1.00  0.00     0.025 C 
HETATM   15  C6          0      60.115  43.690 -11.096  1.00  0.00     0.004 C 
HETATM   16  C7          0      60.195  42.301 -11.132  1.00  0.00     0.026 C 
HETATM   17  C8          0      61.410  41.644 -11.286  1.00  0.00     0.112 C 
HETATM   18  C10         0      62.522  42.384 -10.905  1.00  0.00     0.112 C 
HETATM   19  C12         0      62.443  43.770 -10.960  1.00  0.00     0.028 C 
BRANCH  17  20
HETATM   20  O9          0      61.484  40.441 -11.965  1.00  0.00    -0.357 OA
HETATM   21  H9          0      62.115  39.759 -11.764  1.00  0.00     0.218 HD
ENDBRANCH  17  20
BRANCH  18  22
HETATM   22  O11         0      63.737  41.714 -10.859  1.00  0.00    -0.357 OA
HETATM   23  H11         0      64.418  42.096 -10.318  1.00  0.00     0.218 HD
ENDBRANCH  18  22
ENDBRANCH   4  14
BRANCH   8  24
HETATM   24  O17         0      65.596  49.410 -12.700  1.00  0.00    -0.359 OA
HETATM   25  H17         0      65.868  49.168 -11.822  1.00  0.00     0.218 HD
ENDBRANCH   8  24
TORSDOF 5
ENDMDL
MODEL 8
REMARK VINA RESULT:      -1.3      2.529      2.789
REMARK  5 active torsions:
REMARK  status: ('A' for Active; 'I' for Inactive)
REMARK    1  A    between atoms: C4_4  and  C5_5 
REMARK    2  A    between atoms: C8_8  and  O9_9 
REMARK    3  A    between atoms: C10_11  and  O11_12 
REMARK    4  A    between atoms: C16_18  and  O17_19 
REMARK    5  A    between atoms: C19_22  and  O20_23 
ROOT
HETATM    1  O1          0      63.972  43.776 -14.846  1.00  0.00    -0.286 OA
HETATM    2  C2          0      63.154  43.692 -13.890  1.00  0.00     0.201 C 
HETATM    3  C3          0      62.195  44.658 -13.635  1.00  0.00     0.067 C 
HETATM    4  C4          0      61.374  44.592 -12.515  1.00  0.00     0.103 C 
HETATM    5  O13         0      61.506  43.568 -11.691  1.00  0.00    -0.307 OA
HETATM    6  C14         0      62.425  42.643 -11.866  1.00  0.00     0.107 C 
HETATM    7  C15         0      62.834  41.814 -10.831  1.00  0.00     0.049 C 
HETATM    8  C16         0      63.970  41.022 -10.947  1.00  0.00     0.093 C 
HETATM    9  C18         0      64.333  40.703 -12.250  1.00  0.00     0.048 C 
HETATM   10  C19         0      63.902  41.485 -13.314  1.00  0.00     0.096 C 
HETATM   11  C21         0      63.101  42.569 -13.079  1.00  0.00     0.084 C 
ENDROOT
BRANCH  10  12
HETATM   12  O20         0      64.596  41.435 -14.519  1.00  0.00    -0.359 OA
HETATM   13  H20         0      64.865  42.257 -14.912  1.00  0.00     0.218 HD
ENDBRANCH  10  12
BRANCH   4  14
HETATM   14  C5          0      60.853  45.856 -11.991  1.00  0.00     0.025 C 
HETATM   15  C6          0      60.359  45.988 -10.701  1.00  0.00     0.004 C 
HETATM   16  C7          0      60.639  47.171 -10.023  1.00  0.00     0.026 C 
HETATM   17  C8          0      61.271  48.239 -10.650  1.00  0.00     0.112 C 
HETATM   18  C10         0      61.146  48.257 -12.032  1.00  0.00     0.112 C 
HETATM   19  C12         0      60.952  47.050 -12.693  1.00  0.00     0.028 C 
BRANCH  17  20
HETATM   20  O9          0      62.121  49.072  -9.944  1.00  0.00    -0.357 OA
HETATM   21  H9          0      62.668  48.781  -9.224  1.00  0.00     0.218 HD
ENDBRANCH  17  20
BRANCH  18  22
HETATM   22  O11         0      61.592  49.395 -12.689  1.00  0.00    -0.357 OA
HETATM   23  H11         0      62.140  49.991 -12.192  1.00  0.00     0.218 HD
ENDBRANCH  18  22
ENDBRANCH   4  14
BRANCH   8  24
HETATM   24  O17         0      64.854  40.853  -9.875  1.00  0.00    -0.359 OA
HETATM   25  H17         0      64.542  40.737  -8.985  1.00  0.00     0.218 HD
ENDBRANCH   8  24
TORSDOF 5
ENDMDL
MODEL 9
REMARK VINA RESULT:      -1.3      4.330      5.325
REMARK  5 active torsions:
REMARK  status: ('A' for Active; 'I' for Inactive)
REMARK    1  A    between atoms: C4_4  and  C5_5 
REMARK    2  A    between atoms: C8_8  and  O9_9 
REMARK    3  A    between atoms: C10_11  and  O11_12 
REMARK    4  A    between atoms: C16_18  and  O17_19 
REMARK    5  A    between atoms: C19_22  and  O20_23 
ROOT
HETATM    1  O1          0      68.122  46.832 -11.178  1.00  0.00    -0.286 OA
HETATM    2  C2          0      66.935  46.465 -11.398  1.00  0.00     0.201 C 
HETATM    3  C3          0      65.837  47.251 -11.089  1.00  0.00     0.067 C 
HETATM    4  C4          0      64.538  46.782 -11.247  1.00  0.00     0.103 C 
HETATM    5  O13         0      64.357  45.562 -11.722  1.00  0.00    -0.307 OA
HETATM    6  C14         0      65.364  44.762 -11.996  1.00  0.00     0.107 C 
HETATM    7  C15         0      65.197  43.389 -12.104  1.00  0.00     0.049 C 
HETATM    8  C16         0      66.289  42.530 -12.138  1.00  0.00     0.093 C 
HETATM    9  C18         0      67.473  43.103 -12.587  1.00  0.00     0.048 C 
HETATM   10  C19         0      67.654  44.478 -12.537  1.00  0.00     0.096 C 
HETATM   11  C21         0      66.654  45.278 -12.056  1.00  0.00     0.084 C 
ENDROOT
BRANCH  10  12
HETATM   12  O20         0      68.946  44.995 -12.565  1.00  0.00    -0.359 OA
HETATM   13  H20         0      69.050  45.924 -12.732  1.00  0.00     0.218 HD
ENDBRANCH  10  12
BRANCH   4  14
HETATM   14  C5          0      63.507  47.362 -10.385  1.00  0.00     0.025 C 
HETATM   15  C6          0      63.528  48.688  -9.976  1.00  0.00     0.004 C 
HETATM   16  C7          0      62.312  49.360  -9.907  1.00  0.00     0.026 C 
HETATM   17  C8          0      61.102  48.702 -10.106  1.00  0.00     0.112 C 
HETATM   18  C10         0      61.142  47.334  -9.875  1.00  0.00     0.112 C 
HETATM   19  C12         0      62.354  46.672 -10.035  1.00  0.00     0.028 C 
BRANCH  17  20
HETATM   20  O9          0      60.030  49.352 -10.690  1.00  0.00    -0.357 OA
HETATM   21  H9          0      59.123  49.099 -10.558  1.00  0.00     0.218 HD
ENDBRANCH  17  20
BRANCH  18  22
HETATM   22  O11         0      59.928  46.661  -9.875  1.00  0.00    -0.357 OA
HETATM   23  H11         0      59.907  45.812 -10.301  1.00  0.00     0.218 HD
ENDBRANCH  18  22
ENDBRANCH   4  14
BRANCH   8  24
HETATM   24  O17         0      66.275  41.305 -11.461  1.00  0.00    -0.359 OA
HETATM   25  H17         0      66.632  40.515 -11.851  1.00  0.00     0.218 HD
ENDBRANCH   8  24
TORSDOF 5
ENDMDL
