MODEL 1
REMARK VINA RESULT:      -4.9      0.000      0.000
REMARK  5 active torsions:
REMARK  status: ('A' for Active; 'I' for Inactive)
REMARK    1  A    between atoms: C4_4  and  C5_5 
REMARK    2  A    between atoms: C8_8  and  O9_9 
REMARK    3  A    between atoms: C10_11  and  O11_12 
REMARK    4  A    between atoms: C16_18  and  O17_19 
REMARK    5  A    between atoms: C19_22  and  O20_23 
ROOT
HETATM    1  O1          0      65.784  46.698   3.627  1.00  0.00    -0.286 OA
HETATM    2  C2          0      66.879  46.879   4.227  1.00  0.00     0.201 C 
HETATM    3  C3          0      67.899  45.943   4.223  1.00  0.00     0.067 C 
HETATM    4  C4          0      69.054  46.121   4.976  1.00  0.00     0.103 C 
HETATM    5  O13         0      69.180  47.224   5.693  1.00  0.00    -0.307 OA
HETATM    6  C14         0      68.227  48.127   5.761  1.00  0.00     0.107 C 
HETATM    7  C15         0      68.173  49.058   6.788  1.00  0.00     0.049 C 
HETATM    8  C16         0      67.040  49.835   6.999  1.00  0.00     0.093 C 
HETATM    9  C18         0      66.239  50.020   5.879  1.00  0.00     0.048 C 
HETATM   10  C19         0      66.301  49.134   4.813  1.00  0.00     0.096 C 
HETATM   11  C21         0      67.171  48.079   4.857  1.00  0.00     0.084 C 
ENDROOT
BRANCH  10  12
HETATM   12  O20         0      65.232  49.061   3.925  1.00  0.00    -0.359 OA
HETATM   13  H20         0      64.387  48.795   4.266  1.00  0.00     0.218 HD
ENDBRANCH  10  12
BRANCH   4  14
HETATM   14  C5          0      69.767  44.916   5.405  1.00  0.00     0.025 C 
HETATM   15  C6          0      70.007  44.619   6.738  1.00  0.00     0.004 C 
HETATM   16  C7          0      69.911  43.287   7.129  1.00  0.00     0.026 C 
HETATM   17  C8          0      69.717  42.268   6.203  1.00  0.00     0.112 C 
HETATM   18  C10         0      70.120  42.574   4.910  1.00  0.00     0.112 C 
HETATM   19  C12         0      70.125  43.908   4.519  1.00  0.00     0.028 C 
BRANCH  17  20
HETATM   20  O9          0      68.987  41.140   6.533  1.00  0.00    -0.357 OA
HETATM   21  H9          0      69.004  40.334   6.030  1.00  0.00     0.218 HD
ENDBRANCH  17  20
BRANCH  18  22
HETATM   22  O11         0      70.125  41.536   3.990  1.00  0.00    -0.357 OA
HETATM   23  H11         0      69.283  41.161   3.760  1.00  0.00     0.218 HD
ENDBRANCH  18  22
ENDBRANCH   4  14
BRANCH   8  24
HETATM   24  O17         0      66.577  50.114   8.290  1.00  0.00    -0.359 OA
HETATM   25  H17         0      65.650  50.129   8.495  1.00  0.00     0.218 HD
ENDBRANCH   8  24
TORSDOF 5
ENDMDL
MODEL 2
REMARK VINA RESULT:      -4.9      1.720      6.798
REMARK  5 active torsions:
REMARK  status: ('A' for Active; 'I' for Inactive)
REMARK    1  A    between atoms: C4_4  and  C5_5 
REMARK    2  A    between atoms: C8_8  and  O9_9 
REMARK    3  A    between atoms: C10_11  and  O11_12 
REMARK    4  A    between atoms: C16_18  and  O17_19 
REMARK    5  A    between atoms: C19_22  and  O20_23 
ROOT
HETATM    1  O1          0      69.059  45.779   9.391  1.00  0.00    -0.286 OA
HETATM    2  C2          0      69.139  46.133   8.182  1.00  0.00     0.201 C 
HETATM    3  C3          0      68.921  47.435   7.766  1.00  0.00     0.067 C 
HETATM    4  C4          0      68.914  47.777   6.418  1.00  0.00     0.103 C 
HETATM    5  O13         0      69.143  46.833   5.522  1.00  0.00    -0.307 OA
HETATM    6  C14         0      69.319  45.575   5.862  1.00  0.00     0.107 C 
HETATM    7  C15         0      69.160  44.542   4.949  1.00  0.00     0.049 C 
HETATM    8  C16         0      69.095  43.217   5.363  1.00  0.00     0.093 C 
HETATM    9  C18         0      69.709  42.951   6.580  1.00  0.00     0.048 C 
HETATM   10  C19         0      69.927  43.970   7.498  1.00  0.00     0.096 C 
HETATM   11  C21         0      69.548  45.250   7.194  1.00  0.00     0.084 C 
ENDROOT
BRANCH  10  12
HETATM   12  O20         0      70.124  43.649   8.837  1.00  0.00    -0.359 OA
HETATM   13  H20         0      70.325  42.746   9.054  1.00  0.00     0.218 HD
ENDBRANCH  10  12
BRANCH   4  14
HETATM   14  C5          0      68.118  48.942   6.027  1.00  0.00     0.025 C 
HETATM   15  C6          0      68.252  49.564   4.794  1.00  0.00     0.004 C 
HETATM   16  C7          0      67.094  50.029   4.178  1.00  0.00     0.026 C 
HETATM   17  C8          0      65.862  49.998   4.823  1.00  0.00     0.112 C 
HETATM   18  C10         0      65.934  49.966   6.209  1.00  0.00     0.112 C 
HETATM   19  C12         0      67.066  49.418   6.799  1.00  0.00     0.028 C 
BRANCH  17  20
HETATM   20  O9          0      64.693  49.801   4.109  1.00  0.00    -0.357 OA
HETATM   21  H9          0      64.378  50.395   3.437  1.00  0.00     0.218 HD
ENDBRANCH  17  20
BRANCH  18  22
HETATM   22  O11         0      64.743  50.125   6.904  1.00  0.00    -0.357 OA
HETATM   23  H11         0      64.772  50.657   7.691  1.00  0.00     0.218 HD
ENDBRANCH  18  22
ENDBRANCH   4  14
BRANCH   8  24
HETATM   24  O17         0      68.202  42.313   4.777  1.00  0.00    -0.359 OA
HETATM   25  H17         0      67.339  42.156   5.142  1.00  0.00     0.218 HD
ENDBRANCH   8  24
TORSDOF 5
ENDMDL
MODEL 3
REMARK VINA RESULT:      -4.5      2.298      6.438
REMARK  5 active torsions:
REMARK  status: ('A' for Active; 'I' for Inactive)
REMARK    1  A    between atoms: C4_4  and  C5_5 
REMARK    2  A    between atoms: C8_8  and  O9_9 
REMARK    3  A    between atoms: C10_11  and  O11_12 
REMARK    4  A    between atoms: C16_18  and  O17_19 
REMARK    5  A    between atoms: C19_22  and  O20_23 
ROOT
HETATM    1  O1          0      68.883  47.352   8.005  1.00  0.00    -0.286 OA
HETATM    2  C2          0      68.848  46.982   6.799  1.00  0.00     0.201 C 
HETATM    3  C3          0      68.526  47.839   5.760  1.00  0.00     0.067 C 
HETATM    4  C4          0      68.395  47.384   4.454  1.00  0.00     0.103 C 
HETATM    5  O13         0      68.604  46.103   4.204  1.00  0.00    -0.307 OA
HETATM    6  C14         0      68.875  45.240   5.158  1.00  0.00     0.107 C 
HETATM    7  C15         0      68.702  43.875   4.981  1.00  0.00     0.049 C 
HETATM    8  C16         0      68.742  42.996   6.056  1.00  0.00     0.093 C 
HETATM    9  C18         0      69.464  43.446   7.155  1.00  0.00     0.048 C 
HETATM   10  C19         0      69.697  44.802   7.339  1.00  0.00     0.096 C 
HETATM   11  C21         0      69.225  45.702   6.422  1.00  0.00     0.084 C 
ENDROOT
BRANCH  10  12
HETATM   12  O20         0      70.016  45.272   8.609  1.00  0.00    -0.359 OA
HETATM   13  H20         0      69.802  44.723   9.354  1.00  0.00     0.218 HD
ENDBRANCH  10  12
BRANCH   4  14
HETATM   14  C5          0      67.507  48.139   3.567  1.00  0.00     0.025 C 
HETATM   15  C6          0      67.495  49.525   3.518  1.00  0.00     0.004 C 
HETATM   16  C7          0      67.329  50.125   2.274  1.00  0.00     0.026 C 
HETATM   17  C8          0      67.050  49.377   1.135  1.00  0.00     0.112 C 
HETATM   18  C10         0      66.468  48.141   1.382  1.00  0.00     0.112 C 
HETATM   19  C12         0      66.721  47.524   2.602  1.00  0.00     0.028 C 
BRANCH  17  20
HETATM   20  O9          0      67.520  49.772  -0.104  1.00  0.00    -0.357 OA
HETATM   21  H9          0      67.471  49.231  -0.884  1.00  0.00     0.218 HD
ENDBRANCH  17  20
BRANCH  18  22
HETATM   22  O11         0      65.998  47.437   0.282  1.00  0.00    -0.357 OA
HETATM   23  H11         0      65.059  47.305   0.226  1.00  0.00     0.218 HD
ENDBRANCH  18  22
ENDBRANCH   4  14
BRANCH   8  24
HETATM   24  O17         0      67.857  41.916   6.150  1.00  0.00    -0.359 OA
HETATM   25  H17         0      68.138  41.067   6.468  1.00  0.00     0.218 HD
ENDBRANCH   8  24
TORSDOF 5
ENDMDL
MODEL 4
REMARK VINA RESULT:      -4.5      1.678      6.641
REMARK  5 active torsions:
REMARK  status: ('A' for Active; 'I' for Inactive)
REMARK    1  A    between atoms: C4_4  and  C5_5 
REMARK    2  A    between atoms: C8_8  and  O9_9 
REMARK    3  A    between atoms: C10_11  and  O11_12 
REMARK    4  A    between atoms: C16_18  and  O17_19 
REMARK    5  A    between atoms: C19_22  and  O20_23 
ROOT
HETATM    1  O1          0      69.103  44.174   7.377  1.00  0.00    -0.286 OA
HETATM    2  C2          0      69.201  45.060   6.484  1.00  0.00     0.201 C 
HETATM    3  C3          0      69.154  46.415   6.765  1.00  0.00     0.067 C 
HETATM    4  C4          0      69.161  47.369   5.753  1.00  0.00     0.103 C 
HETATM    5  O13         0      69.236  46.963   4.498  1.00  0.00    -0.307 OA
HETATM    6  C14         0      69.245  45.688   4.175  1.00  0.00     0.107 C 
HETATM    7  C15         0      68.923  45.255   2.897  1.00  0.00     0.049 C 
HETATM    8  C16         0      68.686  43.913   2.628  1.00  0.00     0.093 C 
HETATM    9  C18         0      69.288  43.022   3.509  1.00  0.00     0.048 C 
HETATM   10  C19         0      69.666  43.435   4.780  1.00  0.00     0.096 C 
HETATM   11  C21         0      69.460  44.732   5.162  1.00  0.00     0.084 C 
ENDROOT
BRANCH  10  12
HETATM   12  O20         0      69.850  42.482   5.777  1.00  0.00    -0.359 OA
HETATM   13  H20         0      70.739  42.287   6.049  1.00  0.00     0.218 HD
ENDBRANCH  10  12
BRANCH   4  14
HETATM   14  C5          0      68.524  48.655   6.041  1.00  0.00     0.025 C 
HETATM   15  C6          0      67.843  49.389   5.080  1.00  0.00     0.004 C 
HETATM   16  C7          0      66.686  50.051   5.476  1.00  0.00     0.026 C 
HETATM   17  C8          0      66.290  50.096   6.808  1.00  0.00     0.112 C 
HETATM   18  C10         0      67.315  49.903   7.725  1.00  0.00     0.112 C 
HETATM   19  C12         0      68.424  49.165   7.330  1.00  0.00     0.028 C 
BRANCH  17  20
HETATM   20  O9          0      64.949  50.117   7.149  1.00  0.00    -0.357 OA
HETATM   21  H9          0      64.631  50.092   8.044  1.00  0.00     0.218 HD
ENDBRANCH  17  20
BRANCH  18  22
HETATM   22  O11         0      67.013  50.124   9.061  1.00  0.00    -0.357 OA
HETATM   23  H11         0      66.096  50.080   9.308  1.00  0.00     0.218 HD
ENDBRANCH  18  22
ENDBRANCH   4  14
BRANCH   8  24
HETATM   24  O17         0      67.663  43.512   1.762  1.00  0.00    -0.359 OA
HETATM   25  H17         0      67.089  42.785   1.971  1.00  0.00     0.218 HD
ENDBRANCH   8  24
TORSDOF 5
ENDMDL
MODEL 5
REMARK VINA RESULT:      -4.0      2.737      5.387
REMARK  5 active torsions:
REMARK  status: ('A' for Active; 'I' for Inactive)
REMARK    1  A    between atoms: C4_4  and  C5_5 
REMARK    2  A    between atoms: C8_8  and  O9_9 
REMARK    3  A    between atoms: C10_11  and  O11_12 
REMARK    4  A    between atoms: C16_18  and  O17_19 
REMARK    5  A    between atoms: C19_22  and  O20_23 
ROOT
HETATM    1  O1          0      68.628  43.067   2.901  1.00  0.00    -0.286 OA
HETATM    2  C2          0      68.922  44.293   2.945  1.00  0.00     0.201 C 
HETATM    3  C3          0      69.556  44.874   4.030  1.00  0.00     0.067 C 
HETATM    4  C4          0      69.776  46.245   4.097  1.00  0.00     0.103 C 
HETATM    5  O13         0      69.385  47.001   3.086  1.00  0.00    -0.307 OA
HETATM    6  C14         0      68.745  46.506   2.049  1.00  0.00     0.107 C 
HETATM    7  C15         0      67.994  47.308   1.203  1.00  0.00     0.049 C 
HETATM    8  C16         0      67.122  46.756   0.271  1.00  0.00     0.093 C 
HETATM    9  C18         0      67.429  45.460  -0.125  1.00  0.00     0.048 C 
HETATM   10  C19         0      68.218  44.646   0.677  1.00  0.00     0.096 C 
HETATM   11  C21         0      68.710  45.129   1.859  1.00  0.00     0.084 C 
ENDROOT
BRANCH  10  12
HETATM   12  O20         0      68.161  43.266   0.509  1.00  0.00    -0.359 OA
HETATM   13  H20         0      68.185  42.924  -0.376  1.00  0.00     0.218 HD
ENDBRANCH  10  12
BRANCH   4  14
HETATM   14  C5          0      69.871  46.844   5.429  1.00  0.00     0.025 C 
HETATM   15  C6          0      69.761  48.209   5.650  1.00  0.00     0.004 C 
HETATM   16  C7          0      69.080  48.626   6.790  1.00  0.00     0.026 C 
HETATM   17  C8          0      68.640  47.719   7.748  1.00  0.00     0.112 C 
HETATM   18  C10         0      69.327  46.513   7.764  1.00  0.00     0.112 C 
HETATM   19  C12         0      69.927  46.079   6.587  1.00  0.00     0.028 C 
BRANCH  17  20
HETATM   20  O9          0      67.477  47.950   8.462  1.00  0.00    -0.357 OA
HETATM   21  H9          0      66.893  47.261   8.756  1.00  0.00     0.218 HD
ENDBRANCH  17  20
BRANCH  18  22
HETATM   22  O11         0      69.058  45.650   8.817  1.00  0.00    -0.357 OA
HETATM   23  H11         0      68.473  44.923   8.638  1.00  0.00     0.218 HD
ENDBRANCH  18  22
ENDBRANCH   4  14
BRANCH   8  24
HETATM   24  O17         0      65.868  47.325   0.020  1.00  0.00    -0.359 OA
HETATM   25  H17         0      65.604  47.585  -0.854  1.00  0.00     0.218 HD
ENDBRANCH   8  24
TORSDOF 5
ENDMDL
MODEL 6
REMARK VINA RESULT:      -3.7      2.612      6.440
REMARK  5 active torsions:
REMARK  status: ('A' for Active; 'I' for Inactive)
REMARK    1  A    between atoms: C4_4  and  C5_5 
REMARK    2  A    between atoms: C8_8  and  O9_9 
REMARK    3  A    between atoms: C10_11  and  O11_12 
REMARK    4  A    between atoms: C16_18  and  O17_19 
REMARK    5  A    between atoms: C19_22  and  O20_23 
ROOT
HETATM    1  O1          0      68.264  46.728   6.957  1.00  0.00    -0.286 OA
HETATM    2  C2          0      68.808  46.195   5.951  1.00  0.00     0.201 C 
HETATM    3  C3          0      68.801  46.779   4.697  1.00  0.00     0.067 C 
HETATM    4  C4          0      69.316  46.124   3.584  1.00  0.00     0.103 C 
HETATM    5  O13         0      69.842  44.922   3.743  1.00  0.00    -0.307 OA
HETATM    6  C14         0      69.840  44.306   4.905  1.00  0.00     0.107 C 
HETATM    7  C15         0      70.011  42.933   5.004  1.00  0.00     0.049 C 
HETATM    8  C16         0      69.757  42.258   6.192  1.00  0.00     0.093 C 
HETATM    9  C18         0      69.854  43.035   7.341  1.00  0.00     0.048 C 
HETATM   10  C19         0      69.735  44.416   7.271  1.00  0.00     0.096 C 
HETATM   11  C21         0      69.536  45.020   6.059  1.00  0.00     0.084 C 
ENDROOT
BRANCH  10  12
HETATM   12  O20         0      69.399  45.129   8.418  1.00  0.00    -0.359 OA
HETATM   13  H20         0      68.569  44.934   8.836  1.00  0.00     0.218 HD
ENDBRANCH  10  12
BRANCH   4  14
HETATM   14  C5          0      68.762  46.484   2.278  1.00  0.00     0.025 C 
HETATM   15  C6          0      67.452  46.207   1.915  1.00  0.00     0.004 C 
HETATM   16  C7          0      66.777  47.161   1.160  1.00  0.00     0.026 C 
HETATM   17  C8          0      67.421  48.291   0.668  1.00  0.00     0.112 C 
HETATM   18  C10         0      68.797  48.162   0.535  1.00  0.00     0.112 C 
HETATM   19  C12         0      69.459  47.262   1.362  1.00  0.00     0.028 C 
BRANCH  17  20
HETATM   20  O9          0      66.746  49.491   0.535  1.00  0.00    -0.357 OA
HETATM   21  H9          0      65.944  49.594   0.035  1.00  0.00     0.218 HD
ENDBRANCH  17  20
BRANCH  18  22
HETATM   22  O11         0      69.464  49.185  -0.125  1.00  0.00    -0.357 OA
HETATM   23  H11         0      69.715  49.940   0.394  1.00  0.00     0.218 HD
ENDBRANCH  18  22
ENDBRANCH   4  14
BRANCH   8  24
HETATM   24  O17         0      69.129  41.008   6.201  1.00  0.00    -0.359 OA
HETATM   25  H17         0      68.261  40.883   5.835  1.00  0.00     0.218 HD
ENDBRANCH   8  24
TORSDOF 5
ENDMDL
MODEL 7
REMARK VINA RESULT:      -3.6      2.887      4.360
REMARK  5 active torsions:
REMARK  status: ('A' for Active; 'I' for Inactive)
REMARK    1  A    between atoms: C4_4  and  C5_5 
REMARK    2  A    between atoms: C8_8  and  O9_9 
REMARK    3  A    between atoms: C10_11  and  O11_12 
REMARK    4  A    between atoms: C16_18  and  O17_19 
REMARK    5  A    between atoms: C19_22  and  O20_23 
ROOT
HETATM    1  O1          0      69.282  44.364   6.530  1.00  0.00    -0.286 OA
HETATM    2  C2          0      68.760  45.128   5.673  1.00  0.00     0.201 C 
HETATM    3  C3          0      68.357  44.688   4.423  1.00  0.00     0.067 C 
HETATM    4  C4          0      67.879  45.570   3.460  1.00  0.00     0.103 C 
HETATM    5  O13         0      67.793  46.853   3.761  1.00  0.00    -0.307 OA
HETATM    6  C14         0      68.197  47.328   4.919  1.00  0.00     0.107 C 
HETATM    7  C15         0      68.484  48.674   5.097  1.00  0.00     0.049 C 
HETATM    8  C16         0      69.147  49.127   6.231  1.00  0.00     0.093 C 
HETATM    9  C18         0      69.022  48.311   7.349  1.00  0.00     0.048 C 
HETATM   10  C19         0      68.689  46.970   7.210  1.00  0.00     0.096 C 
HETATM   11  C21         0      68.467  46.451   5.964  1.00  0.00     0.084 C 
ENDROOT
BRANCH  10  12
HETATM   12  O20         0      68.987  46.085   8.242  1.00  0.00    -0.359 OA
HETATM   13  H20         0      68.540  45.248   8.253  1.00  0.00     0.218 HD
ENDBRANCH  10  12
BRANCH   4  14
HETATM   14  C5          0      68.047  45.184   2.058  1.00  0.00     0.025 C 
HETATM   15  C6          0      69.196  45.467   1.333  1.00  0.00     0.004 C 
HETATM   16  C7          0      69.646  44.503   0.437  1.00  0.00     0.026 C 
HETATM   17  C8          0      68.909  43.354   0.170  1.00  0.00     0.112 C 
HETATM   18  C10         0      67.550  43.464   0.431  1.00  0.00     0.112 C 
HETATM   19  C12         0      67.134  44.377   1.393  1.00  0.00     0.028 C 
BRANCH  17  20
HETATM   20  O9          0      69.541  42.159  -0.125  1.00  0.00    -0.357 OA
HETATM   21  H9          0      70.482  42.037  -0.089  1.00  0.00     0.218 HD
ENDBRANCH  17  20
BRANCH  18  22
HETATM   22  O11         0      66.742  42.418   0.007  1.00  0.00    -0.357 OA
HETATM   23  H11         0      67.061  41.895  -0.719  1.00  0.00     0.218 HD
ENDBRANCH  18  22
ENDBRANCH   4  14
BRANCH   8  24
HETATM   24  O17         0      70.125  50.125   6.154  1.00  0.00    -0.359 OA
HETATM   25  H17         0      69.942  50.975   5.772  1.00  0.00     0.218 HD
ENDBRANCH   8  24
TORSDOF 5
ENDMDL
MODEL 8
REMARK VINA RESULT:      -3.3      2.909      4.198
REMARK  5 active torsions:
REMARK  status: ('A' for Active; 'I' for Inactive)
REMARK    1  A    between atoms: C4_4  and  C5_5 
REMARK    2  A    between atoms: C8_8  and  O9_9 
REMARK    3  A    between atoms: C10_11  and  O11_12 
REMARK    4  A    between atoms: C16_18  and  O17_19 
REMARK    5  A    between atoms: C19_22  and  O20_23 
ROOT
HETATM    1  O1          0      65.591  47.173   3.230  1.00  0.00    -0.286 OA
HETATM    2  C2          0      66.813  46.860   3.202  1.00  0.00     0.201 C 
HETATM    3  C3          0      67.462  46.275   4.277  1.00  0.00     0.067 C 
HETATM    4  C4          0      68.831  46.035   4.257  1.00  0.00     0.103 C 
HETATM    5  O13         0      69.517  46.357   3.174  1.00  0.00    -0.307 OA
HETATM    6  C14         0      68.957  46.949   2.142  1.00  0.00     0.107 C 
HETATM    7  C15         0      69.705  47.638   1.200  1.00  0.00     0.049 C 
HETATM    8  C16         0      69.099  48.468   0.263  1.00  0.00     0.093 C 
HETATM    9  C18         0      67.774  48.162  -0.021  1.00  0.00     0.048 C 
HETATM   10  C19         0      67.009  47.433   0.879  1.00  0.00     0.096 C 
HETATM   11  C21         0      67.570  46.997   2.049  1.00  0.00     0.084 C 
ENDROOT
BRANCH  10  12
HETATM   12  O20         0      65.622  47.505   0.808  1.00  0.00    -0.359 OA
HETATM   13  H20         0      65.222  47.564  -0.051  1.00  0.00     0.218 HD
ENDBRANCH  10  12
BRANCH   4  14
HETATM   14  C5          0      69.524  46.003   5.546  1.00  0.00     0.025 C 
HETATM   15  C6          0      69.622  47.111   6.375  1.00  0.00     0.004 C 
HETATM   16  C7          0      69.519  46.901   7.747  1.00  0.00     0.026 C 
HETATM   17  C8          0      69.456  45.620   8.286  1.00  0.00     0.112 C 
HETATM   18  C10         0      69.991  44.625   7.480  1.00  0.00     0.112 C 
HETATM   19  C12         0      70.004  44.825   6.104  1.00  0.00     0.028 C 
BRANCH  17  20
HETATM   20  O9          0      68.723  45.370   9.433  1.00  0.00    -0.357 OA
HETATM   21  H9          0      68.165  46.013   9.854  1.00  0.00     0.218 HD
ENDBRANCH  17  20
BRANCH  18  22
HETATM   22  O11         0      70.125  43.364   8.044  1.00  0.00    -0.357 OA
HETATM   23  H11         0      69.327  42.866   8.179  1.00  0.00     0.218 HD
ENDBRANCH  18  22
ENDBRANCH   4  14
BRANCH   8  24
HETATM   24  O17         0      69.665  49.696  -0.097  1.00  0.00    -0.359 OA
HETATM   25  H17         0      69.166  50.358  -0.560  1.00  0.00     0.218 HD
ENDBRANCH   8  24
TORSDOF 5
ENDMDL
MODEL 9
REMARK VINA RESULT:      -1.9      3.287      3.474
REMARK  5 active torsions:
REMARK  status: ('A' for Active; 'I' for Inactive)
REMARK    1  A    between atoms: C4_4  and  C5_5 
REMARK    2  A    between atoms: C8_8  and  O9_9 
REMARK    3  A    between atoms: C10_11  and  O11_12 
REMARK    4  A    between atoms: C16_18  and  O17_19 
REMARK    5  A    between atoms: C19_22  and  O20_23 
ROOT
HETATM    1  O1          0      65.667  45.999   2.919  1.00  0.00    -0.286 OA
HETATM    2  C2          0      66.884  45.798   2.654  1.00  0.00     0.201 C 
HETATM    3  C3          0      67.583  44.701   3.128  1.00  0.00     0.067 C 
HETATM    4  C4          0      68.948  44.556   2.907  1.00  0.00     0.103 C 
HETATM    5  O13         0      69.580  45.484   2.210  1.00  0.00    -0.307 OA
HETATM    6  C14         0      68.972  46.564   1.770  1.00  0.00     0.107 C 
HETATM    7  C15         0      69.676  47.702   1.404  1.00  0.00     0.049 C 
HETATM    8  C16         0      69.028  48.912   1.187  1.00  0.00     0.093 C 
HETATM    9  C18         0      67.688  48.806   0.834  1.00  0.00     0.048 C 
HETATM   10  C19         0      66.966  47.662   1.143  1.00  0.00     0.096 C 
HETATM   11  C21         0      67.582  46.623   1.786  1.00  0.00     0.084 C 
ENDROOT
BRANCH  10  12
HETATM   12  O20         0      65.577  47.726   1.191  1.00  0.00    -0.359 OA
HETATM   13  H20         0      65.087  46.938   0.989  1.00  0.00     0.218 HD
ENDBRANCH  10  12
BRANCH   4  14
HETATM   14  C5          0      69.705  43.770   3.883  1.00  0.00     0.025 C 
HETATM   15  C6          0      69.985  44.228   5.163  1.00  0.00     0.004 C 
HETATM   16  C7          0      69.936  43.304   6.202  1.00  0.00     0.026 C 
HETATM   17  C8          0      69.749  41.947   5.964  1.00  0.00     0.112 C 
HETATM   18  C10         0      70.112  41.526   4.691  1.00  0.00     0.112 C 
HETATM   19  C12         0      70.070  42.450   3.654  1.00  0.00     0.028 C 
BRANCH  17  20
HETATM   20  O9          0      69.059  41.157   6.866  1.00  0.00    -0.357 OA
HETATM   21  H9          0      69.135  40.211   6.905  1.00  0.00     0.218 HD
ENDBRANCH  17  20
BRANCH  18  22
HETATM   22  O11         0      70.125  40.158   4.462  1.00  0.00    -0.357 OA
HETATM   23  H11         0      69.334  39.776   4.098  1.00  0.00     0.218 HD
ENDBRANCH  18  22
ENDBRANCH   4  14
BRANCH   8  24
HETATM   24  O17         0      69.582  50.123   1.617  1.00  0.00    -0.359 OA
HETATM   25  H17         0      70.381  50.470   1.236  1.00  0.00     0.218 HD
ENDBRANCH   8  24
TORSDOF 5
ENDMDL
