MODEL 1
REMARK VINA RESULT:      -5.3      0.000      0.000
REMARK  5 active torsions:
REMARK  status: ('A' for Active; 'I' for Inactive)
REMARK    1  A    between atoms: C4_4  and  C5_5 
REMARK    2  A    between atoms: C8_8  and  O9_9 
REMARK    3  A    between atoms: C10_11  and  O11_12 
REMARK    4  A    between atoms: C16_18  and  O17_19 
REMARK    5  A    between atoms: C19_22  and  O20_23 
ROOT
HETATM    1  O1          0      23.588 103.611  -2.156  1.00  0.00    -0.286 OA
HETATM    2  C2          0      23.116 103.799  -1.001  1.00  0.00     0.201 C 
HETATM    3  C3          0      22.414 104.941  -0.654  1.00  0.00     0.067 C 
HETATM    4  C4          0      21.995 105.170   0.652  1.00  0.00     0.103 C 
HETATM    5  O13         0      22.260 104.260   1.572  1.00  0.00    -0.307 OA
HETATM    6  C14         0      22.955 103.176   1.304  1.00  0.00     0.107 C 
HETATM    7  C15         0      23.571 102.437   2.304  1.00  0.00     0.049 C 
HETATM    8  C16         0      24.505 101.453   2.002  1.00  0.00     0.093 C 
HETATM    9  C18         0      24.389 100.903   0.732  1.00  0.00     0.048 C 
HETATM   10  C19         0      23.737 101.595  -0.280  1.00  0.00     0.096 C 
HETATM   11  C21         0      23.191 102.822  -0.020  1.00  0.00     0.084 C 
ENDROOT
BRANCH  10  12
HETATM   12  O20         0      23.995 101.264  -1.606  1.00  0.00    -0.359 OA
HETATM   13  H20         0      23.308 100.833  -2.100  1.00  0.00     0.218 HD
ENDBRANCH  10  12
BRANCH   4  14
HETATM   14  C5          0      21.827 106.564   1.066  1.00  0.00     0.025 C 
HETATM   15  C6          0      21.189 106.926   2.244  1.00  0.00     0.004 C 
HETATM   16  C7          0      21.714 107.999   2.957  1.00  0.00     0.026 C 
HETATM   17  C8          0      22.754 108.772   2.452  1.00  0.00     0.112 C 
HETATM   18  C10         0      22.880 108.742   1.070  1.00  0.00     0.112 C 
HETATM   19  C12         0      22.424 107.619   0.389  1.00  0.00     0.028 C 
BRANCH  17  20
HETATM   20  O9          0      23.692 109.337   3.297  1.00  0.00    -0.357 OA
HETATM   21  H9          0      23.486 109.689   4.155  1.00  0.00     0.218 HD
ENDBRANCH  17  20
BRANCH  18  22
HETATM   22  O11         0      23.775 109.637   0.501  1.00  0.00    -0.357 OA
HETATM   23  H11         0      24.379 109.289  -0.145  1.00  0.00     0.218 HD
ENDBRANCH  18  22
ENDBRANCH   4  14
BRANCH   8  24
HETATM   24  O17         0      25.659 101.281   2.776  1.00  0.00    -0.359 OA
HETATM   25  H17         0      25.616 101.175   3.719  1.00  0.00     0.218 HD
ENDBRANCH   8  24
TORSDOF 5
ENDMDL
MODEL 2
REMARK VINA RESULT:      -5.2      1.804      6.646
REMARK  5 active torsions:
REMARK  status: ('A' for Active; 'I' for Inactive)
REMARK    1  A    between atoms: C4_4  and  C5_5 
REMARK    2  A    between atoms: C8_8  and  O9_9 
REMARK    3  A    between atoms: C10_11  and  O11_12 
REMARK    4  A    between atoms: C16_18  and  O17_19 
REMARK    5  A    between atoms: C19_22  and  O20_23 
ROOT
HETATM    1  O1          0      22.271 108.601   3.251  1.00  0.00    -0.286 OA
HETATM    2  C2          0      22.169 107.896   2.210  1.00  0.00     0.201 C 
HETATM    3  C3          0      21.879 106.543   2.246  1.00  0.00     0.067 C 
HETATM    4  C4          0      21.874 105.768   1.092  1.00  0.00     0.103 C 
HETATM    5  O13         0      22.133 106.351  -0.065  1.00  0.00    -0.307 OA
HETATM    6  C14         0      22.451 107.624  -0.151  1.00  0.00     0.107 C 
HETATM    7  C15         0      23.101 108.142  -1.262  1.00  0.00     0.049 C 
HETATM    8  C16         0      23.659 109.415  -1.243  1.00  0.00     0.093 C 
HETATM    9  C18         0      23.093 110.290  -0.325  1.00  0.00     0.048 C 
HETATM   10  C19         0      22.395 109.806   0.774  1.00  0.00     0.096 C 
HETATM   11  C21         0      22.249 108.457   0.945  1.00  0.00     0.084 C 
ENDROOT
BRANCH  10  12
HETATM   12  O20         0      22.220 110.627   1.884  1.00  0.00    -0.359 OA
HETATM   13  H20         0      21.334 110.881   2.114  1.00  0.00     0.218 HD
ENDBRANCH  10  12
BRANCH   4  14
HETATM   14  C5          0      22.162 104.340   1.242  1.00  0.00     0.025 C 
HETATM   15  C6          0      22.893 103.619   0.309  1.00  0.00     0.004 C 
HETATM   16  C7          0      23.773 102.653   0.788  1.00  0.00     0.026 C 
HETATM   17  C8          0      23.828 102.321   2.137  1.00  0.00     0.112 C 
HETATM   18  C10         0      22.673 102.609   2.853  1.00  0.00     0.112 C 
HETATM   19  C12         0      21.855 103.637   2.399  1.00  0.00     0.028 C 
BRANCH  17  20
HETATM   20  O9          0      25.020 101.937   2.725  1.00  0.00    -0.357 OA
HETATM   21  H9          0      25.371 101.055   2.680  1.00  0.00     0.218 HD
ENDBRANCH  17  20
BRANCH  18  22
HETATM   22  O11         0      22.603 102.128   4.153  1.00  0.00    -0.357 OA
HETATM   23  H11         0      23.407 101.789   4.530  1.00  0.00     0.218 HD
ENDBRANCH  18  22
ENDBRANCH   4  14
BRANCH   8  24
HETATM   24  O17         0      24.893 109.679  -1.848  1.00  0.00    -0.359 OA
HETATM   25  H17         0      24.972 110.286  -2.575  1.00  0.00     0.218 HD
ENDBRANCH   8  24
TORSDOF 5
ENDMDL
MODEL 3
REMARK VINA RESULT:      -4.9      4.085      6.475
REMARK  5 active torsions:
REMARK  status: ('A' for Active; 'I' for Inactive)
REMARK    1  A    between atoms: C4_4  and  C5_5 
REMARK    2  A    between atoms: C8_8  and  O9_9 
REMARK    3  A    between atoms: C10_11  and  O11_12 
REMARK    4  A    between atoms: C16_18  and  O17_19 
REMARK    5  A    between atoms: C19_22  and  O20_23 
ROOT
HETATM    1  O1          0      23.312 105.439  -1.028  1.00  0.00    -0.286 OA
HETATM    2  C2          0      23.459 106.687  -1.145  1.00  0.00     0.201 C 
HETATM    3  C3          0      24.076 107.270  -2.238  1.00  0.00     0.067 C 
HETATM    4  C4          0      24.317 108.639  -2.295  1.00  0.00     0.103 C 
HETATM    5  O13         0      23.926 109.394  -1.283  1.00  0.00    -0.307 OA
HETATM    6  C14         0      23.370 108.886  -0.205  1.00  0.00     0.107 C 
HETATM    7  C15         0      23.326 109.585   0.993  1.00  0.00     0.049 C 
HETATM    8  C16         0      22.974 108.957   2.182  1.00  0.00     0.093 C 
HETATM    9  C18         0      22.188 107.821   2.035  1.00  0.00     0.048 C 
HETATM   10  C19         0      22.172 107.124   0.834  1.00  0.00     0.096 C 
HETATM   11  C21         0      22.924 107.569  -0.219  1.00  0.00     0.084 C 
ENDROOT
BRANCH  10  12
HETATM   12  O20         0      21.756 105.796   0.823  1.00  0.00    -0.359 OA
HETATM   13  H20         0      21.989 105.250   1.565  1.00  0.00     0.218 HD
ENDBRANCH  10  12
BRANCH   4  14
HETATM   14  C5          0      25.443 109.087  -3.115  1.00  0.00     0.025 C 
HETATM   15  C6          0      25.754 110.427  -3.299  1.00  0.00     0.004 C 
HETATM   16  C7          0      27.099 110.777  -3.336  1.00  0.00     0.026 C 
HETATM   17  C8          0      28.104 109.816  -3.326  1.00  0.00     0.112 C 
HETATM   18  C10         0      27.711 108.562  -3.775  1.00  0.00     0.112 C 
HETATM   19  C12         0      26.374 108.204  -3.648  1.00  0.00     0.028 C 
BRANCH  17  20
HETATM   20  O9          0      29.320 110.067  -2.714  1.00  0.00    -0.357 OA
HETATM   21  H9          0      29.505 110.851  -2.210  1.00  0.00     0.218 HD
ENDBRANCH  17  20
BRANCH  18  22
HETATM   22  O11         0      28.712 107.620  -3.965  1.00  0.00    -0.357 OA
HETATM   23  H11         0      28.448 106.775  -4.308  1.00  0.00     0.218 HD
ENDBRANCH  18  22
ENDBRANCH   4  14
BRANCH   8  24
HETATM   24  O17         0      23.634 109.246   3.382  1.00  0.00    -0.359 OA
HETATM   25  H17         0      24.508 108.920   3.562  1.00  0.00     0.218 HD
ENDBRANCH   8  24
TORSDOF 5
ENDMDL
MODEL 4
REMARK VINA RESULT:      -4.7      1.868      6.321
REMARK  5 active torsions:
REMARK  status: ('A' for Active; 'I' for Inactive)
REMARK    1  A    between atoms: C4_4  and  C5_5 
REMARK    2  A    between atoms: C8_8  and  O9_9 
REMARK    3  A    between atoms: C10_11  and  O11_12 
REMARK    4  A    between atoms: C16_18  and  O17_19 
REMARK    5  A    between atoms: C19_22  and  O20_23 
ROOT
HETATM    1  O1          0      19.155 107.037   0.088  1.00  0.00    -0.286 OA
HETATM    2  C2          0      20.361 106.670   0.048  1.00  0.00     0.201 C 
HETATM    3  C3          0      20.740 105.339   0.025  1.00  0.00     0.067 C 
HETATM    4  C4          0      22.077 104.961   0.085  1.00  0.00     0.103 C 
HETATM    5  O13         0      23.001 105.903   0.143  1.00  0.00    -0.307 OA
HETATM    6  C14         0      22.694 107.180   0.205  1.00  0.00     0.107 C 
HETATM    7  C15         0      23.598 108.128   0.662  1.00  0.00     0.049 C 
HETATM    8  C16         0      23.195 109.423   0.965  1.00  0.00     0.093 C 
HETATM    9  C18         0      22.046 109.849   0.310  1.00  0.00     0.048 C 
HETATM   10  C19         0      21.142 108.927  -0.200  1.00  0.00     0.096 C 
HETATM   11  C21         0      21.394 107.588  -0.073  1.00  0.00     0.084 C 
ENDROOT
BRANCH  10  12
HETATM   12  O20         0      19.832 109.324  -0.449  1.00  0.00    -0.359 OA
HETATM   13  H20         0      19.671 110.244  -0.619  1.00  0.00     0.218 HD
ENDBRANCH  10  12
BRANCH   4  14
HETATM   14  C5          0      22.376 103.644   0.651  1.00  0.00     0.025 C 
HETATM   15  C6          0      23.086 102.672  -0.040  1.00  0.00     0.004 C 
HETATM   16  C7          0      23.983 101.893   0.684  1.00  0.00     0.026 C 
HETATM   17  C8          0      24.075 101.983   2.069  1.00  0.00     0.112 C 
HETATM   18  C10         0      22.939 102.478   2.694  1.00  0.00     0.112 C 
HETATM   19  C12         0      22.103 103.323   1.974  1.00  0.00     0.028 C 
BRANCH  17  20
HETATM   20  O9          0      25.285 101.791   2.713  1.00  0.00    -0.357 OA
HETATM   21  H9          0      25.593 100.944   3.015  1.00  0.00     0.218 HD
ENDBRANCH  17  20
BRANCH  18  22
HETATM   22  O11         0      22.905 102.412   4.080  1.00  0.00    -0.357 OA
HETATM   23  H11         0      23.614 101.944   4.506  1.00  0.00     0.218 HD
ENDBRANCH  18  22
ENDBRANCH   4  14
BRANCH   8  24
HETATM   24  O17         0      23.702 110.102   2.079  1.00  0.00    -0.359 OA
HETATM   25  H17         0      23.206 110.177   2.886  1.00  0.00     0.218 HD
ENDBRANCH   8  24
TORSDOF 5
ENDMDL
MODEL 5
REMARK VINA RESULT:      -4.7      4.912      7.778
REMARK  5 active torsions:
REMARK  status: ('A' for Active; 'I' for Inactive)
REMARK    1  A    between atoms: C4_4  and  C5_5 
REMARK    2  A    between atoms: C8_8  and  O9_9 
REMARK    3  A    between atoms: C10_11  and  O11_12 
REMARK    4  A    between atoms: C16_18  and  O17_19 
REMARK    5  A    between atoms: C19_22  and  O20_23 
ROOT
HETATM    1  O1          0      25.140 113.405  -2.642  1.00  0.00    -0.286 OA
HETATM    2  C2          0      24.967 112.155  -2.619  1.00  0.00     0.201 C 
HETATM    3  C3          0      23.934 111.553  -1.922  1.00  0.00     0.067 C 
HETATM    4  C4          0      23.826 110.170  -1.829  1.00  0.00     0.103 C 
HETATM    5  O13         0      24.726 109.421  -2.441  1.00  0.00    -0.307 OA
HETATM    6  C14         0      25.748 109.942  -3.085  1.00  0.00     0.107 C 
HETATM    7  C15         0      26.884 109.199  -3.375  1.00  0.00     0.049 C 
HETATM    8  C16         0      28.050 109.809  -3.821  1.00  0.00     0.093 C 
HETATM    9  C18         0      27.869 111.037  -4.447  1.00  0.00     0.048 C 
HETATM   10  C19         0      26.722 111.784  -4.215  1.00  0.00     0.096 C 
HETATM   11  C21         0      25.755 111.301  -3.376  1.00  0.00     0.084 C 
ENDROOT
BRANCH  10  12
HETATM   12  O20         0      26.737 113.151  -4.475  1.00  0.00    -0.359 OA
HETATM   13  H20         0      26.467 113.443  -5.338  1.00  0.00     0.218 HD
ENDBRANCH  10  12
BRANCH   4  14
HETATM   14  C5          0      23.140 109.629  -0.654  1.00  0.00     0.025 C 
HETATM   15  C6          0      23.347 108.338  -0.191  1.00  0.00     0.004 C 
HETATM   16  C7          0      23.375 108.144   1.186  1.00  0.00     0.026 C 
HETATM   17  C8          0      23.074 109.172   2.074  1.00  0.00     0.112 C 
HETATM   18  C10         0      22.290 110.187   1.541  1.00  0.00     0.112 C 
HETATM   19  C12         0      22.346 110.415   0.171  1.00  0.00     0.028 C 
BRANCH  17  20
HETATM   20  O9          0      23.697 109.249   3.307  1.00  0.00    -0.357 OA
HETATM   21  H9          0      23.245 109.131   4.135  1.00  0.00     0.218 HD
ENDBRANCH  17  20
BRANCH  18  22
HETATM   22  O11         0      21.804 111.137   2.428  1.00  0.00    -0.357 OA
HETATM   23  H11         0      22.056 111.043   3.340  1.00  0.00     0.218 HD
ENDBRANCH  18  22
ENDBRANCH   4  14
BRANCH   8  24
HETATM   24  O17         0      29.309 109.390  -3.375  1.00  0.00    -0.359 OA
HETATM   25  H17         0      30.031 109.999  -3.275  1.00  0.00     0.218 HD
ENDBRANCH   8  24
TORSDOF 5
ENDMDL
MODEL 6
REMARK VINA RESULT:      -4.7      1.966      2.639
REMARK  5 active torsions:
REMARK  status: ('A' for Active; 'I' for Inactive)
REMARK    1  A    between atoms: C4_4  and  C5_5 
REMARK    2  A    between atoms: C8_8  and  O9_9 
REMARK    3  A    between atoms: C10_11  and  O11_12 
REMARK    4  A    between atoms: C16_18  and  O17_19 
REMARK    5  A    between atoms: C19_22  and  O20_23 
ROOT
HETATM    1  O1          0      23.751 106.293  -1.060  1.00  0.00    -0.286 OA
HETATM    2  C2          0      23.019 106.025  -0.068  1.00  0.00     0.201 C 
HETATM    3  C3          0      22.267 106.982   0.590  1.00  0.00     0.067 C 
HETATM    4  C4          0      21.550 106.680   1.742  1.00  0.00     0.103 C 
HETATM    5  O13         0      21.577 105.441   2.200  1.00  0.00    -0.307 OA
HETATM    6  C14         0      22.304 104.503   1.635  1.00  0.00     0.107 C 
HETATM    7  C15         0      22.655 103.343   2.310  1.00  0.00     0.049 C 
HETATM    8  C16         0      23.623 102.480   1.810  1.00  0.00     0.093 C 
HETATM    9  C18         0      23.807 102.541   0.434  1.00  0.00     0.048 C 
HETATM   10  C19         0      23.425 103.668  -0.281  1.00  0.00     0.096 C 
HETATM   11  C21         0      22.846 104.721   0.372  1.00  0.00     0.084 C 
ENDROOT
BRANCH  10  12
HETATM   12  O20         0      23.989 103.906  -1.530  1.00  0.00    -0.359 OA
HETATM   13  H20         0      24.673 104.562  -1.592  1.00  0.00     0.218 HD
ENDBRANCH  10  12
BRANCH   4  14
HETATM   14  C5          0      21.303 107.774   2.684  1.00  0.00     0.025 C 
HETATM   15  C6          0      22.325 108.482   3.299  1.00  0.00     0.004 C 
HETATM   16  C7          0      22.148 109.851   3.472  1.00  0.00     0.026 C 
HETATM   17  C8          0      20.943 110.475   3.167  1.00  0.00     0.112 C 
HETATM   18  C10         0      19.837 109.635   3.175  1.00  0.00     0.112 C 
HETATM   19  C12         0      20.032 108.284   2.915  1.00  0.00     0.028 C 
BRANCH  17  20
HETATM   20  O9          0      20.918 111.774   2.691  1.00  0.00    -0.357 OA
HETATM   21  H9          0      20.890 112.541   3.252  1.00  0.00     0.218 HD
ENDBRANCH  17  20
BRANCH  18  22
HETATM   22  O11         0      18.591 110.236   3.065  1.00  0.00    -0.357 OA
HETATM   23  H11         0      18.560 111.089   2.647  1.00  0.00     0.218 HD
ENDBRANCH  18  22
ENDBRANCH   4  14
BRANCH   8  24
HETATM   24  O17         0      24.556 101.864   2.651  1.00  0.00    -0.359 OA
HETATM   25  H17         0      24.379 101.028   3.065  1.00  0.00     0.218 HD
ENDBRANCH   8  24
TORSDOF 5
ENDMDL
MODEL 7
REMARK VINA RESULT:      -4.7      3.752      6.137
REMARK  5 active torsions:
REMARK  status: ('A' for Active; 'I' for Inactive)
REMARK    1  A    between atoms: C4_4  and  C5_5 
REMARK    2  A    between atoms: C8_8  and  O9_9 
REMARK    3  A    between atoms: C10_11  and  O11_12 
REMARK    4  A    between atoms: C16_18  and  O17_19 
REMARK    5  A    between atoms: C19_22  and  O20_23 
ROOT
HETATM    1  O1          0      21.763 105.953   1.312  1.00  0.00    -0.286 OA
HETATM    2  C2          0      22.047 107.116   1.709  1.00  0.00     0.201 C 
HETATM    3  C3          0      21.578 107.637   2.904  1.00  0.00     0.067 C 
HETATM    4  C4          0      21.822 108.956   3.269  1.00  0.00     0.103 C 
HETATM    5  O13         0      22.536 109.717   2.459  1.00  0.00    -0.307 OA
HETATM    6  C14         0      22.973 109.284   1.297  1.00  0.00     0.107 C 
HETATM    7  C15         0      23.360 110.156   0.290  1.00  0.00     0.049 C 
HETATM    8  C16         0      23.575 109.710  -1.009  1.00  0.00     0.093 C 
HETATM    9  C18         0      23.904 108.365  -1.120  1.00  0.00     0.048 C 
HETATM   10  C19         0      23.573 107.472  -0.110  1.00  0.00     0.096 C 
HETATM   11  C21         0      22.933 107.923   1.013  1.00  0.00     0.084 C 
ENDROOT
BRANCH  10  12
HETATM   12  O20         0      23.501 106.113  -0.399  1.00  0.00    -0.359 OA
HETATM   13  H20         0      22.874 105.829  -1.053  1.00  0.00     0.218 HD
ENDBRANCH  10  12
BRANCH   4  14
HETATM   14  C5          0      20.853 109.593   4.163  1.00  0.00     0.025 C 
HETATM   15  C6          0      19.570 109.102   4.354  1.00  0.00     0.004 C 
HETATM   16  C7          0      19.040 109.167   5.639  1.00  0.00     0.026 C 
HETATM   17  C8          0      19.706 109.819   6.671  1.00  0.00     0.112 C 
HETATM   18  C10         0      20.615 110.783   6.256  1.00  0.00     0.112 C 
HETATM   19  C12         0      21.195 110.648   5.000  1.00  0.00     0.028 C 
BRANCH  17  20
HETATM   20  O9          0      19.604 109.370   7.975  1.00  0.00    -0.357 OA
HETATM   21  H9          0      19.999 108.565   8.289  1.00  0.00     0.218 HD
ENDBRANCH  17  20
BRANCH  18  22
HETATM   22  O11         0      21.166 111.592   7.240  1.00  0.00    -0.357 OA
HETATM   23  H11         0      21.970 112.048   7.021  1.00  0.00     0.218 HD
ENDBRANCH  18  22
ENDBRANCH   4  14
BRANCH   8  24
HETATM   24  O17         0      23.164 110.461  -2.115  1.00  0.00    -0.359 OA
HETATM   25  H17         0      22.611 111.228  -2.021  1.00  0.00     0.218 HD
ENDBRANCH   8  24
TORSDOF 5
ENDMDL
MODEL 8
REMARK VINA RESULT:      -4.5      4.126      6.772
REMARK  5 active torsions:
REMARK  status: ('A' for Active; 'I' for Inactive)
REMARK    1  A    between atoms: C4_4  and  C5_5 
REMARK    2  A    between atoms: C8_8  and  O9_9 
REMARK    3  A    between atoms: C10_11  and  O11_12 
REMARK    4  A    between atoms: C16_18  and  O17_19 
REMARK    5  A    between atoms: C19_22  and  O20_23 
ROOT
HETATM    1  O1          0      19.187 107.362   2.432  1.00  0.00    -0.286 OA
HETATM    2  C2          0      20.055 108.068   3.015  1.00  0.00     0.201 C 
HETATM    3  C3          0      19.772 108.830   4.136  1.00  0.00     0.067 C 
HETATM    4  C4          0      20.719 109.678   4.698  1.00  0.00     0.103 C 
HETATM    5  O13         0      21.922 109.736   4.154  1.00  0.00    -0.307 OA
HETATM    6  C14         0      22.231 109.062   3.068  1.00  0.00     0.107 C 
HETATM    7  C15         0      23.316 109.409   2.276  1.00  0.00     0.049 C 
HETATM    8  C16         0      23.489 108.865   1.009  1.00  0.00     0.093 C 
HETATM    9  C18         0      22.877 107.633   0.812  1.00  0.00     0.048 C 
HETATM   10  C19         0      21.818 107.234   1.616  1.00  0.00     0.096 C 
HETATM   11  C21         0      21.384 108.053   2.623  1.00  0.00     0.084 C 
ENDROOT
BRANCH  10  12
HETATM   12  O20         0      20.951 106.246   1.159  1.00  0.00    -0.359 OA
HETATM   13  H20         0      20.398 105.810   1.796  1.00  0.00     0.218 HD
ENDBRANCH  10  12
BRANCH   4  14
HETATM   14  C5          0      20.223 110.841   5.436  1.00  0.00     0.025 C 
HETATM   15  C6          0      19.661 110.746   6.701  1.00  0.00     0.004 C 
HETATM   16  C7          0      19.951 111.756   7.613  1.00  0.00     0.026 C 
HETATM   17  C8          0      20.664 112.891   7.242  1.00  0.00     0.112 C 
HETATM   18  C10         0      20.620 113.185   5.886  1.00  0.00     0.112 C 
HETATM   19  C12         0      20.414 112.143   4.990  1.00  0.00     0.028 C 
BRANCH  17  20
HETATM   20  O9          0      21.506 113.524   8.139  1.00  0.00    -0.357 OA
HETATM   21  H9          0      22.361 113.867   7.908  1.00  0.00     0.218 HD
ENDBRANCH  17  20
BRANCH  18  22
HETATM   22  O11         0      21.153 114.404   5.490  1.00  0.00    -0.357 OA
HETATM   23  H11         0      21.511 114.452   4.611  1.00  0.00     0.218 HD
ENDBRANCH  18  22
ENDBRANCH   4  14
BRANCH   8  24
HETATM   24  O17         0      23.943 109.641  -0.062  1.00  0.00    -0.359 OA
HETATM   25  H17         0      24.853 109.632  -0.336  1.00  0.00     0.218 HD
ENDBRANCH   8  24
TORSDOF 5
ENDMDL
MODEL 9
REMARK VINA RESULT:      -4.5      2.437      6.348
REMARK  5 active torsions:
REMARK  status: ('A' for Active; 'I' for Inactive)
REMARK    1  A    between atoms: C4_4  and  C5_5 
REMARK    2  A    between atoms: C8_8  and  O9_9 
REMARK    3  A    between atoms: C10_11  and  O11_12 
REMARK    4  A    between atoms: C16_18  and  O17_19 
REMARK    5  A    between atoms: C19_22  and  O20_23 
ROOT
HETATM    1  O1          0      24.146 105.508  -4.174  1.00  0.00    -0.286 OA
HETATM    2  C2          0      24.303 105.513  -2.923  1.00  0.00     0.201 C 
HETATM    3  C3          0      24.368 104.353  -2.170  1.00  0.00     0.067 C 
HETATM    4  C4          0      24.438 104.388  -0.782  1.00  0.00     0.103 C 
HETATM    5  O13         0      24.464 105.563  -0.177  1.00  0.00    -0.307 OA
HETATM    6  C14         0      24.368 106.693  -0.842  1.00  0.00     0.107 C 
HETATM    7  C15         0      23.996 107.877  -0.221  1.00  0.00     0.049 C 
HETATM    8  C16         0      23.649 109.002  -0.959  1.00  0.00     0.093 C 
HETATM    9  C18         0      24.190 109.053  -2.239  1.00  0.00     0.048 C 
HETATM   10  C19         0      24.615 107.893  -2.872  1.00  0.00     0.096 C 
HETATM   11  C21         0      24.518 106.692  -2.224  1.00  0.00     0.084 C 
ENDROOT
BRANCH  10  12
HETATM   12  O20         0      24.736 107.879  -4.258  1.00  0.00    -0.359 OA
HETATM   13  H20         0      24.060 107.439  -4.759  1.00  0.00     0.218 HD
ENDBRANCH  10  12
BRANCH   4  14
HETATM   14  C5          0      23.909 103.233  -0.055  1.00  0.00     0.025 C 
HETATM   15  C6          0      23.887 101.953  -0.591  1.00  0.00     0.004 C 
HETATM   16  C7          0      24.162 100.891   0.265  1.00  0.00     0.026 C 
HETATM   17  C8          0      24.321 101.080   1.634  1.00  0.00     0.112 C 
HETATM   18  C10         0      23.715 102.224   2.136  1.00  0.00     0.112 C 
HETATM   19  C12         0      23.529 103.303   1.279  1.00  0.00     0.028 C 
BRANCH  17  20
HETATM   20  O9          0      25.194 100.290   2.362  1.00  0.00    -0.357 OA
HETATM   21  H9          0      25.829 100.636   2.978  1.00  0.00     0.218 HD
ENDBRANCH  17  20
BRANCH  18  22
HETATM   22  O11         0      23.680 102.363   3.516  1.00  0.00    -0.357 OA
HETATM   23  H11         0      24.199 103.066   3.891  1.00  0.00     0.218 HD
ENDBRANCH  18  22
ENDBRANCH   4  14
BRANCH   8  24
HETATM   24  O17         0      22.586 109.827  -0.576  1.00  0.00    -0.359 OA
HETATM   25  H17         0      22.686 110.487   0.100  1.00  0.00     0.218 HD
ENDBRANCH   8  24
TORSDOF 5
ENDMDL
