MODEL 1
REMARK VINA RESULT:      -0.0      0.000      0.000
REMARK  5 active torsions:
REMARK  status: ('A' for Active; 'I' for Inactive)
REMARK    1  A    between atoms: C4_4  and  C5_5 
REMARK    2  A    between atoms: C8_8  and  O9_9 
REMARK    3  A    between atoms: C10_11  and  O11_12 
REMARK    4  A    between atoms: C16_18  and  O17_19 
REMARK    5  A    between atoms: C19_22  and  O20_23 
ROOT
HETATM    1  O1          0      72.931 127.574 -15.617  1.00  0.00    -0.286 OA
HETATM    2  C2          0      74.041 127.219 -16.102  1.00  0.00     0.201 C 
HETATM    3  C3          0      74.703 127.950 -17.073  1.00  0.00     0.067 C 
HETATM    4  C4          0      75.872 127.485 -17.664  1.00  0.00     0.103 C 
HETATM    5  O13         0      76.366 126.325 -17.268  1.00  0.00    -0.307 OA
HETATM    6  C14         0      75.758 125.574 -16.376  1.00  0.00     0.107 C 
HETATM    7  C15         0      76.033 124.221 -16.250  1.00  0.00     0.049 C 
HETATM    8  C16         0      75.219 123.385 -15.495  1.00  0.00     0.093 C 
HETATM    9  C18         0      74.492 124.021 -14.496  1.00  0.00     0.048 C 
HETATM   10  C19         0      74.238 125.384 -14.567  1.00  0.00     0.096 C 
HETATM   11  C21         0      74.721 126.111 -15.620  1.00  0.00     0.084 C 
ENDROOT
BRANCH  10  12
HETATM   12  O20         0      73.181 125.918 -13.836  1.00  0.00    -0.359 OA
HETATM   13  H20         0      73.181 126.853 -13.672  1.00  0.00     0.218 HD
ENDBRANCH  10  12
BRANCH   4  14
HETATM   14  C5          0      76.168 127.950 -19.021  1.00  0.00     0.025 C 
HETATM   15  C6          0      76.933 127.218 -19.917  1.00  0.00     0.004 C 
HETATM   16  C7          0      76.547 127.229 -21.253  1.00  0.00     0.026 C 
HETATM   17  C8          0      75.518 128.046 -21.709  1.00  0.00     0.112 C 
HETATM   18  C10         0      75.264 129.156 -20.914  1.00  0.00     0.112 C 
HETATM   19  C12         0      75.581 129.087 -19.562  1.00  0.00     0.028 C 
BRANCH  17  20
HETATM   20  O9          0      74.699 127.642 -22.748  1.00  0.00    -0.357 OA
HETATM   21  H9          0      74.935 126.967 -23.374  1.00  0.00     0.218 HD
ENDBRANCH  17  20
BRANCH  18  22
HETATM   22  O11         0      74.381 130.100 -21.417  1.00  0.00    -0.357 OA
HETATM   23  H11         0      74.747 130.779 -21.972  1.00  0.00     0.218 HD
ENDBRANCH  18  22
ENDBRANCH   4  14
BRANCH   8  24
HETATM   24  O17         0      74.903 122.092 -15.925  1.00  0.00    -0.359 OA
HETATM   25  H17         0      74.243 121.933 -16.589  1.00  0.00     0.218 HD
ENDBRANCH   8  24
TORSDOF 5
ENDMDL
MODEL 2
REMARK VINA RESULT:      -0.0      8.384      9.510
REMARK  5 active torsions:
REMARK  status: ('A' for Active; 'I' for Inactive)
REMARK    1  A    between atoms: C4_4  and  C5_5 
REMARK    2  A    between atoms: C8_8  and  O9_9 
REMARK    3  A    between atoms: C10_11  and  O11_12 
REMARK    4  A    between atoms: C16_18  and  O17_19 
REMARK    5  A    between atoms: C19_22  and  O20_23 
ROOT
HETATM    1  O1          0      70.869 122.093 -21.659  1.00  0.00    -0.286 OA
HETATM    2  C2          0      71.412 121.518 -22.642  1.00  0.00     0.201 C 
HETATM    3  C3          0      72.266 122.170 -23.515  1.00  0.00     0.067 C 
HETATM    4  C4          0      72.770 121.541 -24.648  1.00  0.00     0.103 C 
HETATM    5  O13         0      72.435 120.284 -24.878  1.00  0.00    -0.307 OA
HETATM    6  C14         0      71.599 119.630 -24.102  1.00  0.00     0.107 C 
HETATM    7  C15         0      70.941 118.488 -24.534  1.00  0.00     0.049 C 
HETATM    8  C16         0      69.879 117.951 -23.817  1.00  0.00     0.093 C 
HETATM    9  C18         0      69.868 118.263 -22.463  1.00  0.00     0.048 C 
HETATM   10  C19         0      70.554 119.373 -21.989  1.00  0.00     0.096 C 
HETATM   11  C21         0      71.261 120.157 -22.860  1.00  0.00     0.084 C 
ENDROOT
BRANCH  10  12
HETATM   12  O20         0      70.197 119.921 -20.761  1.00  0.00    -0.359 OA
HETATM   13  H20         0      70.099 120.864 -20.705  1.00  0.00     0.218 HD
ENDBRANCH  10  12
BRANCH   4  14
HETATM   14  C5          0      73.130 122.393 -25.783  1.00  0.00     0.025 C 
HETATM   15  C6          0      73.119 121.942 -27.095  1.00  0.00     0.004 C 
HETATM   16  C7          0      72.675 122.823 -28.076  1.00  0.00     0.026 C 
HETATM   17  C8          0      72.378 124.150 -27.784  1.00  0.00     0.112 C 
HETATM   18  C10         0      73.004 124.649 -26.650  1.00  0.00     0.112 C 
HETATM   19  C12         0      73.362 123.756 -25.647  1.00  0.00     0.028 C 
BRANCH  17  20
HETATM   20  O9          0      71.374 124.818 -28.464  1.00  0.00    -0.357 OA
HETATM   21  H9          0      70.922 124.462 -29.220  1.00  0.00     0.218 HD
ENDBRANCH  17  20
BRANCH  18  22
HETATM   22  O11         0      72.894 126.013 -26.419  1.00  0.00    -0.357 OA
HETATM   23  H11         0      73.703 126.490 -26.272  1.00  0.00     0.218 HD
ENDBRANCH  18  22
ENDBRANCH   4  14
BRANCH   8  24
HETATM   24  O17         0      68.749 117.436 -24.462  1.00  0.00    -0.359 OA
HETATM   25  H17         0      68.823 116.814 -25.177  1.00  0.00     0.218 HD
ENDBRANCH   8  24
TORSDOF 5
ENDMDL
MODEL 3
REMARK VINA RESULT:       0.0      9.921     12.459
REMARK  5 active torsions:
REMARK  status: ('A' for Active; 'I' for Inactive)
REMARK    1  A    between atoms: C4_4  and  C5_5 
REMARK    2  A    between atoms: C8_8  and  O9_9 
REMARK    3  A    between atoms: C10_11  and  O11_12 
REMARK    4  A    between atoms: C16_18  and  O17_19 
REMARK    5  A    between atoms: C19_22  and  O20_23 
ROOT
HETATM    1  O1          0      65.711 120.739 -19.273  1.00  0.00    -0.286 OA
HETATM    2  C2          0      66.750 120.023 -19.263  1.00  0.00     0.201 C 
HETATM    3  C3          0      66.770 118.723 -19.741  1.00  0.00     0.067 C 
HETATM    4  C4          0      67.900 117.922 -19.626  1.00  0.00     0.103 C 
HETATM    5  O13         0      68.983 118.429 -19.062  1.00  0.00    -0.307 OA
HETATM    6  C14         0      69.005 119.643 -18.558  1.00  0.00     0.107 C 
HETATM    7  C15         0      69.964 120.033 -17.635  1.00  0.00     0.049 C 
HETATM    8  C16         0      69.837 121.218 -16.919  1.00  0.00     0.093 C 
HETATM    9  C18         0      69.053 122.190 -17.529  1.00  0.00     0.048 C 
HETATM   10  C19         0      68.116 121.840 -18.491  1.00  0.00     0.096 C 
HETATM   11  C21         0      67.975 120.528 -18.856  1.00  0.00     0.084 C 
ENDROOT
BRANCH  10  12
HETATM   12  O20         0      67.066 122.710 -18.767  1.00  0.00    -0.359 OA
HETATM   13  H20         0      67.239 123.449 -19.339  1.00  0.00     0.218 HD
ENDBRANCH  10  12
BRANCH   4  14
HETATM   14  C5          0      67.692 116.474 -19.576  1.00  0.00     0.025 C 
HETATM   15  C6          0      68.575 115.608 -18.947  1.00  0.00     0.004 C 
HETATM   16  C7          0      68.036 114.533 -18.247  1.00  0.00     0.026 C 
HETATM   17  C8          0      66.675 114.249 -18.282  1.00  0.00     0.112 C 
HETATM   18  C10         0      66.007 114.747 -19.392  1.00  0.00     0.112 C 
HETATM   19  C12         0      66.521 115.874 -20.022  1.00  0.00     0.028 C 
BRANCH  17  20
HETATM   20  O9          0      66.037 113.703 -17.182  1.00  0.00    -0.357 OA
HETATM   21  H9          0      66.472 113.159 -16.536  1.00  0.00     0.218 HD
ENDBRANCH  17  20
BRANCH  18  22
HETATM   22  O11         0      64.694 114.335 -19.573  1.00  0.00    -0.357 OA
HETATM   23  H11         0      64.050 114.670 -18.959  1.00  0.00     0.218 HD
ENDBRANCH  18  22
ENDBRANCH   4  14
BRANCH   8  24
HETATM   24  O17         0      70.182 121.293 -15.565  1.00  0.00    -0.359 OA
HETATM   25  H17         0      70.754 120.652 -15.160  1.00  0.00     0.218 HD
ENDBRANCH   8  24
TORSDOF 5
ENDMDL
MODEL 4
REMARK VINA RESULT:       0.0     10.671     11.792
REMARK  5 active torsions:
REMARK  status: ('A' for Active; 'I' for Inactive)
REMARK    1  A    between atoms: C4_4  and  C5_5 
REMARK    2  A    between atoms: C8_8  and  O9_9 
REMARK    3  A    between atoms: C10_11  and  O11_12 
REMARK    4  A    between atoms: C16_18  and  O17_19 
REMARK    5  A    between atoms: C19_22  and  O20_23 
ROOT
HETATM    1  O1          0      70.701 120.843 -23.845  1.00  0.00    -0.286 OA
HETATM    2  C2          0      69.503 120.464 -23.736  1.00  0.00     0.201 C 
HETATM    3  C3          0      68.439 121.348 -23.672  1.00  0.00     0.067 C 
HETATM    4  C4          0      67.139 120.909 -23.449  1.00  0.00     0.103 C 
HETATM    5  O13         0      66.921 119.613 -23.316  1.00  0.00    -0.307 OA
HETATM    6  C14         0      67.899 118.734 -23.331  1.00  0.00     0.107 C 
HETATM    7  C15         0      67.745 117.459 -22.805  1.00  0.00     0.049 C 
HETATM    8  C16         0      68.839 116.630 -22.592  1.00  0.00     0.093 C 
HETATM    9  C18         0      69.946 116.901 -23.387  1.00  0.00     0.048 C 
HETATM   10  C19         0      70.108 118.152 -23.967  1.00  0.00     0.096 C 
HETATM   11  C21         0      69.162 119.121 -23.768  1.00  0.00     0.084 C 
ENDROOT
BRANCH  10  12
HETATM   12  O20         0      71.376 118.554 -24.376  1.00  0.00    -0.359 OA
HETATM   13  H20         0      71.834 118.008 -25.004  1.00  0.00     0.218 HD
ENDBRANCH  10  12
BRANCH   4  14
HETATM   14  C5          0      66.215 121.849 -22.810  1.00  0.00     0.025 C 
HETATM   15  C6          0      65.127 121.437 -22.054  1.00  0.00     0.004 C 
HETATM   16  C7          0      64.818 122.172 -20.914  1.00  0.00     0.026 C 
HETATM   17  C8          0      65.483 123.354 -20.606  1.00  0.00     0.112 C 
HETATM   18  C10         0      66.068 123.990 -21.693  1.00  0.00     0.112 C 
HETATM   19  C12         0      66.445 123.218 -22.786  1.00  0.00     0.028 C 
BRANCH  17  20
HETATM   20  O9          0      65.705 123.720 -19.290  1.00  0.00    -0.357 OA
HETATM   21  H9          0      66.448 123.422 -18.778  1.00  0.00     0.218 HD
ENDBRANCH  17  20
BRANCH  18  22
HETATM   22  O11         0      66.579 125.262 -21.476  1.00  0.00    -0.357 OA
HETATM   23  H11         0      67.327 125.520 -22.003  1.00  0.00     0.218 HD
ENDBRANCH  18  22
ENDBRANCH   4  14
BRANCH   8  24
HETATM   24  O17         0      68.932 115.825 -21.451  1.00  0.00    -0.359 OA
HETATM   25  H17         0      69.364 114.979 -21.470  1.00  0.00     0.218 HD
ENDBRANCH   8  24
TORSDOF 5
ENDMDL
MODEL 5
REMARK VINA RESULT:       0.0     12.774     14.023
REMARK  5 active torsions:
REMARK  status: ('A' for Active; 'I' for Inactive)
REMARK    1  A    between atoms: C4_4  and  C5_5 
REMARK    2  A    between atoms: C8_8  and  O9_9 
REMARK    3  A    between atoms: C10_11  and  O11_12 
REMARK    4  A    between atoms: C16_18  and  O17_19 
REMARK    5  A    between atoms: C19_22  and  O20_23 
ROOT
HETATM    1  O1          0      62.934 117.667 -23.055  1.00  0.00    -0.286 OA
HETATM    2  C2          0      63.283 118.549 -22.222  1.00  0.00     0.201 C 
HETATM    3  C3          0      64.504 119.198 -22.284  1.00  0.00     0.067 C 
HETATM    4  C4          0      64.906 120.090 -21.296  1.00  0.00     0.103 C 
HETATM    5  O13         0      64.086 120.333 -20.289  1.00  0.00    -0.307 OA
HETATM    6  C14         0      62.932 119.716 -20.163  1.00  0.00     0.107 C 
HETATM    7  C15         0      62.265 119.655 -18.948  1.00  0.00     0.049 C 
HETATM    8  C16         0      61.188 118.797 -18.758  1.00  0.00     0.093 C 
HETATM    9  C18         0      60.510 118.440 -19.918  1.00  0.00     0.048 C 
HETATM   10  C19         0      61.132 118.533 -21.155  1.00  0.00     0.096 C 
HETATM   11  C21         0      62.417 118.996 -21.236  1.00  0.00     0.084 C 
ENDROOT
BRANCH  10  12
HETATM   12  O20         0      60.639 117.790 -22.223  1.00  0.00    -0.359 OA
HETATM   13  H20         0      61.190 117.104 -22.580  1.00  0.00     0.218 HD
ENDBRANCH  10  12
BRANCH   4  14
HETATM   14  C5          0      66.346 120.256 -21.089  1.00  0.00     0.025 C 
HETATM   15  C6          0      66.891 120.643 -19.874  1.00  0.00     0.004 C 
HETATM   16  C7          0      68.087 120.048 -19.485  1.00  0.00     0.026 C 
HETATM   17  C8          0      68.788 119.199 -20.334  1.00  0.00     0.112 C 
HETATM   18  C10         0      68.520 119.377 -21.685  1.00  0.00     0.112 C 
HETATM   19  C12         0      67.282 119.895 -22.049  1.00  0.00     0.028 C 
BRANCH  17  20
HETATM   20  O9          0      69.519 118.137 -19.830  1.00  0.00    -0.357 OA
HETATM   21  H9          0      69.136 117.304 -19.580  1.00  0.00     0.218 HD
ENDBRANCH  17  20
BRANCH  18  22
HETATM   22  O11         0      69.326 118.691 -22.582  1.00  0.00    -0.357 OA
HETATM   23  H11         0      69.356 119.022 -23.472  1.00  0.00     0.218 HD
ENDBRANCH  18  22
ENDBRANCH   4  14
BRANCH   8  24
HETATM   24  O17         0      61.019 118.093 -17.561  1.00  0.00    -0.359 OA
HETATM   25  H17         0      61.108 118.517 -16.715  1.00  0.00     0.218 HD
ENDBRANCH   8  24
TORSDOF 5
ENDMDL
MODEL 6
REMARK VINA RESULT:       0.0      7.533     11.681
REMARK  5 active torsions:
REMARK  status: ('A' for Active; 'I' for Inactive)
REMARK    1  A    between atoms: C4_4  and  C5_5 
REMARK    2  A    between atoms: C8_8  and  O9_9 
REMARK    3  A    between atoms: C10_11  and  O11_12 
REMARK    4  A    between atoms: C16_18  and  O17_19 
REMARK    5  A    between atoms: C19_22  and  O20_23 
ROOT
HETATM    1  O1          0      68.031 118.857 -15.962  1.00  0.00    -0.286 OA
HETATM    2  C2          0      68.612 119.300 -14.934  1.00  0.00     0.201 C 
HETATM    3  C3          0      68.066 119.209 -13.665  1.00  0.00     0.067 C 
HETATM    4  C4          0      68.679 119.796 -12.563  1.00  0.00     0.103 C 
HETATM    5  O13         0      69.821 120.437 -12.740  1.00  0.00    -0.307 OA
HETATM    6  C14         0      70.363 120.585 -13.928  1.00  0.00     0.107 C 
HETATM    7  C15         0      71.311 121.566 -14.182  1.00  0.00     0.049 C 
HETATM    8  C16         0      71.690 121.886 -15.481  1.00  0.00     0.093 C 
HETATM    9  C18         0      71.503 120.872 -16.412  1.00  0.00     0.048 C 
HETATM   10  C19         0      70.596 119.849 -16.170  1.00  0.00     0.096 C 
HETATM   11  C21         0      69.892 119.830 -14.997  1.00  0.00     0.084 C 
ENDROOT
BRANCH  10  12
HETATM   12  O20         0      70.099 119.112 -17.241  1.00  0.00    -0.359 OA
HETATM   13  H20         0      70.311 118.188 -17.282  1.00  0.00     0.218 HD
ENDBRANCH  10  12
BRANCH   4  14
HETATM   14  C5          0      67.818 120.184 -11.445  1.00  0.00     0.025 C 
HETATM   15  C6          0      68.140 121.211 -10.569  1.00  0.00     0.004 C 
HETATM   16  C7          0      67.105 122.029 -10.127  1.00  0.00     0.026 C 
HETATM   17  C8          0      65.777 121.758 -10.437  1.00  0.00     0.112 C 
HETATM   18  C10         0      65.514 120.430 -10.747  1.00  0.00     0.112 C 
HETATM   19  C12         0      66.545 119.657 -11.268  1.00  0.00     0.028 C 
BRANCH  17  20
HETATM   20  O9          0      64.867 122.784 -10.618  1.00  0.00    -0.357 OA
HETATM   21  H9          0      64.104 122.719 -11.180  1.00  0.00     0.218 HD
ENDBRANCH  17  20
BRANCH  18  22
HETATM   22  O11         0      64.181 120.068 -10.878  1.00  0.00    -0.357 OA
HETATM   23  H11         0      63.850 119.420 -10.267  1.00  0.00     0.218 HD
ENDBRANCH  18  22
ENDBRANCH   4  14
BRANCH   8  24
HETATM   24  O17         0      71.913 123.211 -15.870  1.00  0.00    -0.359 OA
HETATM   25  H17         0      72.784 123.592 -15.867  1.00  0.00     0.218 HD
ENDBRANCH   8  24
TORSDOF 5
ENDMDL
MODEL 7
REMARK VINA RESULT:       0.0      9.274     12.947
REMARK  5 active torsions:
REMARK  status: ('A' for Active; 'I' for Inactive)
REMARK    1  A    between atoms: C4_4  and  C5_5 
REMARK    2  A    between atoms: C8_8  and  O9_9 
REMARK    3  A    between atoms: C10_11  and  O11_12 
REMARK    4  A    between atoms: C16_18  and  O17_19 
REMARK    5  A    between atoms: C19_22  and  O20_23 
ROOT
HETATM    1  O1          0      66.003 121.815 -15.508  1.00  0.00    -0.286 OA
HETATM    2  C2          0      66.643 120.731 -15.420  1.00  0.00     0.201 C 
HETATM    3  C3          0      66.047 119.535 -15.057  1.00  0.00     0.067 C 
HETATM    4  C4          0      66.794 118.378 -14.868  1.00  0.00     0.103 C 
HETATM    5  O13         0      68.100 118.426 -15.061  1.00  0.00    -0.307 OA
HETATM    6  C14         0      68.720 119.544 -15.370  1.00  0.00     0.107 C 
HETATM    7  C15         0      70.086 119.697 -15.184  1.00  0.00     0.049 C 
HETATM    8  C16         0      70.690 120.946 -15.267  1.00  0.00     0.093 C 
HETATM    9  C18         0      70.006 121.878 -16.038  1.00  0.00     0.048 C 
HETATM   10  C19         0      68.648 121.731 -16.283  1.00  0.00     0.096 C 
HETATM   11  C21         0      67.980 120.649 -15.776  1.00  0.00     0.084 C 
ENDROOT
BRANCH  10  12
HETATM   12  O20         0      67.899 122.842 -16.659  1.00  0.00    -0.359 OA
HETATM   13  H20         0      67.522 123.378 -15.971  1.00  0.00     0.218 HD
ENDBRANCH  10  12
BRANCH   4  14
HETATM   14  C5          0      66.254 117.376 -13.946  1.00  0.00     0.025 C 
HETATM   15  C6          0      67.058 116.483 -13.251  1.00  0.00     0.004 C 
HETATM   16  C7          0      66.701 116.180 -11.941  1.00  0.00     0.026 C 
HETATM   17  C8          0      65.514 116.641 -11.383  1.00  0.00     0.112 C 
HETATM   18  C10         0      64.526 116.961 -12.305  1.00  0.00     0.112 C 
HETATM   19  C12         0      64.914 117.344 -13.583  1.00  0.00     0.028 C 
BRANCH  17  20
HETATM   20  O9          0      65.435 116.945 -10.036  1.00  0.00    -0.357 OA
HETATM   21  H9          0      64.962 116.418  -9.402  1.00  0.00     0.218 HD
ENDBRANCH  17  20
BRANCH  18  22
HETATM   22  O11         0      63.264 117.245 -11.801  1.00  0.00    -0.357 OA
HETATM   23  H11         0      63.177 117.278 -10.855  1.00  0.00     0.218 HD
ENDBRANCH  18  22
ENDBRANCH   4  14
BRANCH   8  24
HETATM   24  O17         0      71.706 121.326 -14.383  1.00  0.00    -0.359 OA
HETATM   25  H17         0      71.761 120.971 -13.503  1.00  0.00     0.218 HD
ENDBRANCH   8  24
TORSDOF 5
ENDMDL
MODEL 8
REMARK VINA RESULT:       0.0      2.909      2.990
REMARK  5 active torsions:
REMARK  status: ('A' for Active; 'I' for Inactive)
REMARK    1  A    between atoms: C4_4  and  C5_5 
REMARK    2  A    between atoms: C8_8  and  O9_9 
REMARK    3  A    between atoms: C10_11  and  O11_12 
REMARK    4  A    between atoms: C16_18  and  O17_19 
REMARK    5  A    between atoms: C19_22  and  O20_23 
ROOT
HETATM    1  O1          0      70.123 126.363 -18.599  1.00  0.00    -0.286 OA
HETATM    2  C2          0      71.376 126.236 -18.519  1.00  0.00     0.201 C 
HETATM    3  C3          0      72.258 127.212 -18.949  1.00  0.00     0.067 C 
HETATM    4  C4          0      73.633 127.005 -18.945  1.00  0.00     0.103 C 
HETATM    5  O13         0      74.099 125.852 -18.498  1.00  0.00    -0.307 OA
HETATM    6  C14         0      73.304 124.878 -18.114  1.00  0.00     0.107 C 
HETATM    7  C15         0      73.744 123.565 -18.031  1.00  0.00     0.049 C 
HETATM    8  C16         0      72.850 122.513 -17.875  1.00  0.00     0.093 C 
HETATM    9  C18         0      71.637 122.855 -17.290  1.00  0.00     0.048 C 
HETATM   10  C19         0      71.188 124.169 -17.313  1.00  0.00     0.096 C 
HETATM   11  C21         0      71.954 125.137 -17.903  1.00  0.00     0.084 C 
ENDROOT
BRANCH  10  12
HETATM   12  O20         0      69.833 124.428 -17.134  1.00  0.00    -0.359 OA
HETATM   13  H20         0      69.560 125.334 -17.056  1.00  0.00     0.218 HD
ENDBRANCH  10  12
BRANCH   4  14
HETATM   14  C5          0      74.427 127.757 -19.918  1.00  0.00     0.025 C 
HETATM   15  C6          0      75.644 127.305 -20.406  1.00  0.00     0.004 C 
HETATM   16  C7          0      75.925 127.535 -21.749  1.00  0.00     0.026 C 
HETATM   17  C8          0      75.088 128.306 -22.548  1.00  0.00     0.112 C 
HETATM   18  C10         0      74.288 129.203 -21.853  1.00  0.00     0.112 C 
HETATM   19  C12         0      73.952 128.906 -20.537  1.00  0.00     0.028 C 
BRANCH  17  20
HETATM   20  O9          0      74.937 128.026 -23.894  1.00  0.00    -0.357 OA
HETATM   21  H9          0      75.062 128.667 -24.584  1.00  0.00     0.218 HD
ENDBRANCH  17  20
BRANCH  18  22
HETATM   22  O11         0      73.575 130.125 -22.607  1.00  0.00    -0.357 OA
HETATM   23  H11         0      74.009 130.947 -22.803  1.00  0.00     0.218 HD
ENDBRANCH  18  22
ENDBRANCH   4  14
BRANCH   8  24
HETATM   24  O17         0      73.024 121.301 -18.554  1.00  0.00    -0.359 OA
HETATM   25  H17         0      73.669 120.662 -18.277  1.00  0.00     0.218 HD
ENDBRANCH   8  24
TORSDOF 5
ENDMDL
MODEL 9
REMARK VINA RESULT:       0.0      8.659     11.149
REMARK  5 active torsions:
REMARK  status: ('A' for Active; 'I' for Inactive)
REMARK    1  A    between atoms: C4_4  and  C5_5 
REMARK    2  A    between atoms: C8_8  and  O9_9 
REMARK    3  A    between atoms: C10_11  and  O11_12 
REMARK    4  A    between atoms: C16_18  and  O17_19 
REMARK    5  A    between atoms: C19_22  and  O20_23 
ROOT
HETATM    1  O1          0      73.254 121.201 -22.326  1.00  0.00    -0.286 OA
HETATM    2  C2          0      73.740 120.493 -23.250  1.00  0.00     0.201 C 
HETATM    3  C3          0      74.362 119.278 -23.016  1.00  0.00     0.067 C 
HETATM    4  C4          0      74.980 118.567 -24.038  1.00  0.00     0.103 C 
HETATM    5  O13         0      74.951 119.062 -25.263  1.00  0.00    -0.307 OA
HETATM    6  C14         0      74.407 120.229 -25.533  1.00  0.00     0.107 C 
HETATM    7  C15         0      74.713 120.927 -26.692  1.00  0.00     0.049 C 
HETATM    8  C16         0      74.341 122.257 -26.853  1.00  0.00     0.093 C 
HETATM    9  C18         0      73.248 122.656 -26.094  1.00  0.00     0.048 C 
HETATM   10  C19         0      72.885 121.952 -24.954  1.00  0.00     0.096 C 
HETATM   11  C21         0      73.600 120.845 -24.583  1.00  0.00     0.084 C 
ENDROOT
BRANCH  10  12
HETATM   12  O20         0      72.104 122.578 -23.987  1.00  0.00    -0.359 OA
HETATM   13  H20         0      71.839 122.069 -23.231  1.00  0.00     0.218 HD
ENDBRANCH  10  12
BRANCH   4  14
HETATM   14  C5          0      76.080 117.676 -23.664  1.00  0.00     0.025 C 
HETATM   15  C6          0      77.105 117.340 -24.537  1.00  0.00     0.004 C 
HETATM   16  C7          0      78.389 117.233 -24.012  1.00  0.00     0.026 C 
HETATM   17  C8          0      78.628 117.324 -22.645  1.00  0.00     0.112 C 
HETATM   18  C10         0      77.534 117.024 -21.844  1.00  0.00     0.112 C 
HETATM   19  C12         0      76.261 117.222 -22.365  1.00  0.00     0.028 C 
BRANCH  17  20
HETATM   20  O9          0      79.803 117.876 -22.166  1.00  0.00    -0.357 OA
HETATM   21  H9          0      79.865 118.359 -21.350  1.00  0.00     0.218 HD
ENDBRANCH  17  20
BRANCH  18  22
HETATM   22  O11         0      77.765 116.915 -20.480  1.00  0.00    -0.357 OA
HETATM   23  H11         0      77.025 117.074 -19.904  1.00  0.00     0.218 HD
ENDBRANCH  18  22
ENDBRANCH   4  14
BRANCH   8  24
HETATM   24  O17         0      75.196 123.185 -27.457  1.00  0.00    -0.359 OA
HETATM   25  H17         0      76.139 123.140 -27.348  1.00  0.00     0.218 HD
ENDBRANCH   8  24
TORSDOF 5
ENDMDL
