MODEL 1
REMARK VINA RESULT:      -0.0      0.000      0.000
REMARK  5 active torsions:
REMARK  status: ('A' for Active; 'I' for Inactive)
REMARK    1  A    between atoms: C4_4  and  C5_5 
REMARK    2  A    between atoms: C8_8  and  O9_9 
REMARK    3  A    between atoms: C10_11  and  O11_12 
REMARK    4  A    between atoms: C16_18  and  O17_19 
REMARK    5  A    between atoms: C19_22  and  O20_23 
ROOT
HETATM    1  O1          0      51.461 110.714  41.263  1.00  0.00    -0.286 OA
HETATM    2  C2          0      50.561 110.472  40.413  1.00  0.00     0.201 C 
HETATM    3  C3          0      50.099 109.193  40.154  1.00  0.00     0.067 C 
HETATM    4  C4          0      49.181 108.941  39.140  1.00  0.00     0.103 C 
HETATM    5  O13         0      48.730 109.957  38.426  1.00  0.00    -0.307 OA
HETATM    6  C14         0      49.164 111.185  38.606  1.00  0.00     0.107 C 
HETATM    7  C15         0      49.013 112.163  37.633  1.00  0.00     0.049 C 
HETATM    8  C16         0      49.689 113.374  37.717  1.00  0.00     0.093 C 
HETATM    9  C18         0      50.058 113.753  39.002  1.00  0.00     0.048 C 
HETATM   10  C19         0      50.172 112.806  40.011  1.00  0.00     0.096 C 
HETATM   11  C21         0      49.904 111.492  39.742  1.00  0.00     0.084 C 
ENDROOT
BRANCH  10  12
HETATM   12  O20         0      50.939 113.099  41.135  1.00  0.00    -0.359 OA
HETATM   13  H20         0      51.799 113.479  41.001  1.00  0.00     0.218 HD
ENDBRANCH  10  12
BRANCH   4  14
HETATM   14  C5          0      49.199 107.608  38.536  1.00  0.00     0.025 C 
HETATM   15  C6          0      48.773 107.364  37.239  1.00  0.00     0.004 C 
HETATM   16  C7          0      49.488 106.436  36.489  1.00  0.00     0.026 C 
HETATM   17  C8          0      50.509 105.676  37.050  1.00  0.00     0.112 C 
HETATM   18  C10         0      50.431 105.528  38.428  1.00  0.00     0.112 C 
HETATM   19  C12         0      49.784 106.514  39.163  1.00  0.00     0.028 C 
BRANCH  17  20
HETATM   20  O9          0      51.606 105.297  36.297  1.00  0.00    -0.357 OA
HETATM   21  H9          0      51.872 104.394  36.168  1.00  0.00     0.218 HD
ENDBRANCH  17  20
BRANCH  18  22
HETATM   22  O11         0      51.310 104.629  39.014  1.00  0.00    -0.357 OA
HETATM   23  H11         0      51.172 103.707  38.827  1.00  0.00     0.218 HD
ENDBRANCH  18  22
ENDBRANCH   4  14
BRANCH   8  24
HETATM   24  O17         0      50.244 113.980  36.584  1.00  0.00    -0.359 OA
HETATM   25  H17         0      49.940 113.773  35.708  1.00  0.00     0.218 HD
ENDBRANCH   8  24
TORSDOF 5
ENDMDL
MODEL 2
REMARK VINA RESULT:      -0.0      8.612      9.604
REMARK  5 active torsions:
REMARK  status: ('A' for Active; 'I' for Inactive)
REMARK    1  A    between atoms: C4_4  and  C5_5 
REMARK    2  A    between atoms: C8_8  and  O9_9 
REMARK    3  A    between atoms: C10_11  and  O11_12 
REMARK    4  A    between atoms: C16_18  and  O17_19 
REMARK    5  A    between atoms: C19_22  and  O20_23 
ROOT
HETATM    1  O1          0      52.163 105.508  47.161  1.00  0.00    -0.286 OA
HETATM    2  C2          0      51.287 106.330  47.549  1.00  0.00     0.201 C 
HETATM    3  C3          0      49.999 105.951  47.886  1.00  0.00     0.067 C 
HETATM    4  C4          0      49.026 106.889  48.212  1.00  0.00     0.103 C 
HETATM    5  O13         0      49.353 108.169  48.215  1.00  0.00    -0.307 OA
HETATM    6  C14         0      50.551 108.585  47.866  1.00  0.00     0.107 C 
HETATM    7  C15         0      50.786 109.898  47.483  1.00  0.00     0.049 C 
HETATM    8  C16         0      51.980 110.270  46.877  1.00  0.00     0.093 C 
HETATM    9  C18         0      53.063 109.446  47.158  1.00  0.00     0.048 C 
HETATM   10  C19         0      52.863 108.141  47.588  1.00  0.00     0.096 C 
HETATM   11  C21         0      51.590 107.668  47.753  1.00  0.00     0.084 C 
ENDROOT
BRANCH  10  12
HETATM   12  O20         0      53.891 107.214  47.447  1.00  0.00    -0.359 OA
HETATM   13  H20         0      54.051 106.614  48.166  1.00  0.00     0.218 HD
ENDBRANCH  10  12
BRANCH   4  14
HETATM   14  C5          0      47.631 106.519  47.965  1.00  0.00     0.025 C 
HETATM   15  C6          0      46.637 107.455  47.718  1.00  0.00     0.004 C 
HETATM   16  C7          0      45.668 107.133  46.773  1.00  0.00     0.026 C 
HETATM   17  C8          0      45.609 105.871  46.191  1.00  0.00     0.112 C 
HETATM   18  C10         0      46.202 104.860  46.935  1.00  0.00     0.112 C 
HETATM   19  C12         0      47.227 105.199  47.811  1.00  0.00     0.028 C 
BRANCH  17  20
HETATM   20  O9          0      45.180 105.713  44.885  1.00  0.00    -0.357 OA
HETATM   21  H9          0      44.694 104.956  44.577  1.00  0.00     0.218 HD
ENDBRANCH  17  20
BRANCH  18  22
HETATM   22  O11         0      46.008 103.559  46.495  1.00  0.00    -0.357 OA
HETATM   23  H11         0      45.183 103.145  46.725  1.00  0.00     0.218 HD
ENDBRANCH  18  22
ENDBRANCH   4  14
BRANCH   8  24
HETATM   24  O17         0      52.006 111.184  45.818  1.00  0.00    -0.359 OA
HETATM   25  H17         0      51.250 111.322  45.260  1.00  0.00     0.218 HD
ENDBRANCH   8  24
TORSDOF 5
ENDMDL
MODEL 3
REMARK VINA RESULT:       0.0      5.891      7.415
REMARK  5 active torsions:
REMARK  status: ('A' for Active; 'I' for Inactive)
REMARK    1  A    between atoms: C4_4  and  C5_5 
REMARK    2  A    between atoms: C8_8  and  O9_9 
REMARK    3  A    between atoms: C10_11  and  O11_12 
REMARK    4  A    between atoms: C16_18  and  O17_19 
REMARK    5  A    between atoms: C19_22  and  O20_23 
ROOT
HETATM    1  O1          0      47.396 109.420  37.838  1.00  0.00    -0.286 OA
HETATM    2  C2          0      46.237 109.663  37.403  1.00  0.00     0.201 C 
HETATM    3  C3          0      45.138 109.806  38.234  1.00  0.00     0.067 C 
HETATM    4  C4          0      43.856 109.972  37.723  1.00  0.00     0.103 C 
HETATM    5  O13         0      43.695 110.012  36.412  1.00  0.00    -0.307 OA
HETATM    6  C14         0      44.698 109.844  35.579  1.00  0.00     0.107 C 
HETATM    7  C15         0      44.496 109.488  34.253  1.00  0.00     0.049 C 
HETATM    8  C16         0      45.549 109.065  33.451  1.00  0.00     0.093 C 
HETATM    9  C18         0      46.803 109.514  33.844  1.00  0.00     0.048 C 
HETATM   10  C19         0      47.029 109.922  35.152  1.00  0.00     0.096 C 
HETATM   11  C21         0      46.003 109.898  36.057  1.00  0.00     0.084 C 
ENDROOT
BRANCH  10  12
HETATM   12  O20         0      48.331 109.947  35.642  1.00  0.00    -0.359 OA
HETATM   13  H20         0      49.041 109.812  35.026  1.00  0.00     0.218 HD
ENDBRANCH  10  12
BRANCH   4  14
HETATM   14  C5          0      42.740 109.521  38.557  1.00  0.00     0.025 C 
HETATM   15  C6          0      41.522 109.118  38.029  1.00  0.00     0.004 C 
HETATM   16  C7          0      40.882 108.041  38.635  1.00  0.00     0.026 C 
HETATM   17  C8          0      41.367 107.469  39.806  1.00  0.00     0.112 C 
HETATM   18  C10         0      42.171 108.305  40.569  1.00  0.00     0.112 C 
HETATM   19  C12         0      42.867 109.321  39.925  1.00  0.00     0.028 C 
BRANCH  17  20
HETATM   20  O9          0      41.218 106.115  40.048  1.00  0.00    -0.357 OA
HETATM   21  H9          0      41.094 105.744  40.915  1.00  0.00     0.218 HD
ENDBRANCH  17  20
BRANCH  18  22
HETATM   22  O11         0      42.526 107.853  41.833  1.00  0.00    -0.357 OA
HETATM   23  H11         0      42.662 108.513  42.503  1.00  0.00     0.218 HD
ENDBRANCH  18  22
ENDBRANCH   4  14
BRANCH   8  24
HETATM   24  O17         0      45.395 108.013  32.542  1.00  0.00    -0.359 OA
HETATM   25  H17         0      45.096 107.155  32.818  1.00  0.00     0.218 HD
ENDBRANCH   8  24
TORSDOF 5
ENDMDL
MODEL 4
REMARK VINA RESULT:       0.0      3.873      7.418
REMARK  5 active torsions:
REMARK  status: ('A' for Active; 'I' for Inactive)
REMARK    1  A    between atoms: C4_4  and  C5_5 
REMARK    2  A    between atoms: C8_8  and  O9_9 
REMARK    3  A    between atoms: C10_11  and  O11_12 
REMARK    4  A    between atoms: C16_18  and  O17_19 
REMARK    5  A    between atoms: C19_22  and  O20_23 
ROOT
HETATM    1  O1          0      47.241 110.084  34.616  1.00  0.00    -0.286 OA
HETATM    2  C2          0      48.449 110.031  34.976  1.00  0.00     0.201 C 
HETATM    3  C3          0      48.964 110.819  35.991  1.00  0.00     0.067 C 
HETATM    4  C4          0      50.319 110.817  36.299  1.00  0.00     0.103 C 
HETATM    5  O13         0      51.124 110.024  35.613  1.00  0.00    -0.307 OA
HETATM    6  C14         0      50.693 109.284  34.616  1.00  0.00     0.107 C 
HETATM    7  C15         0      51.557 108.774  33.657  1.00  0.00     0.049 C 
HETATM    8  C16         0      51.079 108.216  32.478  1.00  0.00     0.093 C 
HETATM    9  C18         0      49.781 107.722  32.547  1.00  0.00     0.048 C 
HETATM   10  C19         0      48.905 108.175  33.523  1.00  0.00     0.096 C 
HETATM   11  C21         0      49.326 109.104  34.435  1.00  0.00     0.084 C 
ENDROOT
BRANCH  10  12
HETATM   12  O20         0      47.535 108.025  33.330  1.00  0.00    -0.359 OA
HETATM   13  H20         0      46.949 108.497  33.910  1.00  0.00     0.218 HD
ENDBRANCH  10  12
BRANCH   4  14
HETATM   14  C5          0      50.872 112.031  36.902  1.00  0.00     0.025 C 
HETATM   15  C6          0      52.204 112.396  36.771  1.00  0.00     0.004 C 
HETATM   16  C7          0      52.489 113.749  36.612  1.00  0.00     0.026 C 
HETATM   17  C8          0      51.498 114.720  36.713  1.00  0.00     0.112 C 
HETATM   18  C10         0      50.384 114.337  37.449  1.00  0.00     0.112 C 
HETATM   19  C12         0      50.074 112.984  37.521  1.00  0.00     0.028 C 
BRANCH  17  20
HETATM   20  O9          0      51.558 115.875  35.955  1.00  0.00    -0.357 OA
HETATM   21  H9          0      51.229 115.941  35.066  1.00  0.00     0.218 HD
ENDBRANCH  17  20
BRANCH  18  22
HETATM   22  O11         0      49.454 115.324  37.740  1.00  0.00    -0.357 OA
HETATM   23  H11         0      49.728 116.009  38.339  1.00  0.00     0.218 HD
ENDBRANCH  18  22
ENDBRANCH   4  14
BRANCH   8  24
HETATM   24  O17         0      51.716 108.441  31.253  1.00  0.00    -0.359 OA
HETATM   25  H17         0      51.225 108.628  30.461  1.00  0.00     0.218 HD
ENDBRANCH   8  24
TORSDOF 5
ENDMDL
MODEL 5
REMARK VINA RESULT:       0.0      4.508      6.302
REMARK  5 active torsions:
REMARK  status: ('A' for Active; 'I' for Inactive)
REMARK    1  A    between atoms: C4_4  and  C5_5 
REMARK    2  A    between atoms: C8_8  and  O9_9 
REMARK    3  A    between atoms: C10_11  and  O11_12 
REMARK    4  A    between atoms: C16_18  and  O17_19 
REMARK    5  A    between atoms: C19_22  and  O20_23 
ROOT
HETATM    1  O1          0      45.182 112.610  34.802  1.00  0.00    -0.286 OA
HETATM    2  C2          0      46.044 111.925  35.418  1.00  0.00     0.201 C 
HETATM    3  C3          0      47.353 111.800  34.984  1.00  0.00     0.067 C 
HETATM    4  C4          0      48.255 110.957  35.624  1.00  0.00     0.103 C 
HETATM    5  O13         0      47.849 110.279  36.682  1.00  0.00    -0.307 OA
HETATM    6  C14         0      46.608 110.332  37.113  1.00  0.00     0.107 C 
HETATM    7  C15         0      46.079 109.352  37.941  1.00  0.00     0.049 C 
HETATM    8  C16         0      44.713 109.273  38.184  1.00  0.00     0.093 C 
HETATM    9  C18         0      44.018 110.466  38.021  1.00  0.00     0.048 C 
HETATM   10  C19         0      44.540 111.485  37.237  1.00  0.00     0.096 C 
HETATM   11  C21         0      45.757 111.322  36.633  1.00  0.00     0.084 C 
ENDROOT
BRANCH  10  12
HETATM   12  O20         0      43.686 112.459  36.730  1.00  0.00    -0.359 OA
HETATM   13  H20         0      43.424 113.166  37.307  1.00  0.00     0.218 HD
ENDBRANCH  10  12
BRANCH   4  14
HETATM   14  C5          0      49.354 110.419  34.820  1.00  0.00     0.025 C 
HETATM   15  C6          0      49.979 109.215  35.111  1.00  0.00     0.004 C 
HETATM   16  C7          0      50.351 108.406  34.042  1.00  0.00     0.026 C 
HETATM   17  C8          0      50.229 108.837  32.725  1.00  0.00     0.112 C 
HETATM   18  C10         0      50.208 110.216  32.565  1.00  0.00     0.112 C 
HETATM   19  C12         0      49.752 110.996  33.621  1.00  0.00     0.028 C 
BRANCH  17  20
HETATM   20  O9          0      49.939 107.941  31.711  1.00  0.00    -0.357 OA
HETATM   21  H9          0      49.108 107.916  31.251  1.00  0.00     0.218 HD
ENDBRANCH  17  20
BRANCH  18  22
HETATM   22  O11         0      50.279 110.699  31.267  1.00  0.00    -0.357 OA
HETATM   23  H11         0      49.957 110.129  30.578  1.00  0.00     0.218 HD
ENDBRANCH  18  22
ENDBRANCH   4  14
BRANCH   8  24
HETATM   24  O17         0      44.054 108.041  38.250  1.00  0.00    -0.359 OA
HETATM   25  H17         0      43.271 107.921  38.774  1.00  0.00     0.218 HD
ENDBRANCH   8  24
TORSDOF 5
ENDMDL
MODEL 6
REMARK VINA RESULT:       0.0      5.636      9.746
REMARK  5 active torsions:
REMARK  status: ('A' for Active; 'I' for Inactive)
REMARK    1  A    between atoms: C4_4  and  C5_5 
REMARK    2  A    between atoms: C8_8  and  O9_9 
REMARK    3  A    between atoms: C10_11  and  O11_12 
REMARK    4  A    between atoms: C16_18  and  O17_19 
REMARK    5  A    between atoms: C19_22  and  O20_23 
ROOT
HETATM    1  O1          0      45.473 112.910  42.085  1.00  0.00    -0.286 OA
HETATM    2  C2          0      46.193 113.797  41.549  1.00  0.00     0.201 C 
HETATM    3  C3          0      46.406 115.039  42.123  1.00  0.00     0.067 C 
HETATM    4  C4          0      47.118 116.034  41.463  1.00  0.00     0.103 C 
HETATM    5  O13         0      47.618 115.771  40.269  1.00  0.00    -0.307 OA
HETATM    6  C14         0      47.414 114.621  39.663  1.00  0.00     0.107 C 
HETATM    7  C15         0      47.576 114.478  38.293  1.00  0.00     0.049 C 
HETATM    8  C16         0      47.119 113.348  37.626  1.00  0.00     0.093 C 
HETATM    9  C18         0      47.002 112.209  38.413  1.00  0.00     0.048 C 
HETATM   10  C19         0      46.885 112.314  39.793  1.00  0.00     0.096 C 
HETATM   11  C21         0      46.901 113.548  40.383  1.00  0.00     0.084 C 
ENDROOT
BRANCH  10  12
HETATM   12  O20         0      46.342 111.253  40.512  1.00  0.00    -0.359 OA
HETATM   13  H20         0      46.822 110.434  40.527  1.00  0.00     0.218 HD
ENDBRANCH  10  12
BRANCH   4  14
HETATM   14  C5          0      46.804 117.422  41.806  1.00  0.00     0.025 C 
HETATM   15  C6          0      46.992 118.475  40.923  1.00  0.00     0.004 C 
HETATM   16  C7          0      46.039 119.488  40.915  1.00  0.00     0.026 C 
HETATM   17  C8          0      45.005 119.524  41.845  1.00  0.00     0.112 C 
HETATM   18  C10         0      45.260 118.833  43.022  1.00  0.00     0.112 C 
HETATM   19  C12         0      46.154 117.769  42.983  1.00  0.00     0.028 C 
BRANCH  17  20
HETATM   20  O9          0      43.763 120.032  41.506  1.00  0.00    -0.357 OA
HETATM   21  H9          0      43.570 120.439  40.669  1.00  0.00     0.218 HD
ENDBRANCH  17  20
BRANCH  18  22
HETATM   22  O11         0      44.346 118.991  44.054  1.00  0.00    -0.357 OA
HETATM   23  H11         0      44.658 119.422  44.842  1.00  0.00     0.218 HD
ENDBRANCH  18  22
ENDBRANCH   4  14
BRANCH   8  24
HETATM   24  O17         0      46.511 113.439  36.369  1.00  0.00    -0.359 OA
HETATM   25  H17         0      46.918 113.909  35.651  1.00  0.00     0.218 HD
ENDBRANCH   8  24
TORSDOF 5
ENDMDL
MODEL 7
REMARK VINA RESULT:       0.0      8.673      9.811
REMARK  5 active torsions:
REMARK  status: ('A' for Active; 'I' for Inactive)
REMARK    1  A    between atoms: C4_4  and  C5_5 
REMARK    2  A    between atoms: C8_8  and  O9_9 
REMARK    3  A    between atoms: C10_11  and  O11_12 
REMARK    4  A    between atoms: C16_18  and  O17_19 
REMARK    5  A    between atoms: C19_22  and  O20_23 
ROOT
HETATM    1  O1          0      42.747 109.829  36.441  1.00  0.00    -0.286 OA
HETATM    2  C2          0      42.166 109.094  35.595  1.00  0.00     0.201 C 
HETATM    3  C3          0      41.220 108.147  35.948  1.00  0.00     0.067 C 
HETATM    4  C4          0      40.672 107.281  35.009  1.00  0.00     0.103 C 
HETATM    5  O13         0      41.054 107.385  33.749  1.00  0.00    -0.307 OA
HETATM    6  C14         0      41.976 108.242  33.367  1.00  0.00     0.107 C 
HETATM    7  C15         0      42.660 108.094  32.169  1.00  0.00     0.049 C 
HETATM    8  C16         0      43.797 108.843  31.890  1.00  0.00     0.093 C 
HETATM    9  C18         0      43.887 110.050  32.572  1.00  0.00     0.048 C 
HETATM   10  C19         0      43.179 110.249  33.750  1.00  0.00     0.096 C 
HETATM   11  C21         0      42.373 109.255  34.234  1.00  0.00     0.084 C 
ENDROOT
BRANCH  10  12
HETATM   12  O20         0      43.593 111.241  34.633  1.00  0.00    -0.359 OA
HETATM   13  H20         0      43.998 112.019  34.270  1.00  0.00     0.218 HD
ENDBRANCH  10  12
BRANCH   4  14
HETATM   14  C5          0      40.189 105.986  35.494  1.00  0.00     0.025 C 
HETATM   15  C6          0      40.131 104.857  34.691  1.00  0.00     0.004 C 
HETATM   16  C7          0      40.459 103.636  35.272  1.00  0.00     0.026 C 
HETATM   17  C8          0      40.706 103.519  36.635  1.00  0.00     0.112 C 
HETATM   18  C10         0      40.135 104.516  37.415  1.00  0.00     0.112 C 
HETATM   19  C12         0      39.896 105.755  36.832  1.00  0.00     0.028 C 
BRANCH  17  20
HETATM   20  O9          0      41.623 102.600  37.114  1.00  0.00    -0.357 OA
HETATM   21  H9          0      41.982 101.892  36.592  1.00  0.00     0.218 HD
ENDBRANCH  17  20
BRANCH  18  22
HETATM   22  O11         0      40.189 104.346  38.791  1.00  0.00    -0.357 OA
HETATM   23  H11         0      39.909 105.079  39.326  1.00  0.00     0.218 HD
ENDBRANCH  18  22
ENDBRANCH   4  14
BRANCH   8  24
HETATM   24  O17         0      44.904 108.277  31.247  1.00  0.00    -0.359 OA
HETATM   25  H17         0      44.914 108.127  30.309  1.00  0.00     0.218 HD
ENDBRANCH   8  24
TORSDOF 5
ENDMDL
MODEL 8
REMARK VINA RESULT:       0.0      6.262      9.051
REMARK  5 active torsions:
REMARK  status: ('A' for Active; 'I' for Inactive)
REMARK    1  A    between atoms: C4_4  and  C5_5 
REMARK    2  A    between atoms: C8_8  and  O9_9 
REMARK    3  A    between atoms: C10_11  and  O11_12 
REMARK    4  A    between atoms: C16_18  and  O17_19 
REMARK    5  A    between atoms: C19_22  and  O20_23 
ROOT
HETATM    1  O1          0      55.981 114.545  45.281  1.00  0.00    -0.286 OA
HETATM    2  C2          0      54.852 113.993  45.392  1.00  0.00     0.201 C 
HETATM    3  C3          0      54.240 113.318  44.349  1.00  0.00     0.067 C 
HETATM    4  C4          0      52.953 112.807  44.468  1.00  0.00     0.103 C 
HETATM    5  O13         0      52.313 112.957  45.615  1.00  0.00    -0.307 OA
HETATM    6  C14         0      52.833 113.621  46.623  1.00  0.00     0.107 C 
HETATM    7  C15         0      52.048 114.121  47.652  1.00  0.00     0.049 C 
HETATM    8  C16         0      52.556 115.030  48.571  1.00  0.00     0.093 C 
HETATM    9  C18         0      53.936 114.990  48.736  1.00  0.00     0.048 C 
HETATM   10  C19         0      54.748 114.453  47.746  1.00  0.00     0.096 C 
HETATM   11  C21         0      54.186 113.944  46.607  1.00  0.00     0.084 C 
ENDROOT
BRANCH  10  12
HETATM   12  O20         0      56.095 114.801  47.709  1.00  0.00    -0.359 OA
HETATM   13  H20         0      56.669 114.298  47.144  1.00  0.00     0.218 HD
ENDBRANCH  10  12
BRANCH   4  14
HETATM   14  C5          0      52.171 112.670  43.238  1.00  0.00     0.025 C 
HETATM   15  C6          0      50.784 112.707  43.220  1.00  0.00     0.004 C 
HETATM   16  C7          0      50.170 113.355  42.153  1.00  0.00     0.026 C 
HETATM   17  C8          0      50.901 113.834  41.072  1.00  0.00     0.112 C 
HETATM   18  C10         0      52.127 113.211  40.880  1.00  0.00     0.112 C 
HETATM   19  C12         0      52.760 112.645  41.980  1.00  0.00     0.028 C 
BRANCH  17  20
HETATM   20  O9          0      50.507 114.977  40.399  1.00  0.00    -0.357 OA
HETATM   21  H9          0      50.191 115.762  40.832  1.00  0.00     0.218 HD
ENDBRANCH  17  20
BRANCH  18  22
HETATM   22  O11         0      52.811 113.516  39.711  1.00  0.00    -0.357 OA
HETATM   23  H11         0      52.422 114.173  39.145  1.00  0.00     0.218 HD
ENDBRANCH  18  22
ENDBRANCH   4  14
BRANCH   8  24
HETATM   24  O17         0      51.792 116.110  49.029  1.00  0.00    -0.359 OA
HETATM   25  H17         0      52.166 116.977  49.132  1.00  0.00     0.218 HD
ENDBRANCH   8  24
TORSDOF 5
ENDMDL
MODEL 9
REMARK VINA RESULT:       0.0      8.285      9.831
REMARK  5 active torsions:
REMARK  status: ('A' for Active; 'I' for Inactive)
REMARK    1  A    between atoms: C4_4  and  C5_5 
REMARK    2  A    between atoms: C8_8  and  O9_9 
REMARK    3  A    between atoms: C10_11  and  O11_12 
REMARK    4  A    between atoms: C16_18  and  O17_19 
REMARK    5  A    between atoms: C19_22  and  O20_23 
ROOT
HETATM    1  O1          0      46.124 107.002  33.430  1.00  0.00    -0.286 OA
HETATM    2  C2          0      45.751 105.807  33.266  1.00  0.00     0.201 C 
HETATM    3  C3          0      44.647 105.271  33.907  1.00  0.00     0.067 C 
HETATM    4  C4          0      44.319 103.925  33.789  1.00  0.00     0.103 C 
HETATM    5  O13         0      45.074 103.152  33.029  1.00  0.00    -0.307 OA
HETATM    6  C14         0      46.154 103.602  32.429  1.00  0.00     0.107 C 
HETATM    7  C15         0      47.148 102.747  31.976  1.00  0.00     0.049 C 
HETATM    8  C16         0      48.390 103.230  31.579  1.00  0.00     0.093 C 
HETATM    9  C18         0      48.397 104.554  31.160  1.00  0.00     0.048 C 
HETATM   10  C19         0      47.392 105.426  31.556  1.00  0.00     0.096 C 
HETATM   11  C21         0      46.376 104.973  32.352  1.00  0.00     0.084 C 
ENDROOT
BRANCH  10  12
HETATM   12  O20         0      47.623 106.797  31.510  1.00  0.00    -0.359 OA
HETATM   13  H20         0      46.922 107.376  31.784  1.00  0.00     0.218 HD
ENDBRANCH  10  12
BRANCH   4  14
HETATM   14  C5          0      43.577 103.318  34.895  1.00  0.00     0.025 C 
HETATM   15  C6          0      43.643 101.964  35.192  1.00  0.00     0.004 C 
HETATM   16  C7          0      43.648 101.598  36.534  1.00  0.00     0.026 C 
HETATM   17  C8          0      43.457 102.533  37.546  1.00  0.00     0.112 C 
HETATM   18  C10         0      42.787 103.684  37.153  1.00  0.00     0.112 C 
HETATM   19  C12         0      42.869 104.074  35.821  1.00  0.00     0.028 C 
BRANCH  17  20
HETATM   20  O9          0      44.082 102.389  38.772  1.00  0.00    -0.357 OA
HETATM   21  H9          0      44.193 101.554  39.213  1.00  0.00     0.218 HD
ENDBRANCH  17  20
BRANCH  18  22
HETATM   22  O11         0      42.404 104.562  38.157  1.00  0.00    -0.357 OA
HETATM   23  H11         0      41.528 104.456  38.509  1.00  0.00     0.218 HD
ENDBRANCH  18  22
ENDBRANCH   4  14
BRANCH   8  24
HETATM   24  O17         0      49.572 102.552  31.898  1.00  0.00    -0.359 OA
HETATM   25  H17         0      50.426 102.936  31.739  1.00  0.00     0.218 HD
ENDBRANCH   8  24
TORSDOF 5
ENDMDL
