MODEL 1
REMARK VINA RESULT:      -6.5      0.000      0.000
REMARK  5 active torsions:
REMARK  status: ('A' for Active; 'I' for Inactive)
REMARK    1  A    between atoms: C4_4  and  C5_5 
REMARK    2  A    between atoms: C8_8  and  O9_9 
REMARK    3  A    between atoms: C10_11  and  O11_12 
REMARK    4  A    between atoms: C16_18  and  O17_19 
REMARK    5  A    between atoms: C19_22  and  O20_23 
ROOT
HETATM    1  O1          0      44.757  46.091 -10.670  1.00  0.00    -0.286 OA
HETATM    2  C2          0      44.752  46.465 -11.874  1.00  0.00     0.201 C 
HETATM    3  C3          0      44.315  45.656 -12.910  1.00  0.00     0.067 C 
HETATM    4  C4          0      44.416  46.055 -14.238  1.00  0.00     0.103 C 
HETATM    5  O13         0      44.923  47.246 -14.506  1.00  0.00    -0.307 OA
HETATM    6  C14         0      45.386  48.037 -13.564  1.00  0.00     0.107 C 
HETATM    7  C15         0      46.261  49.076 -13.847  1.00  0.00     0.049 C 
HETATM    8  C16         0      46.942  49.742 -12.834  1.00  0.00     0.093 C 
HETATM    9  C18         0      46.330  49.696 -11.587  1.00  0.00     0.048 C 
HETATM   10  C19         0      45.414  48.697 -11.287  1.00  0.00     0.096 C 
HETATM   11  C21         0      45.098  47.759 -12.232  1.00  0.00     0.084 C 
ENDROOT
BRANCH  10  12
HETATM   12  O20         0      45.149  48.396  -9.955  1.00  0.00    -0.359 OA
HETATM   13  H20         0      44.262  48.145  -9.723  1.00  0.00     0.218 HD
ENDBRANCH  10  12
BRANCH   4  14
HETATM   14  C5          0      44.520  45.001 -15.248  1.00  0.00     0.025 C 
HETATM   15  C6          0      43.436  44.232 -15.647  1.00  0.00     0.004 C 
HETATM   16  C7          0      43.344  43.898 -16.994  1.00  0.00     0.026 C 
HETATM   17  C8          0      44.362  44.201 -17.892  1.00  0.00     0.112 C 
HETATM   18  C10         0      45.612  44.375 -17.314  1.00  0.00     0.112 C 
HETATM   19  C12         0      45.675  44.792 -15.990  1.00  0.00     0.028 C 
BRANCH  17  20
HETATM   20  O9          0      44.075  44.507 -19.211  1.00  0.00    -0.357 OA
HETATM   21  H9          0      44.647  44.291 -19.939  1.00  0.00     0.218 HD
ENDBRANCH  17  20
BRANCH  18  22
HETATM   22  O11         0      46.692  44.492 -18.177  1.00  0.00    -0.357 OA
HETATM   23  H11         0      47.487  44.030 -17.936  1.00  0.00     0.218 HD
ENDBRANCH  18  22
ENDBRANCH   4  14
BRANCH   8  24
HETATM   24  O17         0      48.279  50.125 -12.985  1.00  0.00    -0.359 OA
HETATM   25  H17         0      48.989  49.614 -12.614  1.00  0.00     0.218 HD
ENDBRANCH   8  24
TORSDOF 5
ENDMDL
MODEL 2
REMARK VINA RESULT:      -6.0      1.650      2.104
REMARK  5 active torsions:
REMARK  status: ('A' for Active; 'I' for Inactive)
REMARK    1  A    between atoms: C4_4  and  C5_5 
REMARK    2  A    between atoms: C8_8  and  O9_9 
REMARK    3  A    between atoms: C10_11  and  O11_12 
REMARK    4  A    between atoms: C16_18  and  O17_19 
REMARK    5  A    between atoms: C19_22  and  O20_23 
ROOT
HETATM    1  O1          0      44.637  45.802 -10.532  1.00  0.00    -0.286 OA
HETATM    2  C2          0      44.619  46.148 -11.746  1.00  0.00     0.201 C 
HETATM    3  C3          0      44.187  45.309 -12.759  1.00  0.00     0.067 C 
HETATM    4  C4          0      44.274  45.677 -14.096  1.00  0.00     0.103 C 
HETATM    5  O13         0      44.763  46.868 -14.397  1.00  0.00    -0.307 OA
HETATM    6  C14         0      45.221  47.687 -13.476  1.00  0.00     0.107 C 
HETATM    7  C15         0      46.080  48.731 -13.789  1.00  0.00     0.049 C 
HETATM    8  C16         0      46.758  49.430 -12.798  1.00  0.00     0.093 C 
HETATM    9  C18         0      46.155  49.405 -11.546  1.00  0.00     0.048 C 
HETATM   10  C19         0      45.255  48.402 -11.216  1.00  0.00     0.096 C 
HETATM   11  C21         0      44.945  47.438 -12.136  1.00  0.00     0.084 C 
ENDROOT
BRANCH  10  12
HETATM   12  O20         0      45.002  48.129  -9.875  1.00  0.00    -0.359 OA
HETATM   13  H20         0      45.281  48.767  -9.230  1.00  0.00     0.218 HD
ENDBRANCH  10  12
BRANCH   4  14
HETATM   14  C5          0      44.386  44.600 -15.082  1.00  0.00     0.025 C 
HETATM   15  C6          0      45.409  43.664 -15.059  1.00  0.00     0.004 C 
HETATM   16  C7          0      45.089  42.351 -15.390  1.00  0.00     0.026 C 
HETATM   17  C8          0      43.826  42.004 -15.857  1.00  0.00     0.112 C 
HETATM   18  C10         0      43.113  43.047 -16.432  1.00  0.00     0.112 C 
HETATM   19  C12         0      43.395  44.345 -16.021  1.00  0.00     0.028 C 
BRANCH  17  20
HETATM   20  O9          0      43.277  40.768 -15.563  1.00  0.00    -0.357 OA
HETATM   21  H9          0      42.344  40.590 -15.569  1.00  0.00     0.218 HD
ENDBRANCH  17  20
BRANCH  18  22
HETATM   22  O11         0      41.932  42.718 -17.081  1.00  0.00    -0.357 OA
HETATM   23  H11         0      41.961  41.982 -17.681  1.00  0.00     0.218 HD
ENDBRANCH  18  22
ENDBRANCH   4  14
BRANCH   8  24
HETATM   24  O17         0      48.089  49.827 -12.966  1.00  0.00    -0.359 OA
HETATM   25  H17         0      48.660  49.986 -12.223  1.00  0.00     0.218 HD
ENDBRANCH   8  24
TORSDOF 5
ENDMDL
MODEL 3
REMARK VINA RESULT:      -5.6      3.025      6.815
REMARK  5 active torsions:
REMARK  status: ('A' for Active; 'I' for Inactive)
REMARK    1  A    between atoms: C4_4  and  C5_5 
REMARK    2  A    between atoms: C8_8  and  O9_9 
REMARK    3  A    between atoms: C10_11  and  O11_12 
REMARK    4  A    between atoms: C16_18  and  O17_19 
REMARK    5  A    between atoms: C19_22  and  O20_23 
ROOT
HETATM    1  O1          0      46.753  44.633 -16.042  1.00  0.00    -0.286 OA
HETATM    2  C2          0      46.355  44.384 -14.871  1.00  0.00     0.201 C 
HETATM    3  C3          0      45.519  45.233 -14.166  1.00  0.00     0.067 C 
HETATM    4  C4          0      45.178  44.986 -12.842  1.00  0.00     0.103 C 
HETATM    5  O13         0      45.653  43.900 -12.256  1.00  0.00    -0.307 OA
HETATM    6  C14         0      46.479  43.080 -12.868  1.00  0.00     0.107 C 
HETATM    7  C15         0      47.280  42.191 -12.166  1.00  0.00     0.049 C 
HETATM    8  C16         0      48.324  41.515 -12.786  1.00  0.00     0.093 C 
HETATM    9  C18         0      48.188  41.360 -14.160  1.00  0.00     0.048 C 
HETATM   10  C19         0      47.359  42.203 -14.887  1.00  0.00     0.096 C 
HETATM   11  C21         0      46.657  43.185 -14.243  1.00  0.00     0.084 C 
ENDROOT
BRANCH  10  12
HETATM   12  O20         0      47.555  42.333 -16.259  1.00  0.00    -0.359 OA
HETATM   13  H20         0      48.095  43.052 -16.565  1.00  0.00     0.218 HD
ENDBRANCH  10  12
BRANCH   4  14
HETATM   14  C5          0      44.836  46.142 -12.011  1.00  0.00     0.025 C 
HETATM   15  C6          0      44.696  46.062 -10.633  1.00  0.00     0.004 C 
HETATM   16  C7          0      45.165  47.130  -9.875  1.00  0.00     0.026 C 
HETATM   17  C8          0      45.635  48.297 -10.470  1.00  0.00     0.112 C 
HETATM   18  C10         0      45.156  48.526 -11.753  1.00  0.00     0.112 C 
HETATM   19  C12         0      44.774  47.432 -12.521  1.00  0.00     0.028 C 
BRANCH  17  20
HETATM   20  O9          0      46.655  49.028  -9.888  1.00  0.00    -0.357 OA
HETATM   21  H9          0      47.495  48.659  -9.642  1.00  0.00     0.218 HD
ENDBRANCH  17  20
BRANCH  18  22
HETATM   22  O11         0      45.440  49.761 -12.318  1.00  0.00    -0.357 OA
HETATM   23  H11         0      44.748  50.172 -12.824  1.00  0.00     0.218 HD
ENDBRANCH  18  22
ENDBRANCH   4  14
BRANCH   8  24
HETATM   24  O17         0      49.550  41.317 -12.141  1.00  0.00    -0.359 OA
HETATM   25  H17         0      49.610  41.241 -11.196  1.00  0.00     0.218 HD
ENDBRANCH   8  24
TORSDOF 5
ENDMDL
MODEL 4
REMARK VINA RESULT:      -5.5      3.229      6.481
REMARK  5 active torsions:
REMARK  status: ('A' for Active; 'I' for Inactive)
REMARK    1  A    between atoms: C4_4  and  C5_5 
REMARK    2  A    between atoms: C8_8  and  O9_9 
REMARK    3  A    between atoms: C10_11  and  O11_12 
REMARK    4  A    between atoms: C16_18  and  O17_19 
REMARK    5  A    between atoms: C19_22  and  O20_23 
ROOT
HETATM    1  O1          0      48.111  43.771 -16.363  1.00  0.00    -0.286 OA
HETATM    2  C2          0      47.362  43.864 -15.352  1.00  0.00     0.201 C 
HETATM    3  C3          0      46.455  44.895 -15.182  1.00  0.00     0.067 C 
HETATM    4  C4          0      45.715  45.030 -14.012  1.00  0.00     0.103 C 
HETATM    5  O13         0      45.875  44.135 -13.054  1.00  0.00    -0.307 OA
HETATM    6  C14         0      46.750  43.158 -13.148  1.00  0.00     0.107 C 
HETATM    7  C15         0      47.207  42.475 -12.030  1.00  0.00     0.049 C 
HETATM    8  C16         0      48.306  41.628 -12.101  1.00  0.00     0.093 C 
HETATM    9  C18         0      48.564  41.105 -13.363  1.00  0.00     0.048 C 
HETATM   10  C19         0      48.082  41.737 -14.501  1.00  0.00     0.096 C 
HETATM   11  C21         0      47.333  42.876 -14.379  1.00  0.00     0.084 C 
ENDROOT
BRANCH  10  12
HETATM   12  O20         0      48.684  41.481 -15.728  1.00  0.00    -0.359 OA
HETATM   13  H20         0      48.138  41.155 -16.433  1.00  0.00     0.218 HD
ENDBRANCH  10  12
BRANCH   4  14
HETATM   14  C5          0      45.272  46.378 -13.651  1.00  0.00     0.025 C 
HETATM   15  C6          0      44.776  46.695 -12.395  1.00  0.00     0.004 C 
HETATM   16  C7          0      45.125  47.930 -11.857  1.00  0.00     0.026 C 
HETATM   17  C8          0      45.832  48.873 -12.594  1.00  0.00     0.112 C 
HETATM   18  C10         0      45.723  48.734 -13.971  1.00  0.00     0.112 C 
HETATM   19  C12         0      45.457  47.471 -14.488  1.00  0.00     0.028 C 
BRANCH  17  20
HETATM   20  O9          0      46.728  49.728 -11.977  1.00  0.00    -0.357 OA
HETATM   21  H9          0      46.468  50.443 -11.407  1.00  0.00     0.218 HD
ENDBRANCH  17  20
BRANCH  18  22
HETATM   22  O11         0      46.250  49.754 -14.750  1.00  0.00    -0.357 OA
HETATM   23  H11         0      46.787  50.401 -14.306  1.00  0.00     0.218 HD
ENDBRANCH  18  22
ENDBRANCH   4  14
BRANCH   8  24
HETATM   24  O17         0      49.259  41.583 -11.078  1.00  0.00    -0.359 OA
HETATM   25  H17         0      50.122  41.967 -11.182  1.00  0.00     0.218 HD
ENDBRANCH   8  24
TORSDOF 5
ENDMDL
MODEL 5
REMARK VINA RESULT:      -5.3      1.721      2.626
REMARK  5 active torsions:
REMARK  status: ('A' for Active; 'I' for Inactive)
REMARK    1  A    between atoms: C4_4  and  C5_5 
REMARK    2  A    between atoms: C8_8  and  O9_9 
REMARK    3  A    between atoms: C10_11  and  O11_12 
REMARK    4  A    between atoms: C16_18  and  O17_19 
REMARK    5  A    between atoms: C19_22  and  O20_23 
ROOT
HETATM    1  O1          0      44.257  43.920 -12.162  1.00  0.00    -0.286 OA
HETATM    2  C2          0      43.977  44.477 -13.259  1.00  0.00     0.201 C 
HETATM    3  C3          0      43.416  43.795 -14.325  1.00  0.00     0.067 C 
HETATM    4  C4          0      43.212  44.409 -15.556  1.00  0.00     0.103 C 
HETATM    5  O13         0      43.546  45.680 -15.695  1.00  0.00    -0.307 OA
HETATM    6  C14         0      44.116  46.362 -14.726  1.00  0.00     0.107 C 
HETATM    7  C15         0      44.820  47.532 -14.972  1.00  0.00     0.049 C 
HETATM    8  C16         0      45.627  48.108 -13.998  1.00  0.00     0.093 C 
HETATM    9  C18         0      45.284  47.790 -12.690  1.00  0.00     0.048 C 
HETATM   10  C19         0      44.540  46.651 -12.412  1.00  0.00     0.096 C 
HETATM   11  C21         0      44.127  45.844 -13.436  1.00  0.00     0.084 C 
ENDROOT
BRANCH  10  12
HETATM   12  O20         0      44.575  46.112 -11.129  1.00  0.00    -0.359 OA
HETATM   13  H20         0      44.698  45.175 -11.044  1.00  0.00     0.218 HD
ENDBRANCH  10  12
BRANCH   4  14
HETATM   14  C5          0      43.206  43.548 -16.741  1.00  0.00     0.025 C 
HETATM   15  C6          0      42.358  42.459 -16.875  1.00  0.00     0.004 C 
HETATM   16  C7          0      41.816  42.215 -18.133  1.00  0.00     0.026 C 
HETATM   17  C8          0      42.208  42.944 -19.250  1.00  0.00     0.112 C 
HETATM   18  C10         0      43.461  43.534 -19.147  1.00  0.00     0.112 C 
HETATM   19  C12         0      43.942  43.846 -17.881  1.00  0.00     0.028 C 
BRANCH  17  20
HETATM   20  O9          0      41.313  43.216 -20.269  1.00  0.00    -0.357 OA
HETATM   21  H9          0      41.518  43.116 -21.192  1.00  0.00     0.218 HD
ENDBRANCH  17  20
BRANCH  18  22
HETATM   22  O11         0      43.980  44.112 -20.296  1.00  0.00    -0.357 OA
HETATM   23  H11         0      44.818  44.552 -20.216  1.00  0.00     0.218 HD
ENDBRANCH  18  22
ENDBRANCH   4  14
BRANCH   8  24
HETATM   24  O17         0      46.867  48.671 -14.318  1.00  0.00    -0.359 OA
HETATM   25  H17         0      47.684  48.250 -14.076  1.00  0.00     0.218 HD
ENDBRANCH   8  24
TORSDOF 5
ENDMDL
MODEL 6
REMARK VINA RESULT:      -5.3     11.447     12.272
REMARK  5 active torsions:
REMARK  status: ('A' for Active; 'I' for Inactive)
REMARK    1  A    between atoms: C4_4  and  C5_5 
REMARK    2  A    between atoms: C8_8  and  O9_9 
REMARK    3  A    between atoms: C10_11  and  O11_12 
REMARK    4  A    between atoms: C16_18  and  O17_19 
REMARK    5  A    between atoms: C19_22  and  O20_23 
ROOT
HETATM    1  O1          0      56.873  42.541 -11.099  1.00  0.00    -0.286 OA
HETATM    2  C2          0      55.906  41.772 -10.843  1.00  0.00     0.201 C 
HETATM    3  C3          0      56.068  40.419 -10.599  1.00  0.00     0.067 C 
HETATM    4  C4          0      54.977  39.575 -10.422  1.00  0.00     0.103 C 
HETATM    5  O13         0      53.761  40.091 -10.469  1.00  0.00    -0.307 OA
HETATM    6  C14         0      53.551  41.362 -10.734  1.00  0.00     0.107 C 
HETATM    7  C15         0      52.319  41.822 -11.174  1.00  0.00     0.049 C 
HETATM    8  C16         0      52.170  43.103 -11.693  1.00  0.00     0.093 C 
HETATM    9  C18         0      53.120  44.023 -11.265  1.00  0.00     0.048 C 
HETATM   10  C19         0      54.346  43.595 -10.774  1.00  0.00     0.096 C 
HETATM   11  C21         0      54.615  42.256 -10.695  1.00  0.00     0.084 C 
ENDROOT
BRANCH  10  12
HETATM   12  O20         0      55.421  44.479 -10.765  1.00  0.00    -0.359 OA
HETATM   13  H20         0      55.520  45.068 -11.503  1.00  0.00     0.218 HD
ENDBRANCH  10  12
BRANCH   4  14
HETATM   14  C5          0      55.158  38.165 -10.769  1.00  0.00     0.025 C 
HETATM   15  C6          0      55.655  37.228  -9.875  1.00  0.00     0.004 C 
HETATM   16  C7          0      55.095  35.954  -9.899  1.00  0.00     0.026 C 
HETATM   17  C8          0      54.168  35.582 -10.866  1.00  0.00     0.112 C 
HETATM   18  C10         0      54.220  36.329 -12.036  1.00  0.00     0.112 C 
HETATM   19  C12         0      54.705  37.629 -11.968  1.00  0.00     0.028 C 
BRANCH  17  20
HETATM   20  O9          0      53.156  34.686 -10.572  1.00  0.00    -0.357 OA
HETATM   21  H9          0      52.796  34.071 -11.200  1.00  0.00     0.218 HD
ENDBRANCH  17  20
BRANCH  18  22
HETATM   22  O11         0      53.451  35.882 -13.101  1.00  0.00    -0.357 OA
HETATM   23  H11         0      52.546  35.661 -12.915  1.00  0.00     0.218 HD
ENDBRANCH  18  22
ENDBRANCH   4  14
BRANCH   8  24
HETATM   24  O17         0      51.352  43.351 -12.801  1.00  0.00    -0.359 OA
HETATM   25  H17         0      50.841  42.662 -13.208  1.00  0.00     0.218 HD
ENDBRANCH   8  24
TORSDOF 5
ENDMDL
MODEL 7
REMARK VINA RESULT:      -5.2      3.699      6.568
REMARK  5 active torsions:
REMARK  status: ('A' for Active; 'I' for Inactive)
REMARK    1  A    between atoms: C4_4  and  C5_5 
REMARK    2  A    between atoms: C8_8  and  O9_9 
REMARK    3  A    between atoms: C10_11  and  O11_12 
REMARK    4  A    between atoms: C16_18  and  O17_19 
REMARK    5  A    between atoms: C19_22  and  O20_23 
ROOT
HETATM    1  O1          0      49.847  44.356 -16.128  1.00  0.00    -0.286 OA
HETATM    2  C2          0      48.809  44.152 -15.441  1.00  0.00     0.201 C 
HETATM    3  C3          0      47.699  44.979 -15.493  1.00  0.00     0.067 C 
HETATM    4  C4          0      46.609  44.790 -14.651  1.00  0.00     0.103 C 
HETATM    5  O13         0      46.634  43.783 -13.797  1.00  0.00    -0.307 OA
HETATM    6  C14         0      47.678  42.991 -13.680  1.00  0.00     0.107 C 
HETATM    7  C15         0      47.880  42.210 -12.551  1.00  0.00     0.049 C 
HETATM    8  C16         0      49.096  41.578 -12.319  1.00  0.00     0.093 C 
HETATM    9  C18         0      49.852  41.326 -13.457  1.00  0.00     0.048 C 
HETATM   10  C19         0      49.644  42.057 -14.619  1.00  0.00     0.096 C 
HETATM   11  C21         0      48.674  43.021 -14.649  1.00  0.00     0.084 C 
ENDROOT
BRANCH  10  12
HETATM   12  O20         0      50.652  42.114 -15.576  1.00  0.00    -0.359 OA
HETATM   13  H20         0      50.397  42.155 -16.490  1.00  0.00     0.218 HD
ENDBRANCH  10  12
BRANCH   4  14
HETATM   14  C5          0      45.800  45.967 -14.329  1.00  0.00     0.025 C 
HETATM   15  C6          0      44.930  46.009 -13.250  1.00  0.00     0.004 C 
HETATM   16  C7          0      44.842  47.202 -12.539  1.00  0.00     0.026 C 
HETATM   17  C8          0      45.493  48.355 -12.965  1.00  0.00     0.112 C 
HETATM   18  C10         0      45.787  48.387 -14.322  1.00  0.00     0.112 C 
HETATM   19  C12         0      45.954  47.180 -14.990  1.00  0.00     0.028 C 
BRANCH  17  20
HETATM   20  O9          0      45.981  49.272 -12.051  1.00  0.00    -0.357 OA
HETATM   21  H9          0      46.825  49.700 -12.132  1.00  0.00     0.218 HD
ENDBRANCH  17  20
BRANCH  18  22
HETATM   22  O11         0      46.263  49.586 -14.833  1.00  0.00    -0.357 OA
HETATM   23  H11         0      47.067  49.548 -15.339  1.00  0.00     0.218 HD
ENDBRANCH  18  22
ENDBRANCH   4  14
BRANCH   8  24
HETATM   24  O17         0      49.652  41.514 -11.037  1.00  0.00    -0.359 OA
HETATM   25  H17         0      49.532  40.755 -10.478  1.00  0.00     0.218 HD
ENDBRANCH   8  24
TORSDOF 5
ENDMDL
MODEL 8
REMARK VINA RESULT:      -5.1      3.946      5.619
REMARK  5 active torsions:
REMARK  status: ('A' for Active; 'I' for Inactive)
REMARK    1  A    between atoms: C4_4  and  C5_5 
REMARK    2  A    between atoms: C8_8  and  O9_9 
REMARK    3  A    between atoms: C10_11  and  O11_12 
REMARK    4  A    between atoms: C16_18  and  O17_19 
REMARK    5  A    between atoms: C19_22  and  O20_23 
ROOT
HETATM    1  O1          0      43.727  43.151 -13.668  1.00  0.00    -0.286 OA
HETATM    2  C2          0      44.788  43.544 -14.226  1.00  0.00     0.201 C 
HETATM    3  C3          0      45.933  42.768 -14.292  1.00  0.00     0.067 C 
HETATM    4  C4          0      47.119  43.264 -14.821  1.00  0.00     0.103 C 
HETATM    5  O13         0      47.139  44.500 -15.288  1.00  0.00    -0.307 OA
HETATM    6  C14         0      46.091  45.291 -15.215  1.00  0.00     0.107 C 
HETATM    7  C15         0      46.207  46.669 -15.322  1.00  0.00     0.049 C 
HETATM    8  C16         0      45.151  47.510 -14.994  1.00  0.00     0.093 C 
HETATM    9  C18         0      43.891  46.931 -15.081  1.00  0.00     0.048 C 
HETATM   10  C19         0      43.742  45.552 -15.024  1.00  0.00     0.096 C 
HETATM   11  C21         0      44.848  44.755 -14.898  1.00  0.00     0.084 C 
ENDROOT
BRANCH  10  12
HETATM   12  O20         0      42.507  45.015 -14.676  1.00  0.00    -0.359 OA
HETATM   13  H20         0      42.495  44.284 -14.069  1.00  0.00     0.218 HD
ENDBRANCH  10  12
BRANCH   4  14
HETATM   14  C5          0      48.368  42.675 -14.333  1.00  0.00     0.025 C 
HETATM   15  C6          0      49.576  42.812 -15.001  1.00  0.00     0.004 C 
HETATM   16  C7          0      50.722  42.986 -14.232  1.00  0.00     0.026 C 
HETATM   17  C8          0      50.691  42.893 -12.845  1.00  0.00     0.112 C 
HETATM   18  C10         0      49.632  42.151 -12.338  1.00  0.00     0.112 C 
HETATM   19  C12         0      48.467  42.064 -13.090  1.00  0.00     0.028 C 
BRANCH  17  20
HETATM   20  O9          0      51.533  43.663 -12.064  1.00  0.00    -0.357 OA
HETATM   21  H9          0      52.448  43.818 -12.268  1.00  0.00     0.218 HD
ENDBRANCH  17  20
BRANCH  18  22
HETATM   22  O11         0      49.657  41.868 -10.980  1.00  0.00    -0.357 OA
HETATM   23  H11         0      49.117  41.145 -10.681  1.00  0.00     0.218 HD
ENDBRANCH  18  22
ENDBRANCH   4  14
BRANCH   8  24
HETATM   24  O17         0      45.362  48.714 -14.312  1.00  0.00    -0.359 OA
HETATM   25  H17         0      44.698  49.091 -13.747  1.00  0.00     0.218 HD
ENDBRANCH   8  24
TORSDOF 5
ENDMDL
MODEL 9
REMARK VINA RESULT:      -5.0      2.083      2.280
REMARK  5 active torsions:
REMARK  status: ('A' for Active; 'I' for Inactive)
REMARK    1  A    between atoms: C4_4  and  C5_5 
REMARK    2  A    between atoms: C8_8  and  O9_9 
REMARK    3  A    between atoms: C10_11  and  O11_12 
REMARK    4  A    between atoms: C16_18  and  O17_19 
REMARK    5  A    between atoms: C19_22  and  O20_23 
ROOT
HETATM    1  O1          0      45.599  45.595  -9.878  1.00  0.00    -0.286 OA
HETATM    2  C2          0      45.077  45.591 -11.027  1.00  0.00     0.201 C 
HETATM    3  C3          0      44.547  44.451 -11.606  1.00  0.00     0.067 C 
HETATM    4  C4          0      44.072  44.451 -12.913  1.00  0.00     0.103 C 
HETATM    5  O13         0      44.113  45.577 -13.603  1.00  0.00    -0.307 OA
HETATM    6  C14         0      44.640  46.678 -13.113  1.00  0.00     0.107 C 
HETATM    7  C15         0      45.049  47.720 -13.933  1.00  0.00     0.049 C 
HETATM    8  C16         0      45.829  48.760 -13.444  1.00  0.00     0.093 C 
HETATM    9  C18         0      45.722  48.981 -12.076  1.00  0.00     0.048 C 
HETATM   10  C19         0      45.272  47.975 -11.232  1.00  0.00     0.096 C 
HETATM   11  C21         0      44.916  46.761 -11.753  1.00  0.00     0.084 C 
ENDROOT
BRANCH  10  12
HETATM   12  O20         0      45.574  48.039  -9.875  1.00  0.00    -0.359 OA
HETATM   13  H20         0      45.360  48.839  -9.409  1.00  0.00     0.218 HD
ENDBRANCH  10  12
BRANCH   4  14
HETATM   14  C5          0      44.103  43.179 -13.637  1.00  0.00     0.025 C 
HETATM   15  C6          0      43.007  42.679 -14.325  1.00  0.00     0.004 C 
HETATM   16  C7          0      43.245  42.034 -15.535  1.00  0.00     0.026 C 
HETATM   17  C8          0      44.536  41.775 -15.982  1.00  0.00     0.112 C 
HETATM   18  C10         0      45.498  41.730 -14.982  1.00  0.00     0.112 C 
HETATM   19  C12         0      45.273  42.453 -13.816  1.00  0.00     0.028 C 
BRANCH  17  20
HETATM   20  O9          0      44.833  41.782 -17.333  1.00  0.00    -0.357 OA
HETATM   21  H9          0      45.717  41.755 -17.680  1.00  0.00     0.218 HD
ENDBRANCH  17  20
BRANCH  18  22
HETATM   22  O11         0      46.763  41.291 -15.346  1.00  0.00    -0.357 OA
HETATM   23  H11         0      47.195  40.686 -14.753  1.00  0.00     0.218 HD
ENDBRANCH  18  22
ENDBRANCH   4  14
BRANCH   8  24
HETATM   24  O17         0      46.876  49.303 -14.196  1.00  0.00    -0.359 OA
HETATM   25  H17         0      47.137  50.212 -14.106  1.00  0.00     0.218 HD
ENDBRANCH   8  24
TORSDOF 5
ENDMDL
