MODEL 1
REMARK VINA RESULT:      -0.0      0.000      0.000
REMARK  5 active torsions:
REMARK  status: ('A' for Active; 'I' for Inactive)
REMARK    1  A    between atoms: C4_4  and  C5_5 
REMARK    2  A    between atoms: C8_8  and  O9_9 
REMARK    3  A    between atoms: C10_11  and  O11_12 
REMARK    4  A    between atoms: C16_18  and  O17_19 
REMARK    5  A    between atoms: C19_22  and  O20_23 
ROOT
HETATM    1  O1          0       8.439  -5.754 -27.623  1.00  0.00    -0.286 OA
HETATM    2  C2          0       7.573  -4.993 -27.112  1.00  0.00     0.201 C 
HETATM    3  C3          0       7.742  -3.622 -27.015  1.00  0.00     0.067 C 
HETATM    4  C4          0       6.818  -2.819 -26.356  1.00  0.00     0.103 C 
HETATM    5  O13         0       5.747  -3.385 -25.829  1.00  0.00    -0.307 OA
HETATM    6  C14         0       5.557  -4.686 -25.859  1.00  0.00     0.107 C 
HETATM    7  C15         0       4.679  -5.317 -24.990  1.00  0.00     0.049 C 
HETATM    8  C16         0       4.669  -6.699 -24.851  1.00  0.00     0.093 C 
HETATM    9  C18         0       5.155  -7.402 -25.947  1.00  0.00     0.048 C 
HETATM   10  C19         0       5.998  -6.788 -26.862  1.00  0.00     0.096 C 
HETATM   11  C21         0       6.342  -5.474 -26.693  1.00  0.00     0.084 C 
ENDROOT
BRANCH  10  12
HETATM   12  O20         0       6.808  -7.574 -27.676  1.00  0.00    -0.359 OA
HETATM   13  H20         0       6.748  -7.451 -28.616  1.00  0.00     0.218 HD
ENDBRANCH  10  12
BRANCH   4  14
HETATM   14  C5          0       7.312  -1.568 -25.776  1.00  0.00     0.025 C 
HETATM   15  C6          0       6.712  -0.957 -24.685  1.00  0.00     0.004 C 
HETATM   16  C7          0       7.544  -0.359 -23.744  1.00  0.00     0.026 C 
HETATM   17  C8          0       8.916  -0.252 -23.945  1.00  0.00     0.112 C 
HETATM   18  C10         0       9.312  -0.302 -25.275  1.00  0.00     0.112 C 
HETATM   19  C12         0       8.503  -0.980 -26.180  1.00  0.00     0.028 C 
BRANCH  17  20
HETATM   20  O9          0       9.795  -0.310 -22.879  1.00  0.00    -0.357 OA
HETATM   21  H9          0      10.271   0.442 -22.545  1.00  0.00     0.218 HD
ENDBRANCH  17  20
BRANCH  18  22
HETATM   22  O11         0      10.641  -0.013 -25.546  1.00  0.00    -0.357 OA
HETATM   23  H11         0      11.295  -0.564 -25.131  1.00  0.00     0.218 HD
ENDBRANCH  18  22
ENDBRANCH   4  14
BRANCH   8  24
HETATM   24  O17         0       4.509  -7.305 -23.600  1.00  0.00    -0.359 OA
HETATM   25  H17         0       5.034  -8.052 -23.336  1.00  0.00     0.218 HD
ENDBRANCH   8  24
TORSDOF 5
ENDMDL
MODEL 2
REMARK VINA RESULT:      -0.0     11.190     13.390
REMARK  5 active torsions:
REMARK  status: ('A' for Active; 'I' for Inactive)
REMARK    1  A    between atoms: C4_4  and  C5_5 
REMARK    2  A    between atoms: C8_8  and  O9_9 
REMARK    3  A    between atoms: C10_11  and  O11_12 
REMARK    4  A    between atoms: C16_18  and  O17_19 
REMARK    5  A    between atoms: C19_22  and  O20_23 
ROOT
HETATM    1  O1          0      12.461  -3.928 -37.445  1.00  0.00    -0.286 OA
HETATM    2  C2          0      11.346  -3.546 -36.995  1.00  0.00     0.201 C 
HETATM    3  C3          0      10.367  -4.428 -36.570  1.00  0.00     0.067 C 
HETATM    4  C4          0       9.109  -3.985 -36.176  1.00  0.00     0.103 C 
HETATM    5  O13         0       8.859  -2.688 -36.191  1.00  0.00    -0.307 OA
HETATM    6  C14         0       9.740  -1.811 -36.621  1.00  0.00     0.107 C 
HETATM    7  C15         0       9.368  -0.534 -37.015  1.00  0.00     0.049 C 
HETATM    8  C16         0      10.248   0.294 -37.701  1.00  0.00     0.093 C 
HETATM    9  C18         0      11.595   0.017 -37.498  1.00  0.00     0.048 C 
HETATM   10  C19         0      11.998  -1.236 -37.059  1.00  0.00     0.096 C 
HETATM   11  C21         0      11.062  -2.202 -36.808  1.00  0.00     0.084 C 
ENDROOT
BRANCH  10  12
HETATM   12  O20         0      13.312  -1.642 -37.274  1.00  0.00    -0.359 OA
HETATM   13  H20         0      13.675  -1.532 -38.144  1.00  0.00     0.218 HD
ENDBRANCH  10  12
BRANCH   4  14
HETATM   14  C5          0       7.993  -4.920 -36.326  1.00  0.00     0.025 C 
HETATM   15  C6          0       6.681  -4.503 -36.501  1.00  0.00     0.004 C 
HETATM   16  C7          0       5.884  -5.233 -37.378  1.00  0.00     0.026 C 
HETATM   17  C8          0       6.332  -6.415 -37.958  1.00  0.00     0.112 C 
HETATM   18  C10         0       7.345  -7.057 -37.259  1.00  0.00     0.112 C 
HETATM   19  C12         0       8.181  -6.290 -36.456  1.00  0.00     0.028 C 
BRANCH  17  20
HETATM   20  O9          0       5.929  -6.776 -39.232  1.00  0.00    -0.357 OA
HETATM   21  H9          0       6.185  -7.586 -39.656  1.00  0.00     0.218 HD
ENDBRANCH  17  20
BRANCH  18  22
HETATM   22  O11         0       7.697  -8.328 -37.689  1.00  0.00    -0.357 OA
HETATM   23  H11         0       7.017  -8.992 -37.670  1.00  0.00     0.218 HD
ENDBRANCH  18  22
ENDBRANCH   4  14
BRANCH   8  24
HETATM   24  O17         0       9.814   1.103 -38.758  1.00  0.00    -0.359 OA
HETATM   25  H17         0      10.085   2.010 -38.835  1.00  0.00     0.218 HD
ENDBRANCH   8  24
TORSDOF 5
ENDMDL
MODEL 3
REMARK VINA RESULT:      -0.0      3.586      4.424
REMARK  5 active torsions:
REMARK  status: ('A' for Active; 'I' for Inactive)
REMARK    1  A    between atoms: C4_4  and  C5_5 
REMARK    2  A    between atoms: C8_8  and  O9_9 
REMARK    3  A    between atoms: C10_11  and  O11_12 
REMARK    4  A    between atoms: C16_18  and  O17_19 
REMARK    5  A    between atoms: C19_22  and  O20_23 
ROOT
HETATM    1  O1          0       3.341  -1.855 -27.273  1.00  0.00    -0.286 OA
HETATM    2  C2          0       3.872  -1.326 -26.258  1.00  0.00     0.201 C 
HETATM    3  C3          0       4.285  -0.005 -26.229  1.00  0.00     0.067 C 
HETATM    4  C4          0       4.960   0.523 -25.134  1.00  0.00     0.103 C 
HETATM    5  O13         0       5.190  -0.257 -24.093  1.00  0.00    -0.307 OA
HETATM    6  C14         0       4.852  -1.528 -24.084  1.00  0.00     0.107 C 
HETATM    7  C15         0       5.427  -2.431 -23.201  1.00  0.00     0.049 C 
HETATM    8  C16         0       5.261  -3.802 -23.361  1.00  0.00     0.093 C 
HETATM    9  C18         0       4.123  -4.177 -24.063  1.00  0.00     0.048 C 
HETATM   10  C19         0       3.495  -3.284 -24.920  1.00  0.00     0.096 C 
HETATM   11  C21         0       3.992  -2.016 -25.062  1.00  0.00     0.084 C 
ENDROOT
BRANCH  10  12
HETATM   12  O20         0       2.659  -3.772 -25.919  1.00  0.00    -0.359 OA
HETATM   13  H20         0       1.725  -3.795 -25.746  1.00  0.00     0.218 HD
ENDBRANCH  10  12
BRANCH   4  14
HETATM   14  C5          0       5.861   1.650 -25.383  1.00  0.00     0.025 C 
HETATM   15  C6          0       6.959   1.926 -24.581  1.00  0.00     0.004 C 
HETATM   16  C7          0       8.118   2.373 -25.207  1.00  0.00     0.026 C 
HETATM   17  C8          0       8.147   2.664 -26.567  1.00  0.00     0.112 C 
HETATM   18  C10         0       6.911   2.965 -27.122  1.00  0.00     0.112 C 
HETATM   19  C12         0       5.773   2.436 -26.525  1.00  0.00     0.028 C 
BRANCH  17  20
HETATM   20  O9          0       9.293   2.452 -27.313  1.00  0.00    -0.357 OA
HETATM   21  H9          0       9.363   1.799 -27.999  1.00  0.00     0.218 HD
ENDBRANCH  17  20
BRANCH  18  22
HETATM   22  O11         0       6.906   3.446 -28.423  1.00  0.00    -0.357 OA
HETATM   23  H11         0       7.134   4.360 -28.545  1.00  0.00     0.218 HD
ENDBRANCH  18  22
ENDBRANCH   4  14
BRANCH   8  24
HETATM   24  O17         0       6.315  -4.694 -23.135  1.00  0.00    -0.359 OA
HETATM   25  H17         0       6.249  -5.392 -22.494  1.00  0.00     0.218 HD
ENDBRANCH   8  24
TORSDOF 5
ENDMDL
MODEL 4
REMARK VINA RESULT:       0.0      4.261      5.576
REMARK  5 active torsions:
REMARK  status: ('A' for Active; 'I' for Inactive)
REMARK    1  A    between atoms: C4_4  and  C5_5 
REMARK    2  A    between atoms: C8_8  and  O9_9 
REMARK    3  A    between atoms: C10_11  and  O11_12 
REMARK    4  A    between atoms: C16_18  and  O17_19 
REMARK    5  A    between atoms: C19_22  and  O20_23 
ROOT
HETATM    1  O1          0       3.385   0.513 -28.896  1.00  0.00    -0.286 OA
HETATM    2  C2          0       3.318  -0.212 -27.865  1.00  0.00     0.201 C 
HETATM    3  C3          0       2.846   0.254 -26.650  1.00  0.00     0.067 C 
HETATM    4  C4          0       2.878  -0.534 -25.505  1.00  0.00     0.103 C 
HETATM    5  O13         0       3.355  -1.764 -25.594  1.00  0.00    -0.307 OA
HETATM    6  C14         0       3.850  -2.242 -26.715  1.00  0.00     0.107 C 
HETATM    7  C15         0       4.696  -3.341 -26.730  1.00  0.00     0.049 C 
HETATM    8  C16         0       5.414  -3.684 -27.869  1.00  0.00     0.093 C 
HETATM    9  C18         0       4.862  -3.242 -29.066  1.00  0.00     0.048 C 
HETATM   10  C19         0       3.975  -2.174 -29.082  1.00  0.00     0.096 C 
HETATM   11  C21         0       3.629  -1.562 -27.908  1.00  0.00     0.084 C 
ENDROOT
BRANCH  10  12
HETATM   12  O20         0       3.776  -1.473 -30.267  1.00  0.00    -0.359 OA
HETATM   13  H20         0       3.676  -1.973 -31.068  1.00  0.00     0.218 HD
ENDBRANCH  10  12
BRANCH   4  14
HETATM   14  C5          0       2.951   0.158 -24.217  1.00  0.00     0.025 C 
HETATM   15  C6          0       3.514  -0.415 -23.086  1.00  0.00     0.004 C 
HETATM   16  C7          0       4.258   0.410 -22.248  1.00  0.00     0.026 C 
HETATM   17  C8          0       4.329   1.784 -22.453  1.00  0.00     0.112 C 
HETATM   18  C10         0       3.270   2.318 -23.175  1.00  0.00     0.112 C 
HETATM   19  C12         0       2.598   1.493 -24.069  1.00  0.00     0.028 C 
BRANCH  17  20
HETATM   20  O9          0       5.476   2.489 -22.136  1.00  0.00    -0.357 OA
HETATM   21  H9          0       6.159   2.697 -22.763  1.00  0.00     0.218 HD
ENDBRANCH  17  20
BRANCH  18  22
HETATM   22  O11         0       3.192   3.701 -23.246  1.00  0.00    -0.357 OA
HETATM   23  H11         0       4.003   4.170 -23.404  1.00  0.00     0.218 HD
ENDBRANCH  18  22
ENDBRANCH   4  14
BRANCH   8  24
HETATM   24  O17         0       6.738  -4.132 -27.791  1.00  0.00    -0.359 OA
HETATM   25  H17         0       7.354  -3.993 -28.500  1.00  0.00     0.218 HD
ENDBRANCH   8  24
TORSDOF 5
ENDMDL
MODEL 5
REMARK VINA RESULT:       0.0      6.684      9.111
REMARK  5 active torsions:
REMARK  status: ('A' for Active; 'I' for Inactive)
REMARK    1  A    between atoms: C4_4  and  C5_5 
REMARK    2  A    between atoms: C8_8  and  O9_9 
REMARK    3  A    between atoms: C10_11  and  O11_12 
REMARK    4  A    between atoms: C16_18  and  O17_19 
REMARK    5  A    between atoms: C19_22  and  O20_23 
ROOT
HETATM    1  O1          0       9.366   4.491 -28.030  1.00  0.00    -0.286 OA
HETATM    2  C2          0       8.778   3.841 -28.937  1.00  0.00     0.201 C 
HETATM    3  C3          0       7.580   4.250 -29.497  1.00  0.00     0.067 C 
HETATM    4  C4          0       6.901   3.463 -30.421  1.00  0.00     0.103 C 
HETATM    5  O13         0       7.432   2.308 -30.782  1.00  0.00    -0.307 OA
HETATM    6  C14         0       8.548   1.856 -30.254  1.00  0.00     0.107 C 
HETATM    7  C15         0       8.894   0.514 -30.315  1.00  0.00     0.049 C 
HETATM    8  C16         0       9.932  -0.000 -29.546  1.00  0.00     0.093 C 
HETATM    9  C18         0      10.893   0.927 -29.163  1.00  0.00     0.048 C 
HETATM   10  C19         0      10.594   2.283 -29.135  1.00  0.00     0.096 C 
HETATM   11  C21         0       9.348   2.711 -29.504  1.00  0.00     0.084 C 
ENDROOT
BRANCH  10  12
HETATM   12  O20         0      11.374   3.136 -28.360  1.00  0.00    -0.359 OA
HETATM   13  H20         0      12.313   2.992 -28.348  1.00  0.00     0.218 HD
ENDBRANCH  10  12
BRANCH   4  14
HETATM   14  C5          0       5.449   3.628 -30.502  1.00  0.00     0.025 C 
HETATM   15  C6          0       4.600   2.616 -30.928  1.00  0.00     0.004 C 
HETATM   16  C7          0       3.376   2.486 -30.279  1.00  0.00     0.026 C 
HETATM   17  C8          0       2.951   3.412 -29.332  1.00  0.00     0.112 C 
HETATM   18  C10         0       3.538   4.665 -29.442  1.00  0.00     0.112 C 
HETATM   19  C12         0       4.799   4.756 -30.018  1.00  0.00     0.028 C 
BRANCH  17  20
HETATM   20  O9          0       2.172   3.020 -28.258  1.00  0.00    -0.357 OA
HETATM   21  H9          0       1.231   3.144 -28.215  1.00  0.00     0.218 HD
ENDBRANCH  17  20
BRANCH  18  22
HETATM   22  O11         0       3.015   5.676 -28.648  1.00  0.00    -0.357 OA
HETATM   23  H11         0       2.152   5.529 -28.277  1.00  0.00     0.218 HD
ENDBRANCH  18  22
ENDBRANCH   4  14
BRANCH   8  24
HETATM   24  O17         0       9.833  -1.254 -28.932  1.00  0.00    -0.359 OA
HETATM   25  H17         0       9.086  -1.823 -29.077  1.00  0.00     0.218 HD
ENDBRANCH   8  24
TORSDOF 5
ENDMDL
MODEL 6
REMARK VINA RESULT:       0.0      7.789      8.851
REMARK  5 active torsions:
REMARK  status: ('A' for Active; 'I' for Inactive)
REMARK    1  A    between atoms: C4_4  and  C5_5 
REMARK    2  A    between atoms: C8_8  and  O9_9 
REMARK    3  A    between atoms: C10_11  and  O11_12 
REMARK    4  A    between atoms: C16_18  and  O17_19 
REMARK    5  A    between atoms: C19_22  and  O20_23 
ROOT
HETATM    1  O1          0      12.763  -9.257 -26.658  1.00  0.00    -0.286 OA
HETATM    2  C2          0      13.135  -8.062 -26.501  1.00  0.00     0.201 C 
HETATM    3  C3          0      14.288  -7.553 -27.075  1.00  0.00     0.067 C 
HETATM    4  C4          0      14.728  -6.263 -26.803  1.00  0.00     0.103 C 
HETATM    5  O13         0      14.011  -5.505 -25.992  1.00  0.00    -0.307 OA
HETATM    6  C14         0      12.929  -5.951 -25.392  1.00  0.00     0.107 C 
HETATM    7  C15         0      12.410  -5.332 -24.264  1.00  0.00     0.049 C 
HETATM    8  C16         0      11.431  -5.944 -23.491  1.00  0.00     0.093 C 
HETATM    9  C18         0      10.657  -6.884 -24.160  1.00  0.00     0.048 C 
HETATM   10  C19         0      11.126  -7.489 -25.318  1.00  0.00     0.096 C 
HETATM   11  C21         0      12.354  -7.145 -25.814  1.00  0.00     0.084 C 
ENDROOT
BRANCH  10  12
HETATM   12  O20         0      10.574  -8.700 -25.724  1.00  0.00    -0.359 OA
HETATM   13  H20         0       9.715  -8.683 -26.130  1.00  0.00     0.218 HD
ENDBRANCH  10  12
BRANCH   4  14
HETATM   14  C5          0      16.165  -6.007 -26.920  1.00  0.00     0.025 C 
HETATM   15  C6          0      16.812  -5.012 -26.202  1.00  0.00     0.004 C 
HETATM   16  C7          0      18.087  -5.290 -25.720  1.00  0.00     0.026 C 
HETATM   17  C8          0      18.752  -6.466 -26.051  1.00  0.00     0.112 C 
HETATM   18  C10         0      18.319  -7.064 -27.227  1.00  0.00     0.112 C 
HETATM   19  C12         0      17.012  -6.837 -27.642  1.00  0.00     0.028 C 
BRANCH  17  20
HETATM   20  O9          0      19.614  -7.070 -25.154  1.00  0.00    -0.357 OA
HETATM   21  H9          0      20.555  -7.120 -25.278  1.00  0.00     0.218 HD
ENDBRANCH  17  20
BRANCH  18  22
HETATM   22  O11         0      19.069  -8.130 -27.703  1.00  0.00    -0.357 OA
HETATM   23  H11         0      18.750  -8.567 -28.484  1.00  0.00     0.218 HD
ENDBRANCH  18  22
ENDBRANCH   4  14
BRANCH   8  24
HETATM   24  O17         0      11.453  -5.869 -22.093  1.00  0.00    -0.359 OA
HETATM   25  H17         0      12.237  -6.069 -21.595  1.00  0.00     0.218 HD
ENDBRANCH   8  24
TORSDOF 5
ENDMDL
MODEL 7
REMARK VINA RESULT:       0.0      5.154      7.444
REMARK  5 active torsions:
REMARK  status: ('A' for Active; 'I' for Inactive)
REMARK    1  A    between atoms: C4_4  and  C5_5 
REMARK    2  A    between atoms: C8_8  and  O9_9 
REMARK    3  A    between atoms: C10_11  and  O11_12 
REMARK    4  A    between atoms: C16_18  and  O17_19 
REMARK    5  A    between atoms: C19_22  and  O20_23 
ROOT
HETATM    1  O1          0       8.177  -0.382 -31.322  1.00  0.00    -0.286 OA
HETATM    2  C2          0       8.347  -1.494 -30.751  1.00  0.00     0.201 C 
HETATM    3  C3          0       9.548  -2.181 -30.789  1.00  0.00     0.067 C 
HETATM    4  C4          0       9.678  -3.451 -30.239  1.00  0.00     0.103 C 
HETATM    5  O13         0       8.629  -3.999 -29.650  1.00  0.00    -0.307 OA
HETATM    6  C14         0       7.456  -3.405 -29.619  1.00  0.00     0.107 C 
HETATM    7  C15         0       6.286  -4.110 -29.376  1.00  0.00     0.049 C 
HETATM    8  C16         0       5.039  -3.537 -29.595  1.00  0.00     0.093 C 
HETATM    9  C18         0       5.013  -2.149 -29.539  1.00  0.00     0.048 C 
HETATM   10  C19         0       6.175  -1.413 -29.731  1.00  0.00     0.096 C 
HETATM   11  C21         0       7.358  -2.061 -29.961  1.00  0.00     0.084 C 
ENDROOT
BRANCH  10  12
HETATM   12  O20         0       6.079  -0.076 -30.104  1.00  0.00    -0.359 OA
HETATM   13  H20         0       5.716   0.122 -30.959  1.00  0.00     0.218 HD
ENDBRANCH  10  12
BRANCH   4  14
HETATM   14  C5          0      10.701  -4.328 -30.811  1.00  0.00     0.025 C 
HETATM   15  C6          0      10.611  -5.712 -30.778  1.00  0.00     0.004 C 
HETATM   16  C7          0      11.049  -6.413 -31.896  1.00  0.00     0.026 C 
HETATM   17  C8          0      11.680  -5.774 -32.958  1.00  0.00     0.112 C 
HETATM   18  C10         0      12.276  -4.562 -32.633  1.00  0.00     0.112 C 
HETATM   19  C12         0      11.763  -3.840 -31.562  1.00  0.00     0.028 C 
BRANCH  17  20
HETATM   20  O9          0      11.522  -6.229 -34.255  1.00  0.00    -0.357 OA
HETATM   21  H9          0      10.780  -6.745 -34.546  1.00  0.00     0.218 HD
ENDBRANCH  17  20
BRANCH  18  22
HETATM   22  O11         0      13.077  -3.976 -33.603  1.00  0.00    -0.357 OA
HETATM   23  H11         0      12.716  -3.227 -34.063  1.00  0.00     0.218 HD
ENDBRANCH  18  22
ENDBRANCH   4  14
BRANCH   8  24
HETATM   24  O17         0       3.988  -4.271 -30.156  1.00  0.00    -0.359 OA
HETATM   25  H17         0       3.626  -4.054 -31.007  1.00  0.00     0.218 HD
ENDBRANCH   8  24
TORSDOF 5
ENDMDL
MODEL 8
REMARK VINA RESULT:       0.0     11.562     14.275
REMARK  5 active torsions:
REMARK  status: ('A' for Active; 'I' for Inactive)
REMARK    1  A    between atoms: C4_4  and  C5_5 
REMARK    2  A    between atoms: C8_8  and  O9_9 
REMARK    3  A    between atoms: C10_11  and  O11_12 
REMARK    4  A    between atoms: C16_18  and  O17_19 
REMARK    5  A    between atoms: C19_22  and  O20_23 
ROOT
HETATM    1  O1          0      11.740   1.143 -37.388  1.00  0.00    -0.286 OA
HETATM    2  C2          0      12.318   0.041 -37.598  1.00  0.00     0.201 C 
HETATM    3  C3          0      11.675  -1.178 -37.473  1.00  0.00     0.067 C 
HETATM    4  C4          0      12.360  -2.380 -37.610  1.00  0.00     0.103 C 
HETATM    5  O13         0      13.652  -2.347 -37.884  1.00  0.00    -0.307 OA
HETATM    6  C14         0      14.318  -1.216 -37.976  1.00  0.00     0.107 C 
HETATM    7  C15         0      15.700  -1.171 -37.863  1.00  0.00     0.049 C 
HETATM    8  C16         0      16.372   0.035 -37.705  1.00  0.00     0.093 C 
HETATM    9  C18         0      15.699   1.150 -38.189  1.00  0.00     0.048 C 
HETATM   10  C19         0      14.321   1.123 -38.358  1.00  0.00     0.096 C 
HETATM   11  C21         0      13.623  -0.015 -38.063  1.00  0.00     0.084 C 
ENDROOT
BRANCH  10  12
HETATM   12  O20         0      13.620   2.324 -38.413  1.00  0.00    -0.359 OA
HETATM   13  H20         0      14.110   3.131 -38.318  1.00  0.00     0.218 HD
ENDBRANCH  10  12
BRANCH   4  14
HETATM   14  C5          0      11.820  -3.543 -36.903  1.00  0.00     0.025 C 
HETATM   15  C6          0      12.610  -4.607 -36.493  1.00  0.00     0.004 C 
HETATM   16  C7          0      12.318  -5.190 -35.263  1.00  0.00     0.026 C 
HETATM   17  C8          0      11.199  -4.818 -34.527  1.00  0.00     0.112 C 
HETATM   18  C10         0      10.176  -4.250 -35.274  1.00  0.00     0.112 C 
HETATM   19  C12         0      10.506  -3.599 -36.457  1.00  0.00     0.028 C 
BRANCH  17  20
HETATM   20  O9          0      11.224  -4.831 -33.144  1.00  0.00    -0.357 OA
HETATM   21  H9          0      10.677  -5.398 -32.611  1.00  0.00     0.218 HD
ENDBRANCH  17  20
BRANCH  18  22
HETATM   22  O11         0       8.968  -4.035 -34.626  1.00  0.00    -0.357 OA
HETATM   23  H11         0       9.006  -3.873 -33.690  1.00  0.00     0.218 HD
ENDBRANCH  18  22
ENDBRANCH   4  14
BRANCH   8  24
HETATM   24  O17         0      17.463   0.153 -36.836  1.00  0.00    -0.359 OA
HETATM   25  H17         0      17.786   1.001 -36.554  1.00  0.00     0.218 HD
ENDBRANCH   8  24
TORSDOF 5
ENDMDL
MODEL 9
REMARK VINA RESULT:       0.0      8.321     10.726
REMARK  5 active torsions:
REMARK  status: ('A' for Active; 'I' for Inactive)
REMARK    1  A    between atoms: C4_4  and  C5_5 
REMARK    2  A    between atoms: C8_8  and  O9_9 
REMARK    3  A    between atoms: C10_11  and  O11_12 
REMARK    4  A    between atoms: C16_18  and  O17_19 
REMARK    5  A    between atoms: C19_22  and  O20_23 
ROOT
HETATM    1  O1          0      12.000  -3.881 -32.608  1.00  0.00    -0.286 OA
HETATM    2  C2          0      10.824  -3.678 -33.016  1.00  0.00     0.201 C 
HETATM    3  C3          0      10.333  -4.220 -34.192  1.00  0.00     0.067 C 
HETATM    4  C4          0       9.069  -3.897 -34.671  1.00  0.00     0.103 C 
HETATM    5  O13         0       8.316  -3.069 -33.969  1.00  0.00    -0.307 OA
HETATM    6  C14         0       8.747  -2.497 -32.866  1.00  0.00     0.107 C 
HETATM    7  C15         0       8.150  -1.355 -32.353  1.00  0.00     0.049 C 
HETATM    8  C16         0       8.756  -0.614 -31.345  1.00  0.00     0.093 C 
HETATM    9  C18         0       9.646  -1.325 -30.549  1.00  0.00     0.048 C 
HETATM   10  C19         0      10.226  -2.498 -31.012  1.00  0.00     0.096 C 
HETATM   11  C21         0       9.906  -2.967 -32.257  1.00  0.00     0.084 C 
ENDROOT
BRANCH  10  12
HETATM   12  O20         0      11.403  -2.953 -30.426  1.00  0.00    -0.359 OA
HETATM   13  H20         0      12.096  -2.322 -30.272  1.00  0.00     0.218 HD
ENDBRANCH  10  12
BRANCH   4  14
HETATM   14  C5          0       8.857  -3.989 -36.117  1.00  0.00     0.025 C 
HETATM   15  C6          0       7.909  -3.230 -36.787  1.00  0.00     0.004 C 
HETATM   16  C7          0       8.246  -2.743 -38.046  1.00  0.00     0.026 C 
HETATM   17  C8          0       9.431  -3.108 -38.676  1.00  0.00     0.112 C 
HETATM   18  C10         0       9.974  -4.309 -38.239  1.00  0.00     0.112 C 
HETATM   19  C12         0       9.689  -4.730 -36.946  1.00  0.00     0.028 C 
BRANCH  17  20
HETATM   20  O9          0      10.094  -2.222 -39.507  1.00  0.00    -0.357 OA
HETATM   21  H9          0      11.033  -2.235 -39.650  1.00  0.00     0.218 HD
ENDBRANCH  17  20
BRANCH  18  22
HETATM   22  O11         0      11.047  -4.812 -38.960  1.00  0.00    -0.357 OA
HETATM   23  H11         0      11.505  -4.206 -39.530  1.00  0.00     0.218 HD
ENDBRANCH  18  22
ENDBRANCH   4  14
BRANCH   8  24
HETATM   24  O17         0       8.730   0.785 -31.352  1.00  0.00    -0.359 OA
HETATM   25  H17         0       8.028   1.269 -31.769  1.00  0.00     0.218 HD
ENDBRANCH   8  24
TORSDOF 5
ENDMDL
