MODEL 1
REMARK VINA RESULT:      -1.1      0.000      0.000
REMARK  5 active torsions:
REMARK  status: ('A' for Active; 'I' for Inactive)
REMARK    1  A    between atoms: C4_4  and  C5_5 
REMARK    2  A    between atoms: C8_8  and  O9_9 
REMARK    3  A    between atoms: C10_11  and  O11_12 
REMARK    4  A    between atoms: C16_18  and  O17_19 
REMARK    5  A    between atoms: C19_22  and  O20_23 
ROOT
HETATM    1  O1          0      51.840 105.523  -2.420  1.00  0.00    -0.286 OA
HETATM    2  C2          0      52.621 104.696  -1.876  1.00  0.00     0.201 C 
HETATM    3  C3          0      54.000 104.807  -1.945  1.00  0.00     0.067 C 
HETATM    4  C4          0      54.837 103.828  -1.424  1.00  0.00     0.103 C 
HETATM    5  O13         0      54.295 102.778  -0.832  1.00  0.00    -0.307 OA
HETATM    6  C14         0      52.993 102.605  -0.772  1.00  0.00     0.107 C 
HETATM    7  C15         0      52.432 101.360  -0.527  1.00  0.00     0.049 C 
HETATM    8  C16         0      51.074 101.130  -0.715  1.00  0.00     0.093 C 
HETATM    9  C18         0      50.270 102.261  -0.629  1.00  0.00     0.048 C 
HETATM   10  C19         0      50.808 103.526  -0.823  1.00  0.00     0.096 C 
HETATM   11  C21         0      52.145 103.662  -1.084  1.00  0.00     0.084 C 
ENDROOT
BRANCH  10  12
HETATM   12  O20         0      49.966 104.578  -1.166  1.00  0.00    -0.359 OA
HETATM   13  H20         0      49.691 105.171  -0.478  1.00  0.00     0.218 HD
ENDBRANCH  10  12
BRANCH   4  14
HETATM   14  C5          0      56.163 103.688  -2.030  1.00  0.00     0.025 C 
HETATM   15  C6          0      56.749 102.457  -2.281  1.00  0.00     0.004 C 
HETATM   16  C7          0      57.484 102.320  -3.454  1.00  0.00     0.026 C 
HETATM   17  C8          0      57.741 103.406  -4.285  1.00  0.00     0.112 C 
HETATM   18  C10         0      57.677 104.643  -3.658  1.00  0.00     0.112 C 
HETATM   19  C12         0      56.868 104.773  -2.535  1.00  0.00     0.028 C 
BRANCH  17  20
HETATM   20  O9          0      57.837 103.243  -5.655  1.00  0.00    -0.357 OA
HETATM   21  H9          0      57.600 102.443  -6.110  1.00  0.00     0.218 HD
ENDBRANCH  17  20
BRANCH  18  22
HETATM   22  O11         0      58.108 105.741  -4.388  1.00  0.00    -0.357 OA
HETATM   23  H11         0      58.604 105.563  -5.180  1.00  0.00     0.218 HD
ENDBRANCH  18  22
ENDBRANCH   4  14
BRANCH   8  24
HETATM   24  O17         0      50.607  99.936  -1.276  1.00  0.00    -0.359 OA
HETATM   25  H17         0      50.912  99.090  -0.972  1.00  0.00     0.218 HD
ENDBRANCH   8  24
TORSDOF 5
ENDMDL
MODEL 2
REMARK VINA RESULT:      -1.1      1.848      2.337
REMARK  5 active torsions:
REMARK  status: ('A' for Active; 'I' for Inactive)
REMARK    1  A    between atoms: C4_4  and  C5_5 
REMARK    2  A    between atoms: C8_8  and  O9_9 
REMARK    3  A    between atoms: C10_11  and  O11_12 
REMARK    4  A    between atoms: C16_18  and  O17_19 
REMARK    5  A    between atoms: C19_22  and  O20_23 
ROOT
HETATM    1  O1          0      52.341 105.428  -1.700  1.00  0.00    -0.286 OA
HETATM    2  C2          0      52.975 104.520  -1.096  1.00  0.00     0.201 C 
HETATM    3  C3          0      54.351 104.544  -0.937  1.00  0.00     0.067 C 
HETATM    4  C4          0      55.035 103.481  -0.359  1.00  0.00     0.103 C 
HETATM    5  O13         0      54.346 102.436   0.064  1.00  0.00    -0.307 OA
HETATM    6  C14         0      53.044 102.346  -0.097  1.00  0.00     0.107 C 
HETATM    7  C15         0      52.381 101.129  -0.032  1.00  0.00     0.049 C 
HETATM    8  C16         0      51.062 101.002  -0.450  1.00  0.00     0.093 C 
HETATM    9  C18         0      50.319 102.176  -0.415  1.00  0.00     0.048 C 
HETATM   10  C19         0      50.952 103.412  -0.431  1.00  0.00     0.096 C 
HETATM   11  C21         0      52.319 103.475  -0.465  1.00  0.00     0.084 C 
ENDROOT
BRANCH  10  12
HETATM   12  O20         0      50.237 104.537  -0.830  1.00  0.00    -0.359 OA
HETATM   13  H20         0      50.513 104.982  -1.622  1.00  0.00     0.218 HD
ENDBRANCH  10  12
BRANCH   4  14
HETATM   14  C5          0      56.432 103.290  -0.753  1.00  0.00     0.025 C 
HETATM   15  C6          0      57.493 103.476   0.122  1.00  0.00     0.004 C 
HETATM   16  C7          0      58.566 102.596   0.030  1.00  0.00     0.026 C 
HETATM   17  C8          0      58.647 101.647  -0.984  1.00  0.00     0.112 C 
HETATM   18  C10         0      57.911 101.950  -2.122  1.00  0.00     0.112 C 
HETATM   19  C12         0      56.792 102.764  -1.987  1.00  0.00     0.028 C 
BRANCH  17  20
HETATM   20  O9          0      59.244 100.419  -0.759  1.00  0.00    -0.357 OA
HETATM   21  H9          0      59.296 100.006   0.095  1.00  0.00     0.218 HD
ENDBRANCH  17  20
BRANCH  18  22
HETATM   22  O11         0      58.104 101.138  -3.230  1.00  0.00    -0.357 OA
HETATM   23  H11         0      58.993 100.849  -3.402  1.00  0.00     0.218 HD
ENDBRANCH  18  22
ENDBRANCH   4  14
BRANCH   8  24
HETATM   24  O17         0      50.627  99.878  -1.160  1.00  0.00    -0.359 OA
HETATM   25  H17         0      51.162  99.476  -1.835  1.00  0.00     0.218 HD
ENDBRANCH   8  24
TORSDOF 5
ENDMDL
MODEL 3
REMARK VINA RESULT:      -1.1      4.219      6.632
REMARK  5 active torsions:
REMARK  status: ('A' for Active; 'I' for Inactive)
REMARK    1  A    between atoms: C4_4  and  C5_5 
REMARK    2  A    between atoms: C8_8  and  O9_9 
REMARK    3  A    between atoms: C10_11  and  O11_12 
REMARK    4  A    between atoms: C16_18  and  O17_19 
REMARK    5  A    between atoms: C19_22  and  O20_23 
ROOT
HETATM    1  O1          0      53.185 107.064  -0.702  1.00  0.00    -0.286 OA
HETATM    2  C2          0      52.118 106.725  -1.284  1.00  0.00     0.201 C 
HETATM    3  C3          0      51.493 105.510  -1.057  1.00  0.00     0.067 C 
HETATM    4  C4          0      50.376 105.118  -1.786  1.00  0.00     0.103 C 
HETATM    5  O13         0      49.894 105.941  -2.701  1.00  0.00    -0.307 OA
HETATM    6  C14         0      50.471 107.089  -2.982  1.00  0.00     0.107 C 
HETATM    7  C15         0      50.229 107.756  -4.174  1.00  0.00     0.049 C 
HETATM    8  C16         0      51.022 108.824  -4.577  1.00  0.00     0.093 C 
HETATM    9  C18         0      51.668 109.497  -3.547  1.00  0.00     0.048 C 
HETATM   10  C19         0      51.884 108.875  -2.324  1.00  0.00     0.096 C 
HETATM   11  C21         0      51.444 107.595  -2.127  1.00  0.00     0.084 C 
ENDROOT
BRANCH  10  12
HETATM   12  O20         0      52.879 109.361  -1.481  1.00  0.00    -0.359 OA
HETATM   13  H20         0      53.777 109.332  -1.789  1.00  0.00     0.218 HD
ENDBRANCH  10  12
BRANCH   4  14
HETATM   14  C5          0      50.148 103.680  -1.941  1.00  0.00     0.025 C 
HETATM   15  C6          0      49.890 103.088  -3.169  1.00  0.00     0.004 C 
HETATM   16  C7          0      50.454 101.840  -3.414  1.00  0.00     0.026 C 
HETATM   17  C8          0      51.140 101.143  -2.426  1.00  0.00     0.112 C 
HETATM   18  C10         0      50.804 101.499  -1.126  1.00  0.00     0.112 C 
HETATM   19  C12         0      50.322 102.782  -0.896  1.00  0.00     0.028 C 
BRANCH  17  20
HETATM   20  O9          0      52.210 100.327  -2.747  1.00  0.00    -0.357 OA
HETATM   21  H9          0      52.420  99.524  -2.283  1.00  0.00     0.218 HD
ENDBRANCH  17  20
BRANCH  18  22
HETATM   22  O11         0      51.316 100.709  -0.106  1.00  0.00    -0.357 OA
HETATM   23  H11         0      51.904 100.007  -0.360  1.00  0.00     0.218 HD
ENDBRANCH  18  22
ENDBRANCH   4  14
BRANCH   8  24
HETATM   24  O17         0      51.402 108.987  -5.914  1.00  0.00    -0.359 OA
HETATM   25  H17         0      52.204 109.435  -6.153  1.00  0.00     0.218 HD
ENDBRANCH   8  24
TORSDOF 5
ENDMDL
MODEL 4
REMARK VINA RESULT:      -1.1      3.611      6.468
REMARK  5 active torsions:
REMARK  status: ('A' for Active; 'I' for Inactive)
REMARK    1  A    between atoms: C4_4  and  C5_5 
REMARK    2  A    between atoms: C8_8  and  O9_9 
REMARK    3  A    between atoms: C10_11  and  O11_12 
REMARK    4  A    between atoms: C16_18  and  O17_19 
REMARK    5  A    between atoms: C19_22  and  O20_23 
ROOT
HETATM    1  O1          0      55.158 104.073  -5.640  1.00  0.00    -0.286 OA
HETATM    2  C2          0      53.990 104.278  -5.210  1.00  0.00     0.201 C 
HETATM    3  C3          0      53.661 104.203  -3.867  1.00  0.00     0.067 C 
HETATM    4  C4          0      52.347 104.332  -3.430  1.00  0.00     0.103 C 
HETATM    5  O13         0      51.400 104.553  -4.325  1.00  0.00    -0.307 OA
HETATM    6  C14         0      51.653 104.596  -5.614  1.00  0.00     0.107 C 
HETATM    7  C15         0      50.653 104.425  -6.561  1.00  0.00     0.049 C 
HETATM    8  C16         0      50.956 104.217  -7.901  1.00  0.00     0.093 C 
HETATM    9  C18         0      52.191 104.708  -8.307  1.00  0.00     0.048 C 
HETATM   10  C19         0      53.199 104.935  -7.379  1.00  0.00     0.096 C 
HETATM   11  C21         0      52.969 104.689  -6.053  1.00  0.00     0.084 C 
ENDROOT
BRANCH  10  12
HETATM   12  O20         0      54.520 104.997  -7.811  1.00  0.00    -0.359 OA
HETATM   13  H20         0      54.801 104.379  -8.475  1.00  0.00     0.218 HD
ENDBRANCH  10  12
BRANCH   4  14
HETATM   14  C5          0      51.991 103.670  -2.174  1.00  0.00     0.025 C 
HETATM   15  C6          0      50.699 103.665  -1.667  1.00  0.00     0.004 C 
HETATM   16  C7          0      50.253 102.500  -1.052  1.00  0.00     0.026 C 
HETATM   17  C8          0      51.102 101.422  -0.828  1.00  0.00     0.112 C 
HETATM   18  C10         0      52.451 101.747  -0.780  1.00  0.00     0.112 C 
HETATM   19  C12         0      52.885 102.870  -1.475  1.00  0.00     0.028 C 
BRANCH  17  20
HETATM   20  O9          0      50.625 100.124  -0.868  1.00  0.00    -0.357 OA
HETATM   21  H9          0      49.787  99.858  -0.507  1.00  0.00     0.218 HD
ENDBRANCH  17  20
BRANCH  18  22
HETATM   22  O11         0      53.324 100.747  -0.374  1.00  0.00    -0.357 OA
HETATM   23  H11         0      52.987 100.106   0.242  1.00  0.00     0.218 HD
ENDBRANCH  18  22
ENDBRANCH   4  14
BRANCH   8  24
HETATM   24  O17         0      50.237 103.302  -8.678  1.00  0.00    -0.359 OA
HETATM   25  H17         0      49.346 103.475  -8.957  1.00  0.00     0.218 HD
ENDBRANCH   8  24
TORSDOF 5
ENDMDL
MODEL 5
REMARK VINA RESULT:      -1.1      4.670      6.100
REMARK  5 active torsions:
REMARK  status: ('A' for Active; 'I' for Inactive)
REMARK    1  A    between atoms: C4_4  and  C5_5 
REMARK    2  A    between atoms: C8_8  and  O9_9 
REMARK    3  A    between atoms: C10_11  and  O11_12 
REMARK    4  A    between atoms: C16_18  and  O17_19 
REMARK    5  A    between atoms: C19_22  and  O20_23 
ROOT
HETATM    1  O1          0      50.645 105.382  -5.870  1.00  0.00    -0.286 OA
HETATM    2  C2          0      50.367 105.234  -4.649  1.00  0.00     0.201 C 
HETATM    3  C3          0      50.226 106.299  -3.776  1.00  0.00     0.067 C 
HETATM    4  C4          0      50.020 106.104  -2.415  1.00  0.00     0.103 C 
HETATM    5  O13         0      49.938 104.868  -1.957  1.00  0.00    -0.307 OA
HETATM    6  C14         0      50.102 103.821  -2.735  1.00  0.00     0.107 C 
HETATM    7  C15         0      50.415 102.570  -2.223  1.00  0.00     0.049 C 
HETATM    8  C16         0      50.835 101.535  -3.050  1.00  0.00     0.093 C 
HETATM    9  C18         0      50.423 101.637  -4.373  1.00  0.00     0.048 C 
HETATM   10  C19         0      50.058 102.867  -4.905  1.00  0.00     0.096 C 
HETATM   11  C21         0      50.088 103.984  -4.116  1.00  0.00     0.084 C 
ENDROOT
BRANCH  10  12
HETATM   12  O20         0      50.073 103.042  -6.286  1.00  0.00    -0.359 OA
HETATM   13  H20         0      50.282 102.290  -6.827  1.00  0.00     0.218 HD
ENDBRANCH  10  12
BRANCH   4  14
HETATM   14  C5          0      50.472 107.163  -1.511  1.00  0.00     0.025 C 
HETATM   15  C6          0      51.616 107.051  -0.734  1.00  0.00     0.004 C 
HETATM   16  C7          0      52.401 108.188  -0.575  1.00  0.00     0.026 C 
HETATM   17  C8          0      51.995 109.428  -1.057  1.00  0.00     0.112 C 
HETATM   18  C10         0      50.624 109.562  -1.233  1.00  0.00     0.112 C 
HETATM   19  C12         0      49.875 108.416  -1.475  1.00  0.00     0.028 C 
BRANCH  17  20
HETATM   20  O9          0      52.922 110.348  -1.515  1.00  0.00    -0.357 OA
HETATM   21  H9          0      52.772 110.923  -2.257  1.00  0.00     0.218 HD
ENDBRANCH  17  20
BRANCH  18  22
HETATM   22  O11         0      50.150 110.831  -1.529  1.00  0.00    -0.357 OA
HETATM   23  H11         0      49.960 111.017  -2.442  1.00  0.00     0.218 HD
ENDBRANCH  18  22
ENDBRANCH   4  14
BRANCH   8  24
HETATM   24  O17         0      51.858 100.662  -2.663  1.00  0.00    -0.359 OA
HETATM   25  H17         0      51.753 100.062  -1.935  1.00  0.00     0.218 HD
ENDBRANCH   8  24
TORSDOF 5
ENDMDL
MODEL 6
REMARK VINA RESULT:      -1.0      5.779      7.762
REMARK  5 active torsions:
REMARK  status: ('A' for Active; 'I' for Inactive)
REMARK    1  A    between atoms: C4_4  and  C5_5 
REMARK    2  A    between atoms: C8_8  and  O9_9 
REMARK    3  A    between atoms: C10_11  and  O11_12 
REMARK    4  A    between atoms: C16_18  and  O17_19 
REMARK    5  A    between atoms: C19_22  and  O20_23 
ROOT
HETATM    1  O1          0      54.363 104.409  -8.486  1.00  0.00    -0.286 OA
HETATM    2  C2          0      53.285 104.052  -7.937  1.00  0.00     0.201 C 
HETATM    3  C3          0      53.174 103.824  -6.576  1.00  0.00     0.067 C 
HETATM    4  C4          0      52.003 103.333  -6.012  1.00  0.00     0.103 C 
HETATM    5  O13         0      50.968 103.099  -6.800  1.00  0.00    -0.307 OA
HETATM    6  C14         0      51.031 103.263  -8.103  1.00  0.00     0.107 C 
HETATM    7  C15         0      50.123 102.659  -8.960  1.00  0.00     0.049 C 
HETATM    8  C16         0      50.340 102.623 -10.333  1.00  0.00     0.093 C 
HETATM    9  C18         0      51.163 103.629 -10.823  1.00  0.00     0.048 C 
HETATM   10  C19         0      52.050 104.287  -9.983  1.00  0.00     0.096 C 
HETATM   11  C21         0      52.103 103.954  -8.657  1.00  0.00     0.084 C 
ENDROOT
BRANCH  10  12
HETATM   12  O20         0      53.142 104.953 -10.533  1.00  0.00    -0.359 OA
HETATM   13  H20         0      53.673 105.488  -9.956  1.00  0.00     0.218 HD
ENDBRANCH  10  12
BRANCH   4  14
HETATM   14  C5          0      52.126 102.572  -4.767  1.00  0.00     0.025 C 
HETATM   15  C6          0      52.708 103.094  -3.621  1.00  0.00     0.004 C 
HETATM   16  C7          0      52.133 102.761  -2.398  1.00  0.00     0.026 C 
HETATM   17  C8          0      51.100 101.835  -2.306  1.00  0.00     0.112 C 
HETATM   18  C10         0      51.032 100.935  -3.361  1.00  0.00     0.112 C 
HETATM   19  C12         0      51.538 101.325  -4.595  1.00  0.00     0.028 C 
BRANCH  17  20
HETATM   20  O9          0      50.116 101.964  -1.341  1.00  0.00    -0.357 OA
HETATM   21  H9          0      50.021 102.728  -0.784  1.00  0.00     0.218 HD
ENDBRANCH  17  20
BRANCH  18  22
HETATM   22  O11         0      50.145  99.877  -3.228  1.00  0.00    -0.357 OA
HETATM   23  H11         0      49.218 100.089  -3.235  1.00  0.00     0.218 HD
ENDBRANCH  18  22
ENDBRANCH   4  14
BRANCH   8  24
HETATM   24  O17         0      50.038 101.485 -11.089  1.00  0.00    -0.359 OA
HETATM   25  H17         0      50.627 101.161 -11.760  1.00  0.00     0.218 HD
ENDBRANCH   8  24
TORSDOF 5
ENDMDL
MODEL 7
REMARK VINA RESULT:      -1.0      3.001      6.334
REMARK  5 active torsions:
REMARK  status: ('A' for Active; 'I' for Inactive)
REMARK    1  A    between atoms: C4_4  and  C5_5 
REMARK    2  A    between atoms: C8_8  and  O9_9 
REMARK    3  A    between atoms: C10_11  and  O11_12 
REMARK    4  A    between atoms: C16_18  and  O17_19 
REMARK    5  A    between atoms: C19_22  and  O20_23 
ROOT
HETATM    1  O1          0      55.996 105.921  -4.203  1.00  0.00    -0.286 OA
HETATM    2  C2          0      54.811 105.579  -3.937  1.00  0.00     0.201 C 
HETATM    3  C3          0      54.492 104.358  -3.368  1.00  0.00     0.067 C 
HETATM    4  C4          0      53.172 103.964  -3.180  1.00  0.00     0.103 C 
HETATM    5  O13         0      52.206 104.791  -3.539  1.00  0.00    -0.307 OA
HETATM    6  C14         0      52.453 105.946  -4.117  1.00  0.00     0.107 C 
HETATM    7  C15         0      51.483 106.622  -4.844  1.00  0.00     0.049 C 
HETATM    8  C16         0      51.812 107.699  -5.658  1.00  0.00     0.093 C 
HETATM    9  C18         0      52.977 108.368  -5.305  1.00  0.00     0.048 C 
HETATM   10  C19         0      53.948 107.737  -4.539  1.00  0.00     0.096 C 
HETATM   11  C21         0      53.748 106.452  -4.114  1.00  0.00     0.084 C 
ENDROOT
BRANCH  10  12
HETATM   12  O20         0      55.252 108.222  -4.559  1.00  0.00    -0.359 OA
HETATM   13  H20         0      55.788 108.091  -3.786  1.00  0.00     0.218 HD
ENDBRANCH  10  12
BRANCH   4  14
HETATM   14  C5          0      52.898 102.526  -3.162  1.00  0.00     0.025 C 
HETATM   15  C6          0      53.567 101.644  -2.327  1.00  0.00     0.004 C 
HETATM   16  C7          0      52.831 100.606  -1.763  1.00  0.00     0.026 C 
HETATM   17  C8          0      51.507 100.372  -2.122  1.00  0.00     0.112 C 
HETATM   18  C10         0      51.148 100.868  -3.368  1.00  0.00     0.112 C 
HETATM   19  C12         0      51.846 101.960  -3.871  1.00  0.00     0.028 C 
BRANCH  17  20
HETATM   20  O9          0      50.601  99.875  -1.203  1.00  0.00    -0.357 OA
HETATM   21  H9          0      50.026 100.422  -0.679  1.00  0.00     0.218 HD
ENDBRANCH  17  20
BRANCH  18  22
HETATM   22  O11         0      49.902 100.500  -3.855  1.00  0.00    -0.357 OA
HETATM   23  H11         0      49.269 100.183  -3.222  1.00  0.00     0.218 HD
ENDBRANCH  18  22
ENDBRANCH   4  14
BRANCH   8  24
HETATM   24  O17         0      51.212 107.876  -6.910  1.00  0.00    -0.359 OA
HETATM   25  H17         0      51.073 107.148  -7.504  1.00  0.00     0.218 HD
ENDBRANCH   8  24
TORSDOF 5
ENDMDL
MODEL 8
REMARK VINA RESULT:      -1.0      4.635      7.159
REMARK  5 active torsions:
REMARK  status: ('A' for Active; 'I' for Inactive)
REMARK    1  A    between atoms: C4_4  and  C5_5 
REMARK    2  A    between atoms: C8_8  and  O9_9 
REMARK    3  A    between atoms: C10_11  and  O11_12 
REMARK    4  A    between atoms: C16_18  and  O17_19 
REMARK    5  A    between atoms: C19_22  and  O20_23 
ROOT
HETATM    1  O1          0      53.729 107.418  -6.161  1.00  0.00    -0.286 OA
HETATM    2  C2          0      52.740 106.691  -5.870  1.00  0.00     0.201 C 
HETATM    3  C3          0      52.687 105.920  -4.722  1.00  0.00     0.067 C 
HETATM    4  C4          0      51.630 105.050  -4.476  1.00  0.00     0.103 C 
HETATM    5  O13         0      50.647 104.981  -5.357  1.00  0.00    -0.307 OA
HETATM    6  C14         0      50.666 105.664  -6.481  1.00  0.00     0.107 C 
HETATM    7  C15         0      49.875 105.310  -7.564  1.00  0.00     0.049 C 
HETATM    8  C16         0      50.081 105.867  -8.820  1.00  0.00     0.093 C 
HETATM    9  C18         0      50.702 107.110  -8.816  1.00  0.00     0.048 C 
HETATM   10  C19         0      51.463 107.515  -7.728  1.00  0.00     0.096 C 
HETATM   11  C21         0      51.589 106.691  -6.644  1.00  0.00     0.084 C 
ENDROOT
BRANCH  10  12
HETATM   12  O20         0      52.409 108.522  -7.897  1.00  0.00    -0.359 OA
HETATM   13  H20         0      52.605 109.078  -7.152  1.00  0.00     0.218 HD
ENDBRANCH  10  12
BRANCH   4  14
HETATM   14  C5          0      51.903 103.886  -3.631  1.00  0.00     0.025 C 
HETATM   15  C6          0      52.470 103.989  -2.369  1.00  0.00     0.004 C 
HETATM   16  C7          0      51.998 103.133  -1.379  1.00  0.00     0.026 C 
HETATM   17  C8          0      51.090 102.119  -1.664  1.00  0.00     0.112 C 
HETATM   18  C10         0      51.081 101.703  -2.988  1.00  0.00     0.112 C 
HETATM   19  C12         0      51.478 102.607  -3.967  1.00  0.00     0.028 C 
BRANCH  17  20
HETATM   20  O9          0      50.144 101.732  -0.731  1.00  0.00    -0.357 OA
HETATM   21  H9          0      50.012 100.833  -0.455  1.00  0.00     0.218 HD
ENDBRANCH  17  20
BRANCH  18  22
HETATM   22  O11         0      50.336 100.572  -3.287  1.00  0.00    -0.357 OA
HETATM   23  H11         0      49.401 100.617  -3.123  1.00  0.00     0.218 HD
ENDBRANCH  18  22
ENDBRANCH   4  14
BRANCH   8  24
HETATM   24  O17         0      49.984 105.097  -9.985  1.00  0.00    -0.359 OA
HETATM   25  H17         0      50.612 105.180 -10.692  1.00  0.00     0.218 HD
ENDBRANCH   8  24
TORSDOF 5
ENDMDL
MODEL 9
REMARK VINA RESULT:      -1.0      3.272      6.755
REMARK  5 active torsions:
REMARK  status: ('A' for Active; 'I' for Inactive)
REMARK    1  A    between atoms: C4_4  and  C5_5 
REMARK    2  A    between atoms: C8_8  and  O9_9 
REMARK    3  A    between atoms: C10_11  and  O11_12 
REMARK    4  A    between atoms: C16_18  and  O17_19 
REMARK    5  A    between atoms: C19_22  and  O20_23 
ROOT
HETATM    1  O1          0      54.285 106.080  -4.866  1.00  0.00    -0.286 OA
HETATM    2  C2          0      53.516 106.378  -3.911  1.00  0.00     0.201 C 
HETATM    3  C3          0      53.253 105.514  -2.862  1.00  0.00     0.067 C 
HETATM    4  C4          0      52.324 105.826  -1.876  1.00  0.00     0.103 C 
HETATM    5  O13         0      51.696 106.987  -1.941  1.00  0.00    -0.307 OA
HETATM    6  C14         0      51.881 107.827  -2.935  1.00  0.00     0.107 C 
HETATM    7  C15         0      50.966 108.829  -3.225  1.00  0.00     0.049 C 
HETATM    8  C16         0      51.032 109.544  -4.415  1.00  0.00     0.093 C 
HETATM    9  C18         0      52.290 109.589  -5.004  1.00  0.00     0.048 C 
HETATM   10  C19         0      53.245 108.629  -4.701  1.00  0.00     0.096 C 
HETATM   11  C21         0      52.952 107.640  -3.802  1.00  0.00     0.084 C 
ENDROOT
BRANCH  10  12
HETATM   12  O20         0      54.301 108.418  -5.582  1.00  0.00    -0.359 OA
HETATM   13  H20         0      55.070 108.968  -5.496  1.00  0.00     0.218 HD
ENDBRANCH  10  12
BRANCH   4  14
HETATM   14  C5          0      51.669 104.708  -1.195  1.00  0.00     0.025 C 
HETATM   15  C6          0      50.303 104.478  -1.269  1.00  0.00     0.004 C 
HETATM   16  C7          0      49.875 103.156  -1.348  1.00  0.00     0.026 C 
HETATM   17  C8          0      50.763 102.093  -1.222  1.00  0.00     0.112 C 
HETATM   18  C10         0      51.934 102.394  -0.540  1.00  0.00     0.112 C 
HETATM   19  C12         0      52.385 103.708  -0.548  1.00  0.00     0.028 C 
BRANCH  17  20
HETATM   20  O9          0      50.560 100.914  -1.916  1.00  0.00    -0.357 OA
HETATM   21  H9          0      49.917 100.259  -1.668  1.00  0.00     0.218 HD
ENDBRANCH  17  20
BRANCH  18  22
HETATM   22  O11         0      52.767 101.330  -0.222  1.00  0.00    -0.357 OA
HETATM   23  H11         0      52.899 101.148   0.702  1.00  0.00     0.218 HD
ENDBRANCH  18  22
ENDBRANCH   4  14
BRANCH   8  24
HETATM   24  O17         0      49.875 109.891  -5.122  1.00  0.00    -0.359 OA
HETATM   25  H17         0      49.816 109.786  -6.064  1.00  0.00     0.218 HD
ENDBRANCH   8  24
TORSDOF 5
ENDMDL
