MODEL 1
REMARK VINA RESULT:      -8.3      0.000      0.000
REMARK  5 active torsions:
REMARK  status: ('A' for Active; 'I' for Inactive)
REMARK    1  A    between atoms: C4_4  and  C5_5 
REMARK    2  A    between atoms: C8_8  and  O9_9 
REMARK    3  A    between atoms: C10_11  and  O11_12 
REMARK    4  A    between atoms: C16_18  and  O17_19 
REMARK    5  A    between atoms: C19_22  and  O20_23 
ROOT
HETATM    1  O1          0      46.341  49.910  -9.459  1.00  0.00    -0.286 OA
HETATM    2  C2          0      45.738  48.809  -9.334  1.00  0.00     0.201 C 
HETATM    3  C3          0      45.576  48.176  -8.113  1.00  0.00     0.067 C 
HETATM    4  C4          0      44.999  46.915  -8.017  1.00  0.00     0.103 C 
HETATM    5  O13         0      44.580  46.323  -9.122  1.00  0.00    -0.307 OA
HETATM    6  C14         0      44.743  46.863 -10.310  1.00  0.00     0.107 C 
HETATM    7  C15         0      44.682  46.107 -11.471  1.00  0.00     0.049 C 
HETATM    8  C16         0      45.103  46.623 -12.691  1.00  0.00     0.093 C 
HETATM    9  C18         0      45.066  48.008 -12.786  1.00  0.00     0.048 C 
HETATM   10  C19         0      45.079  48.795 -11.642  1.00  0.00     0.096 C 
HETATM   11  C21         0      45.110  48.201 -10.410  1.00  0.00     0.084 C 
ENDROOT
BRANCH  10  12
HETATM   12  O20         0      45.477  50.125 -11.736  1.00  0.00    -0.359 OA
HETATM   13  H20         0      45.005  50.768 -11.220  1.00  0.00     0.218 HD
ENDBRANCH  10  12
BRANCH   4  14
HETATM   14  C5          0      45.391  46.083  -6.878  1.00  0.00     0.025 C 
HETATM   15  C6          0      46.493  45.240  -6.906  1.00  0.00     0.004 C 
HETATM   16  C7          0      47.257  45.139  -5.748  1.00  0.00     0.026 C 
HETATM   17  C8          0      46.866  45.749  -4.560  1.00  0.00     0.112 C 
HETATM   18  C10         0      45.505  46.007  -4.462  1.00  0.00     0.112 C 
HETATM   19  C12         0      44.781  46.189  -5.635  1.00  0.00     0.028 C 
BRANCH  17  20
HETATM   20  O9          0      47.806  46.235  -3.670  1.00  0.00    -0.357 OA
HETATM   21  H9          0      48.122  45.749  -2.917  1.00  0.00     0.218 HD
ENDBRANCH  17  20
BRANCH  18  22
HETATM   22  O11         0      45.034  46.438  -3.230  1.00  0.00    -0.357 OA
HETATM   23  H11         0      44.639  47.302  -3.199  1.00  0.00     0.218 HD
ENDBRANCH  18  22
ENDBRANCH   4  14
BRANCH   8  24
HETATM   24  O17         0      45.816  45.841 -13.606  1.00  0.00    -0.359 OA
HETATM   25  H17         0      46.505  46.209 -14.147  1.00  0.00     0.218 HD
ENDBRANCH   8  24
TORSDOF 5
ENDMDL
MODEL 2
REMARK VINA RESULT:      -8.0      2.184      6.453
REMARK  5 active torsions:
REMARK  status: ('A' for Active; 'I' for Inactive)
REMARK    1  A    between atoms: C4_4  and  C5_5 
REMARK    2  A    between atoms: C8_8  and  O9_9 
REMARK    3  A    between atoms: C10_11  and  O11_12 
REMARK    4  A    between atoms: C16_18  and  O17_19 
REMARK    5  A    between atoms: C19_22  and  O20_23 
ROOT
HETATM    1  O1          0      44.959  47.909  -5.968  1.00  0.00    -0.286 OA
HETATM    2  C2          0      44.816  47.333  -7.081  1.00  0.00     0.201 C 
HETATM    3  C3          0      45.378  47.812  -8.252  1.00  0.00     0.067 C 
HETATM    4  C4          0      45.120  47.216  -9.482  1.00  0.00     0.103 C 
HETATM    5  O13         0      44.334  46.154  -9.520  1.00  0.00    -0.307 OA
HETATM    6  C14         0      43.745  45.682  -8.443  1.00  0.00     0.107 C 
HETATM    7  C15         0      42.637  44.851  -8.521  1.00  0.00     0.049 C 
HETATM    8  C16         0      41.869  44.563  -7.399  1.00  0.00     0.093 C 
HETATM    9  C18         0      42.536  44.685  -6.186  1.00  0.00     0.048 C 
HETATM   10  C19         0      43.676  45.471  -6.083  1.00  0.00     0.096 C 
HETATM   11  C21         0      44.157  46.118  -7.188  1.00  0.00     0.084 C 
ENDROOT
BRANCH  10  12
HETATM   12  O20         0      44.071  45.935  -4.832  1.00  0.00    -0.359 OA
HETATM   13  H20         0      43.517  46.573  -4.398  1.00  0.00     0.218 HD
ENDBRANCH  10  12
BRANCH   4  14
HETATM   14  C5          0      45.217  48.064 -10.671  1.00  0.00     0.025 C 
HETATM   15  C6          0      45.368  49.441 -10.602  1.00  0.00     0.004 C 
HETATM   16  C7          0      46.204  50.046 -11.535  1.00  0.00     0.026 C 
HETATM   17  C8          0      46.767  49.327 -12.584  1.00  0.00     0.112 C 
HETATM   18  C10         0      46.079  48.171 -12.929  1.00  0.00     0.112 C 
HETATM   19  C12         0      45.318  47.539 -11.953  1.00  0.00     0.028 C 
BRANCH  17  20
HETATM   20  O9          0      48.019  49.651 -13.074  1.00  0.00    -0.357 OA
HETATM   21  H9          0      48.706  50.046 -12.549  1.00  0.00     0.218 HD
ENDBRANCH  17  20
BRANCH  18  22
HETATM   22  O11         0      46.486  47.519 -14.085  1.00  0.00    -0.357 OA
HETATM   23  H11         0      46.719  48.065 -14.827  1.00  0.00     0.218 HD
ENDBRANCH  18  22
ENDBRANCH   4  14
BRANCH   8  24
HETATM   24  O17         0      40.474  44.494  -7.468  1.00  0.00    -0.359 OA
HETATM   25  H17         0      39.955  44.155  -6.748  1.00  0.00     0.218 HD
ENDBRANCH   8  24
TORSDOF 5
ENDMDL
MODEL 3
REMARK VINA RESULT:      -7.8      1.376      2.976
REMARK  5 active torsions:
REMARK  status: ('A' for Active; 'I' for Inactive)
REMARK    1  A    between atoms: C4_4  and  C5_5 
REMARK    2  A    between atoms: C8_8  and  O9_9 
REMARK    3  A    between atoms: C10_11  and  O11_12 
REMARK    4  A    between atoms: C16_18  and  O17_19 
REMARK    5  A    between atoms: C19_22  and  O20_23 
ROOT
HETATM    1  O1          0      43.408  44.884 -10.834  1.00  0.00    -0.286 OA
HETATM    2  C2          0      44.354  45.636 -10.473  1.00  0.00     0.201 C 
HETATM    3  C3          0      44.884  45.613  -9.194  1.00  0.00     0.067 C 
HETATM    4  C4          0      45.856  46.523  -8.792  1.00  0.00     0.103 C 
HETATM    5  O13         0      46.292  47.414  -9.665  1.00  0.00    -0.307 OA
HETATM    6  C14         0      45.796  47.503 -10.879  1.00  0.00     0.107 C 
HETATM    7  C15         0      45.944  48.649 -11.647  1.00  0.00     0.049 C 
HETATM    8  C16         0      45.211  48.837 -12.813  1.00  0.00     0.093 C 
HETATM    9  C18         0      44.770  47.669 -13.423  1.00  0.00     0.048 C 
HETATM   10  C19         0      44.655  46.493 -12.695  1.00  0.00     0.096 C 
HETATM   11  C21         0      44.993  46.478 -11.370  1.00  0.00     0.084 C 
ENDROOT
BRANCH  10  12
HETATM   12  O20         0      43.827  45.478 -13.168  1.00  0.00    -0.359 OA
HETATM   13  H20         0      43.432  45.589 -14.025  1.00  0.00     0.218 HD
ENDBRANCH  10  12
BRANCH   4  14
HETATM   14  C5          0      45.924  46.842  -7.365  1.00  0.00     0.025 C 
HETATM   15  C6          0      45.054  47.732  -6.751  1.00  0.00     0.004 C 
HETATM   16  C7          0      44.617  47.423  -5.467  1.00  0.00     0.026 C 
HETATM   17  C8          0      45.129  46.338  -4.763  1.00  0.00     0.112 C 
HETATM   18  C10         0      46.387  45.921  -5.176  1.00  0.00     0.112 C 
HETATM   19  C12         0      46.766  46.167  -6.490  1.00  0.00     0.028 C 
BRANCH  17  20
HETATM   20  O9          0      44.336  45.628  -3.879  1.00  0.00    -0.357 OA
HETATM   21  H9          0      43.794  44.890  -4.133  1.00  0.00     0.218 HD
ENDBRANCH  17  20
BRANCH  18  22
HETATM   22  O11         0      47.024  44.971  -4.390  1.00  0.00    -0.357 OA
HETATM   23  H11         0      46.643  44.100  -4.376  1.00  0.00     0.218 HD
ENDBRANCH  18  22
ENDBRANCH   4  14
BRANCH   8  24
HETATM   24  O17         0      44.679  50.087 -13.146  1.00  0.00    -0.359 OA
HETATM   25  H17         0      44.974  50.567 -13.912  1.00  0.00     0.218 HD
ENDBRANCH   8  24
TORSDOF 5
ENDMDL
MODEL 4
REMARK VINA RESULT:      -7.7      1.482      2.352
REMARK  5 active torsions:
REMARK  status: ('A' for Active; 'I' for Inactive)
REMARK    1  A    between atoms: C4_4  and  C5_5 
REMARK    2  A    between atoms: C8_8  and  O9_9 
REMARK    3  A    between atoms: C10_11  and  O11_12 
REMARK    4  A    between atoms: C16_18  and  O17_19 
REMARK    5  A    between atoms: C19_22  and  O20_23 
ROOT
HETATM    1  O1          0      46.509  50.042 -11.950  1.00  0.00    -0.286 OA
HETATM    2  C2          0      45.864  49.111 -11.395  1.00  0.00     0.201 C 
HETATM    3  C3          0      45.701  49.025 -10.023  1.00  0.00     0.067 C 
HETATM    4  C4          0      45.074  47.935  -9.430  1.00  0.00     0.103 C 
HETATM    5  O13         0      44.608  46.972 -10.206  1.00  0.00    -0.307 OA
HETATM    6  C14         0      44.769  46.986 -11.511  1.00  0.00     0.107 C 
HETATM    7  C15         0      44.653  45.833 -12.274  1.00  0.00     0.049 C 
HETATM    8  C16         0      45.070  45.800 -13.599  1.00  0.00     0.093 C 
HETATM    9  C18         0      45.089  47.033 -14.240  1.00  0.00     0.048 C 
HETATM   10  C19         0      45.157  48.209 -13.504  1.00  0.00     0.096 C 
HETATM   11  C21         0      45.189  48.154 -12.138  1.00  0.00     0.084 C 
ENDROOT
BRANCH  10  12
HETATM   12  O20         0      45.608  49.372 -14.121  1.00  0.00    -0.359 OA
HETATM   13  H20         0      46.544  49.527 -14.149  1.00  0.00     0.218 HD
ENDBRANCH  10  12
BRANCH   4  14
HETATM   14  C5          0      45.456  47.609  -8.054  1.00  0.00     0.025 C 
HETATM   15  C6          0      45.121  48.410  -6.972  1.00  0.00     0.004 C 
HETATM   16  C7          0      44.767  47.776  -5.786  1.00  0.00     0.026 C 
HETATM   17  C8          0      44.871  46.397  -5.637  1.00  0.00     0.112 C 
HETATM   18  C10         0      45.777  45.787  -6.495  1.00  0.00     0.112 C 
HETATM   19  C12         0      46.048  46.400  -7.712  1.00  0.00     0.028 C 
BRANCH  17  20
HETATM   20  O9          0      43.978  45.701  -4.842  1.00  0.00    -0.357 OA
HETATM   21  H9          0      43.468  46.100  -4.146  1.00  0.00     0.218 HD
ENDBRANCH  17  20
BRANCH  18  22
HETATM   22  O11         0      46.058  44.448  -6.264  1.00  0.00    -0.357 OA
HETATM   23  H11         0      46.690  44.036  -6.841  1.00  0.00     0.218 HD
ENDBRANCH  18  22
ENDBRANCH   4  14
BRANCH   8  24
HETATM   24  O17         0      45.732  44.686 -14.128  1.00  0.00    -0.359 OA
HETATM   25  H17         0      46.552  44.771 -14.600  1.00  0.00     0.218 HD
ENDBRANCH   8  24
TORSDOF 5
ENDMDL
MODEL 5
REMARK VINA RESULT:      -7.6      1.927      6.757
REMARK  5 active torsions:
REMARK  status: ('A' for Active; 'I' for Inactive)
REMARK    1  A    between atoms: C4_4  and  C5_5 
REMARK    2  A    between atoms: C8_8  and  O9_9 
REMARK    3  A    between atoms: C10_11  and  O11_12 
REMARK    4  A    between atoms: C16_18  and  O17_19 
REMARK    5  A    between atoms: C19_22  and  O20_23 
ROOT
HETATM    1  O1          0      45.718  48.744  -7.220  1.00  0.00    -0.286 OA
HETATM    2  C2          0      45.374  47.853  -8.043  1.00  0.00     0.201 C 
HETATM    3  C3          0      45.592  47.964  -9.406  1.00  0.00     0.067 C 
HETATM    4  C4          0      45.111  47.015 -10.300  1.00  0.00     0.103 C 
HETATM    5  O13         0      44.448  45.975  -9.827  1.00  0.00    -0.307 OA
HETATM    6  C14         0      44.180  45.840  -8.546  1.00  0.00     0.107 C 
HETATM    7  C15         0      43.173  45.000  -8.094  1.00  0.00     0.049 C 
HETATM    8  C16         0      42.726  45.051  -6.780  1.00  0.00     0.093 C 
HETATM    9  C18         0      43.645  45.553  -5.866  1.00  0.00     0.048 C 
HETATM   10  C19         0      44.693  46.359  -6.291  1.00  0.00     0.096 C 
HETATM   11  C21         0      44.832  46.648  -7.621  1.00  0.00     0.084 C 
ENDROOT
BRANCH  10  12
HETATM   12  O20         0      45.326  47.192  -5.373  1.00  0.00    -0.359 OA
HETATM   13  H20         0      46.160  47.574  -5.619  1.00  0.00     0.218 HD
ENDBRANCH  10  12
BRANCH   4  14
HETATM   14  C5          0      44.839  47.461 -11.668  1.00  0.00     0.025 C 
HETATM   15  C6          0      45.133  48.742 -12.113  1.00  0.00     0.004 C 
HETATM   16  C7          0      45.616  48.878 -13.411  1.00  0.00     0.026 C 
HETATM   17  C8          0      45.679  47.796 -14.283  1.00  0.00     0.112 C 
HETATM   18  C10         0      44.807  46.758 -13.983  1.00  0.00     0.112 C 
HETATM   19  C12         0      44.407  46.593 -12.662  1.00  0.00     0.028 C 
BRANCH  17  20
HETATM   20  O9          0      46.685  47.706 -15.229  1.00  0.00    -0.357 OA
HETATM   21  H9          0      47.585  47.965 -15.069  1.00  0.00     0.218 HD
ENDBRANCH  17  20
BRANCH  18  22
HETATM   22  O11         0      44.693  45.742 -14.921  1.00  0.00    -0.357 OA
HETATM   23  H11         0      44.668  44.852 -14.590  1.00  0.00     0.218 HD
ENDBRANCH  18  22
ENDBRANCH   4  14
BRANCH   8  24
HETATM   24  O17         0      41.367  44.932  -6.466  1.00  0.00    -0.359 OA
HETATM   25  H17         0      40.899  45.619  -6.006  1.00  0.00     0.218 HD
ENDBRANCH   8  24
TORSDOF 5
ENDMDL
MODEL 6
REMARK VINA RESULT:      -7.5      2.233      6.890
REMARK  5 active torsions:
REMARK  status: ('A' for Active; 'I' for Inactive)
REMARK    1  A    between atoms: C4_4  and  C5_5 
REMARK    2  A    between atoms: C8_8  and  O9_9 
REMARK    3  A    between atoms: C10_11  and  O11_12 
REMARK    4  A    between atoms: C16_18  and  O17_19 
REMARK    5  A    between atoms: C19_22  and  O20_23 
ROOT
HETATM    1  O1          0      45.225  49.533  -8.622  1.00  0.00    -0.286 OA
HETATM    2  C2          0      45.111  48.419  -9.203  1.00  0.00     0.201 C 
HETATM    3  C3          0      45.338  48.252 -10.559  1.00  0.00     0.067 C 
HETATM    4  C4          0      45.106  47.037 -11.192  1.00  0.00     0.103 C 
HETATM    5  O13         0      44.678  46.016 -10.470  1.00  0.00    -0.307 OA
HETATM    6  C14         0      44.411  46.130  -9.187  1.00  0.00     0.107 C 
HETATM    7  C15         0      43.605  45.217  -8.524  1.00  0.00     0.049 C 
HETATM    8  C16         0      43.120  45.475  -7.248  1.00  0.00     0.093 C 
HETATM    9  C18         0      43.878  46.370  -6.502  1.00  0.00     0.048 C 
HETATM   10  C19         0      44.731  47.266  -7.131  1.00  0.00     0.096 C 
HETATM   11  C21         0      44.840  47.258  -8.495  1.00  0.00     0.084 C 
ENDROOT
BRANCH  10  12
HETATM   12  O20         0      45.136  48.411  -6.452  1.00  0.00    -0.359 OA
HETATM   13  H20         0      45.118  48.396  -5.503  1.00  0.00     0.218 HD
ENDBRANCH  10  12
BRANCH   4  14
HETATM   14  C5          0      44.780  47.077 -12.619  1.00  0.00     0.025 C 
HETATM   15  C6          0      45.069  48.167 -13.426  1.00  0.00     0.004 C 
HETATM   16  C7          0      45.497  47.912 -14.725  1.00  0.00     0.026 C 
HETATM   17  C8          0      45.509  46.624 -15.249  1.00  0.00     0.112 C 
HETATM   18  C10         0      44.639  45.737 -14.629  1.00  0.00     0.112 C 
HETATM   19  C12         0      44.294  45.969 -13.303  1.00  0.00     0.028 C 
BRANCH  17  20
HETATM   20  O9          0      46.472  46.241 -16.166  1.00  0.00    -0.357 OA
HETATM   21  H9          0      46.305  46.143 -17.097  1.00  0.00     0.218 HD
ENDBRANCH  17  20
BRANCH  18  22
HETATM   22  O11         0      44.472  44.497 -15.229  1.00  0.00    -0.357 OA
HETATM   23  H11         0      44.264  44.493 -16.156  1.00  0.00     0.218 HD
ENDBRANCH  18  22
ENDBRANCH   4  14
BRANCH   8  24
HETATM   24  O17         0      41.815  45.132  -6.880  1.00  0.00    -0.359 OA
HETATM   25  H17         0      41.424  45.447  -6.073  1.00  0.00     0.218 HD
ENDBRANCH   8  24
TORSDOF 5
ENDMDL
MODEL 7
REMARK VINA RESULT:      -7.2      1.898      7.188
REMARK  5 active torsions:
REMARK  status: ('A' for Active; 'I' for Inactive)
REMARK    1  A    between atoms: C4_4  and  C5_5 
REMARK    2  A    between atoms: C8_8  and  O9_9 
REMARK    3  A    between atoms: C10_11  and  O11_12 
REMARK    4  A    between atoms: C16_18  and  O17_19 
REMARK    5  A    between atoms: C19_22  and  O20_23 
ROOT
HETATM    1  O1          0      43.364  43.321  -8.980  1.00  0.00    -0.286 OA
HETATM    2  C2          0      43.805  44.489  -9.156  1.00  0.00     0.201 C 
HETATM    3  C3          0      43.907  45.072 -10.408  1.00  0.00     0.067 C 
HETATM    4  C4          0      44.492  46.321 -10.585  1.00  0.00     0.103 C 
HETATM    5  O13         0      44.940  46.968  -9.524  1.00  0.00    -0.307 OA
HETATM    6  C14         0      44.903  46.444  -8.318  1.00  0.00     0.107 C 
HETATM    7  C15         0      45.707  46.916  -7.291  1.00  0.00     0.049 C 
HETATM    8  C16         0      45.852  46.207  -6.104  1.00  0.00     0.093 C 
HETATM    9  C18         0      44.799  45.354  -5.798  1.00  0.00     0.048 C 
HETATM   10  C19         0      43.946  44.900  -6.795  1.00  0.00     0.096 C 
HETATM   11  C21         0      44.133  45.309  -8.087  1.00  0.00     0.084 C 
ENDROOT
BRANCH  10  12
HETATM   12  O20         0      43.199  43.746  -6.578  1.00  0.00    -0.359 OA
HETATM   13  H20         0      43.305  43.026  -7.188  1.00  0.00     0.218 HD
ENDBRANCH  10  12
BRANCH   4  14
HETATM   14  C5          0      45.100  46.597 -11.888  1.00  0.00     0.025 C 
HETATM   15  C6          0      45.181  45.648 -12.896  1.00  0.00     0.004 C 
HETATM   16  C7          0      44.984  46.078 -14.204  1.00  0.00     0.026 C 
HETATM   17  C8          0      44.844  47.426 -14.516  1.00  0.00     0.112 C 
HETATM   18  C10         0      45.396  48.296 -13.585  1.00  0.00     0.112 C 
HETATM   19  C12         0      45.503  47.871 -12.266  1.00  0.00     0.028 C 
BRANCH  17  20
HETATM   20  O9          0      44.033  47.832 -15.560  1.00  0.00    -0.357 OA
HETATM   21  H9          0      43.498  48.617 -15.538  1.00  0.00     0.218 HD
ENDBRANCH  17  20
BRANCH  18  22
HETATM   22  O11         0      45.453  49.638 -13.935  1.00  0.00    -0.357 OA
HETATM   23  H11         0      46.313  49.999 -14.117  1.00  0.00     0.218 HD
ENDBRANCH  18  22
ENDBRANCH   4  14
BRANCH   8  24
HETATM   24  O17         0      47.091  46.107  -5.461  1.00  0.00    -0.359 OA
HETATM   25  H17         0      47.368  45.306  -5.034  1.00  0.00     0.218 HD
ENDBRANCH   8  24
TORSDOF 5
ENDMDL
MODEL 8
REMARK VINA RESULT:      -6.5      2.144      3.743
REMARK  5 active torsions:
REMARK  status: ('A' for Active; 'I' for Inactive)
REMARK    1  A    between atoms: C4_4  and  C5_5 
REMARK    2  A    between atoms: C8_8  and  O9_9 
REMARK    3  A    between atoms: C10_11  and  O11_12 
REMARK    4  A    between atoms: C16_18  and  O17_19 
REMARK    5  A    between atoms: C19_22  and  O20_23 
ROOT
HETATM    1  O1          0      43.637  44.772 -13.584  1.00  0.00    -0.286 OA
HETATM    2  C2          0      44.271  45.410 -12.699  1.00  0.00     0.201 C 
HETATM    3  C3          0      44.089  45.195 -11.343  1.00  0.00     0.067 C 
HETATM    4  C4          0      44.723  45.982 -10.389  1.00  0.00     0.103 C 
HETATM    5  O13         0      45.534  46.943 -10.796  1.00  0.00    -0.307 OA
HETATM    6  C14         0      45.713  47.213 -12.070  1.00  0.00     0.107 C 
HETATM    7  C15         0      46.221  48.433 -12.494  1.00  0.00     0.049 C 
HETATM    8  C16         0      46.171  48.811 -13.831  1.00  0.00     0.093 C 
HETATM    9  C18         0      46.101  47.758 -14.736  1.00  0.00     0.048 C 
HETATM   10  C19         0      45.641  46.511 -14.334  1.00  0.00     0.096 C 
HETATM   11  C21         0      45.270  46.312 -13.032  1.00  0.00     0.084 C 
ENDROOT
BRANCH  10  12
HETATM   12  O20         0      45.168  45.620 -15.291  1.00  0.00    -0.359 OA
HETATM   13  H20         0      44.228  45.502 -15.363  1.00  0.00     0.218 HD
ENDBRANCH  10  12
BRANCH   4  14
HETATM   14  C5          0      44.066  46.118  -9.088  1.00  0.00     0.025 C 
HETATM   15  C6          0      43.356  45.086  -8.493  1.00  0.00     0.004 C 
HETATM   16  C7          0      43.464  44.942  -7.113  1.00  0.00     0.026 C 
HETATM   17  C8          0      44.145  45.870  -6.334  1.00  0.00     0.112 C 
HETATM   18  C10         0      44.255  47.133  -6.900  1.00  0.00     0.112 C 
HETATM   19  C12         0      44.229  47.240  -8.286  1.00  0.00     0.028 C 
BRANCH  17  20
HETATM   20  O9          0      44.825  45.477  -5.195  1.00  0.00    -0.357 OA
HETATM   21  H9          0      45.762  45.320  -5.168  1.00  0.00     0.218 HD
ENDBRANCH  17  20
BRANCH  18  22
HETATM   22  O11         0      44.755  48.143  -6.091  1.00  0.00    -0.357 OA
HETATM   23  H11         0      44.939  48.977  -6.508  1.00  0.00     0.218 HD
ENDBRANCH  18  22
ENDBRANCH   4  14
BRANCH   8  24
HETATM   24  O17         0      45.872  50.125 -14.206  1.00  0.00    -0.359 OA
HETATM   25  H17         0      46.397  50.860 -13.912  1.00  0.00     0.218 HD
ENDBRANCH   8  24
TORSDOF 5
ENDMDL
MODEL 9
REMARK VINA RESULT:      -6.5      2.312      3.479
REMARK  5 active torsions:
REMARK  status: ('A' for Active; 'I' for Inactive)
REMARK    1  A    between atoms: C4_4  and  C5_5 
REMARK    2  A    between atoms: C8_8  and  O9_9 
REMARK    3  A    between atoms: C10_11  and  O11_12 
REMARK    4  A    between atoms: C16_18  and  O17_19 
REMARK    5  A    between atoms: C19_22  and  O20_23 
ROOT
HETATM    1  O1          0      45.947  48.303 -12.994  1.00  0.00    -0.286 OA
HETATM    2  C2          0      45.233  47.331 -12.622  1.00  0.00     0.201 C 
HETATM    3  C3          0      44.923  47.093 -11.294  1.00  0.00     0.067 C 
HETATM    4  C4          0      44.221  45.959 -10.902  1.00  0.00     0.103 C 
HETATM    5  O13         0      43.826  45.104 -11.830  1.00  0.00    -0.307 OA
HETATM    6  C14         0      44.126  45.264 -13.100  1.00  0.00     0.107 C 
HETATM    7  C15         0      44.076  44.210 -14.001  1.00  0.00     0.049 C 
HETATM    8  C16         0      44.631  44.318 -15.270  1.00  0.00     0.093 C 
HETATM    9  C18         0      44.737  45.616 -15.756  1.00  0.00     0.048 C 
HETATM   10  C19         0      44.743  46.697 -14.885  1.00  0.00     0.096 C 
HETATM   11  C21         0      44.628  46.485 -13.538  1.00  0.00     0.084 C 
ENDROOT
BRANCH  10  12
HETATM   12  O20         0      45.274  47.911 -15.311  1.00  0.00    -0.359 OA
HETATM   13  H20         0      44.692  48.525 -15.742  1.00  0.00     0.218 HD
ENDBRANCH  10  12
BRANCH   4  14
HETATM   14  C5          0      44.448  45.467  -9.542  1.00  0.00     0.025 C 
HETATM   15  C6          0      45.698  45.468  -8.941  1.00  0.00     0.004 C 
HETATM   16  C7          0      45.762  45.780  -7.586  1.00  0.00     0.026 C 
HETATM   17  C8          0      44.612  45.953  -6.823  1.00  0.00     0.112 C 
HETATM   18  C10         0      43.481  45.326  -7.328  1.00  0.00     0.112 C 
HETATM   19  C12         0      43.406  45.104  -8.698  1.00  0.00     0.028 C 
BRANCH  17  20
HETATM   20  O9          0      44.587  46.853  -5.773  1.00  0.00    -0.357 OA
HETATM   21  H9          0      43.797  47.281  -5.463  1.00  0.00     0.218 HD
ENDBRANCH  17  20
BRANCH  18  22
HETATM   22  O11         0      42.357  45.307  -6.515  1.00  0.00    -0.357 OA
HETATM   23  H11         0      42.028  44.454  -6.255  1.00  0.00     0.218 HD
ENDBRANCH  18  22
ENDBRANCH   4  14
BRANCH   8  24
HETATM   24  O17         0      45.330  43.255 -15.854  1.00  0.00    -0.359 OA
HETATM   25  H17         0      46.057  42.833 -15.412  1.00  0.00     0.218 HD
ENDBRANCH   8  24
TORSDOF 5
ENDMDL
