MODEL 1
REMARK VINA RESULT:      -6.3      0.000      0.000
REMARK  5 active torsions:
REMARK  status: ('A' for Active; 'I' for Inactive)
REMARK    1  A    between atoms: C4_4  and  C5_5 
REMARK    2  A    between atoms: C8_8  and  O9_9 
REMARK    3  A    between atoms: C10_11  and  O11_12 
REMARK    4  A    between atoms: C16_18  and  O17_19 
REMARK    5  A    between atoms: C19_22  and  O20_23 
ROOT
HETATM    1  O1          0      33.805  77.987 -31.962  1.00  0.00    -0.286 OA
HETATM    2  C2          0      33.794  77.325 -33.035  1.00  0.00     0.201 C 
HETATM    3  C3          0      32.679  76.637 -33.482  1.00  0.00     0.067 C 
HETATM    4  C4          0      32.724  75.832 -34.615  1.00  0.00     0.103 C 
HETATM    5  O13         0      33.859  75.744 -35.286  1.00  0.00    -0.307 OA
HETATM    6  C14         0      34.957  76.346 -34.884  1.00  0.00     0.107 C 
HETATM    7  C15         0      36.211  75.952 -35.328  1.00  0.00     0.049 C 
HETATM    8  C16         0      37.371  76.412 -34.716  1.00  0.00     0.093 C 
HETATM    9  C18         0      37.242  77.625 -34.051  1.00  0.00     0.048 C 
HETATM   10  C19         0      35.996  78.072 -33.634  1.00  0.00     0.096 C 
HETATM   11  C21         0      34.883  77.320 -33.894  1.00  0.00     0.084 C 
ENDROOT
BRANCH  10  12
HETATM   12  O20         0      35.919  79.023 -32.621  1.00  0.00    -0.359 OA
HETATM   13  H20         0      36.072  79.932 -32.851  1.00  0.00     0.218 HD
ENDBRANCH  10  12
BRANCH   4  14
HETATM   14  C5          0      31.776  74.719 -34.684  1.00  0.00     0.025 C 
HETATM   15  C6          0      30.450  74.882 -35.056  1.00  0.00     0.004 C 
HETATM   16  C7          0      29.875  73.890 -35.844  1.00  0.00     0.026 C 
HETATM   17  C8          0      30.551  72.711 -36.141  1.00  0.00     0.112 C 
HETATM   18  C10         0      31.553  72.375 -35.241  1.00  0.00     0.112 C 
HETATM   19  C12         0      32.170  73.396 -34.528  1.00  0.00     0.028 C 
BRANCH  17  20
HETATM   20  O9          0      30.359  72.070 -37.352  1.00  0.00    -0.357 OA
HETATM   21  H9          0      30.383  72.512 -38.193  1.00  0.00     0.218 HD
ENDBRANCH  17  20
BRANCH  18  22
HETATM   22  O11         0      32.128  71.120 -35.381  1.00  0.00    -0.357 OA
HETATM   23  H11         0      32.886  71.056 -35.952  1.00  0.00     0.218 HD
ENDBRANCH  18  22
ENDBRANCH   4  14
BRANCH   8  24
HETATM   24  O17         0      38.466  75.568 -34.502  1.00  0.00    -0.359 OA
HETATM   25  H17         0      39.346  75.909 -34.391  1.00  0.00     0.218 HD
ENDBRANCH   8  24
TORSDOF 5
ENDMDL
MODEL 2
REMARK VINA RESULT:      -5.9      2.101      7.183
REMARK  5 active torsions:
REMARK  status: ('A' for Active; 'I' for Inactive)
REMARK    1  A    between atoms: C4_4  and  C5_5 
REMARK    2  A    between atoms: C8_8  and  O9_9 
REMARK    3  A    between atoms: C10_11  and  O11_12 
REMARK    4  A    between atoms: C16_18  and  O17_19 
REMARK    5  A    between atoms: C19_22  and  O20_23 
ROOT
HETATM    1  O1          0      35.203  73.341 -36.235  1.00  0.00    -0.286 OA
HETATM    2  C2          0      35.006  74.434 -35.637  1.00  0.00     0.201 C 
HETATM    3  C3          0      36.033  75.191 -35.098  1.00  0.00     0.067 C 
HETATM    4  C4          0      35.780  76.338 -34.355  1.00  0.00     0.103 C 
HETATM    5  O13         0      34.527  76.719 -34.182  1.00  0.00    -0.307 OA
HETATM    6  C14         0      33.513  76.018 -34.640  1.00  0.00     0.107 C 
HETATM    7  C15         0      32.229  76.175 -34.139  1.00  0.00     0.049 C 
HETATM    8  C16         0      31.221  75.266 -34.439  1.00  0.00     0.093 C 
HETATM    9  C18         0      31.401  74.559 -35.621  1.00  0.00     0.048 C 
HETATM   10  C19         0      32.667  74.421 -36.175  1.00  0.00     0.096 C 
HETATM   11  C21         0      33.743  75.002 -35.562  1.00  0.00     0.084 C 
ENDROOT
BRANCH  10  12
HETATM   12  O20         0      32.907  73.386 -37.074  1.00  0.00    -0.359 OA
HETATM   13  H20         0      32.979  73.604 -37.995  1.00  0.00     0.218 HD
ENDBRANCH  10  12
BRANCH   4  14
HETATM   14  C5          0      36.778  76.722 -33.354  1.00  0.00     0.025 C 
HETATM   15  C6          0      37.910  75.964 -33.092  1.00  0.00     0.004 C 
HETATM   16  C7          0      39.095  76.644 -32.831  1.00  0.00     0.026 C 
HETATM   17  C8          0      39.128  78.028 -32.703  1.00  0.00     0.112 C 
HETATM   18  C10         0      37.916  78.607 -32.352  1.00  0.00     0.112 C 
HETATM   19  C12         0      36.744  77.947 -32.700  1.00  0.00     0.028 C 
BRANCH  17  20
HETATM   20  O9          0      40.237  78.751 -33.106  1.00  0.00    -0.357 OA
HETATM   21  H9          0      40.851  78.451 -33.766  1.00  0.00     0.218 HD
ENDBRANCH  17  20
BRANCH  18  22
HETATM   22  O11         0      37.934  79.956 -32.027  1.00  0.00    -0.357 OA
HETATM   23  H11         0      37.885  80.573 -32.748  1.00  0.00     0.218 HD
ENDBRANCH  18  22
ENDBRANCH   4  14
BRANCH   8  24
HETATM   24  O17         0      30.295  74.860 -33.472  1.00  0.00    -0.359 OA
HETATM   25  H17         0      30.513  74.212 -32.813  1.00  0.00     0.218 HD
ENDBRANCH   8  24
TORSDOF 5
ENDMDL
MODEL 3
REMARK VINA RESULT:      -5.9      1.950      3.034
REMARK  5 active torsions:
REMARK  status: ('A' for Active; 'I' for Inactive)
REMARK    1  A    between atoms: C4_4  and  C5_5 
REMARK    2  A    between atoms: C8_8  and  O9_9 
REMARK    3  A    between atoms: C10_11  and  O11_12 
REMARK    4  A    between atoms: C16_18  and  O17_19 
REMARK    5  A    between atoms: C19_22  and  O20_23 
ROOT
HETATM    1  O1          0      30.834  75.625 -33.209  1.00  0.00    -0.286 OA
HETATM    2  C2          0      31.694  75.464 -34.118  1.00  0.00     0.201 C 
HETATM    3  C3          0      31.484  74.645 -35.214  1.00  0.00     0.067 C 
HETATM    4  C4          0      32.486  74.405 -36.148  1.00  0.00     0.103 C 
HETATM    5  O13         0      33.657  74.994 -35.986  1.00  0.00    -0.307 OA
HETATM    6  C14         0      33.922  75.751 -34.944  1.00  0.00     0.107 C 
HETATM    7  C15         0      35.224  76.037 -34.560  1.00  0.00     0.049 C 
HETATM    8  C16         0      35.502  76.616 -33.327  1.00  0.00     0.093 C 
HETATM    9  C18         0      34.460  77.350 -32.775  1.00  0.00     0.048 C 
HETATM   10  C19         0      33.149  77.123 -33.171  1.00  0.00     0.096 C 
HETATM   11  C21         0      32.882  76.179 -34.125  1.00  0.00     0.084 C 
ENDROOT
BRANCH  10  12
HETATM   12  O20         0      32.107  77.521 -32.339  1.00  0.00    -0.359 OA
HETATM   13  H20         0      31.824  78.426 -32.383  1.00  0.00     0.218 HD
ENDBRANCH  10  12
BRANCH   4  14
HETATM   14  C5          0      32.428  73.140 -36.883  1.00  0.00     0.025 C 
HETATM   15  C6          0      33.545  72.554 -37.460  1.00  0.00     0.004 C 
HETATM   16  C7          0      33.649  71.168 -37.400  1.00  0.00     0.026 C 
HETATM   17  C8          0      32.616  70.380 -36.905  1.00  0.00     0.112 C 
HETATM   18  C10         0      31.361  70.970 -36.956  1.00  0.00     0.112 C 
HETATM   19  C12         0      31.282  72.357 -36.928  1.00  0.00     0.028 C 
BRANCH  17  20
HETATM   20  O9          0      32.885  69.202 -36.230  1.00  0.00    -0.357 OA
HETATM   21  H9          0      32.212  68.618 -35.899  1.00  0.00     0.218 HD
ENDBRANCH  17  20
BRANCH  18  22
HETATM   22  O11         0      30.274  70.163 -36.652  1.00  0.00    -0.357 OA
HETATM   23  H11         0      30.121  69.415 -37.219  1.00  0.00     0.218 HD
ENDBRANCH  18  22
ENDBRANCH   4  14
BRANCH   8  24
HETATM   24  O17         0      36.602  76.211 -32.563  1.00  0.00    -0.359 OA
HETATM   25  H17         0      37.486  76.483 -32.779  1.00  0.00     0.218 HD
ENDBRANCH   8  24
TORSDOF 5
ENDMDL
MODEL 4
REMARK VINA RESULT:      -5.7      2.188      6.415
REMARK  5 active torsions:
REMARK  status: ('A' for Active; 'I' for Inactive)
REMARK    1  A    between atoms: C4_4  and  C5_5 
REMARK    2  A    between atoms: C8_8  and  O9_9 
REMARK    3  A    between atoms: C10_11  and  O11_12 
REMARK    4  A    between atoms: C16_18  and  O17_19 
REMARK    5  A    between atoms: C19_22  and  O20_23 
ROOT
HETATM    1  O1          0      34.979  78.562 -32.670  1.00  0.00    -0.286 OA
HETATM    2  C2          0      35.226  77.475 -33.261  1.00  0.00     0.201 C 
HETATM    3  C3          0      36.511  77.068 -33.578  1.00  0.00     0.067 C 
HETATM    4  C4          0      36.748  75.917 -34.320  1.00  0.00     0.103 C 
HETATM    5  O13         0      35.716  75.189 -34.710  1.00  0.00    -0.307 OA
HETATM    6  C14         0      34.475  75.550 -34.468  1.00  0.00     0.107 C 
HETATM    7  C15         0      33.410  75.035 -35.193  1.00  0.00     0.049 C 
HETATM    8  C16         0      32.142  75.599 -35.112  1.00  0.00     0.093 C 
HETATM    9  C18         0      31.884  76.297 -33.939  1.00  0.00     0.048 C 
HETATM   10  C19         0      32.928  76.786 -33.165  1.00  0.00     0.096 C 
HETATM   11  C21         0      34.222  76.564 -33.551  1.00  0.00     0.084 C 
ENDROOT
BRANCH  10  12
HETATM   12  O20         0      32.683  77.822 -32.269  1.00  0.00    -0.359 OA
HETATM   13  H20         0      32.305  78.624 -32.609  1.00  0.00     0.218 HD
ENDBRANCH  10  12
BRANCH   4  14
HETATM   14  C5          0      37.982  75.870 -35.107  1.00  0.00     0.025 C 
HETATM   15  C6          0      38.839  76.954 -35.226  1.00  0.00     0.004 C 
HETATM   16  C7          0      40.206  76.696 -35.233  1.00  0.00     0.026 C 
HETATM   17  C8          0      40.704  75.398 -35.256  1.00  0.00     0.112 C 
HETATM   18  C10         0      39.827  74.450 -35.765  1.00  0.00     0.112 C 
HETATM   19  C12         0      38.462  74.694 -35.669  1.00  0.00     0.028 C 
BRANCH  17  20
HETATM   20  O9          0      41.892  75.083 -34.620  1.00  0.00    -0.357 OA
HETATM   21  H9          0      42.180  74.193 -34.450  1.00  0.00     0.218 HD
ENDBRANCH  17  20
BRANCH  18  22
HETATM   22  O11         0      40.335  73.178 -35.987  1.00  0.00    -0.357 OA
HETATM   23  H11         0      40.301  72.568 -35.258  1.00  0.00     0.218 HD
ENDBRANCH  18  22
ENDBRANCH   4  14
BRANCH   8  24
HETATM   24  O17         0      31.333  75.740 -36.245  1.00  0.00    -0.359 OA
HETATM   25  H17         0      30.392  75.849 -36.176  1.00  0.00     0.218 HD
ENDBRANCH   8  24
TORSDOF 5
ENDMDL
MODEL 5
REMARK VINA RESULT:      -5.6      1.327      2.703
REMARK  5 active torsions:
REMARK  status: ('A' for Active; 'I' for Inactive)
REMARK    1  A    between atoms: C4_4  and  C5_5 
REMARK    2  A    between atoms: C8_8  and  O9_9 
REMARK    3  A    between atoms: C10_11  and  O11_12 
REMARK    4  A    between atoms: C16_18  and  O17_19 
REMARK    5  A    between atoms: C19_22  and  O20_23 
ROOT
HETATM    1  O1          0      36.497  75.207 -36.630  1.00  0.00    -0.286 OA
HETATM    2  C2          0      35.739  75.176 -35.623  1.00  0.00     0.201 C 
HETATM    3  C3          0      34.574  74.428 -35.582  1.00  0.00     0.067 C 
HETATM    4  C4          0      33.704  74.492 -34.500  1.00  0.00     0.103 C 
HETATM    5  O13         0      34.015  75.274 -33.481  1.00  0.00    -0.307 OA
HETATM    6  C14         0      35.089  76.033 -33.485  1.00  0.00     0.107 C 
HETATM    7  C15         0      35.215  77.124 -32.637  1.00  0.00     0.049 C 
HETATM    8  C16         0      36.223  78.064 -32.816  1.00  0.00     0.093 C 
HETATM    9  C18         0      37.346  77.600 -33.489  1.00  0.00     0.048 C 
HETATM   10  C19         0      37.266  76.483 -34.309  1.00  0.00     0.096 C 
HETATM   11  C21         0      36.074  75.823 -34.443  1.00  0.00     0.084 C 
ENDROOT
BRANCH  10  12
HETATM   12  O20         0      38.233  76.288 -35.290  1.00  0.00    -0.359 OA
HETATM   13  H20         0      38.359  76.974 -35.934  1.00  0.00     0.218 HD
ENDBRANCH  10  12
BRANCH   4  14
HETATM   14  C5          0      32.294  74.196 -34.756  1.00  0.00     0.025 C 
HETATM   15  C6          0      31.376  75.168 -35.128  1.00  0.00     0.004 C 
HETATM   16  C7          0      30.413  74.819 -36.069  1.00  0.00     0.026 C 
HETATM   17  C8          0      30.279  73.513 -36.526  1.00  0.00     0.112 C 
HETATM   18  C10         0      30.778  72.544 -35.666  1.00  0.00     0.112 C 
HETATM   19  C12         0      31.800  72.898 -34.794  1.00  0.00     0.028 C 
BRANCH  17  20
HETATM   20  O9          0      29.875  73.254 -37.824  1.00  0.00    -0.357 OA
HETATM   21  H9          0      29.670  72.385 -38.149  1.00  0.00     0.218 HD
ENDBRANCH  17  20
BRANCH  18  22
HETATM   22  O11         0      30.503  71.221 -35.982  1.00  0.00    -0.357 OA
HETATM   23  H11         0      30.164  70.673 -35.284  1.00  0.00     0.218 HD
ENDBRANCH  18  22
ENDBRANCH   4  14
BRANCH   8  24
HETATM   24  O17         0      35.984  79.432 -32.640  1.00  0.00    -0.359 OA
HETATM   25  H17         0      36.635  80.007 -32.255  1.00  0.00     0.218 HD
ENDBRANCH   8  24
TORSDOF 5
ENDMDL
MODEL 6
REMARK VINA RESULT:      -5.6     15.092     17.522
REMARK  5 active torsions:
REMARK  status: ('A' for Active; 'I' for Inactive)
REMARK    1  A    between atoms: C4_4  and  C5_5 
REMARK    2  A    between atoms: C8_8  and  O9_9 
REMARK    3  A    between atoms: C10_11  and  O11_12 
REMARK    4  A    between atoms: C16_18  and  O17_19 
REMARK    5  A    between atoms: C19_22  and  O20_23 
ROOT
HETATM    1  O1          0      45.105  67.462 -20.776  1.00  0.00    -0.286 OA
HETATM    2  C2          0      44.511  67.673 -21.869  1.00  0.00     0.201 C 
HETATM    3  C3          0      45.159  68.149 -22.996  1.00  0.00     0.067 C 
HETATM    4  C4          0      44.463  68.470 -24.156  1.00  0.00     0.103 C 
HETATM    5  O13         0      43.154  68.293 -24.180  1.00  0.00    -0.307 OA
HETATM    6  C14         0      42.485  67.879 -23.127  1.00  0.00     0.107 C 
HETATM    7  C15         0      41.116  68.069 -23.009  1.00  0.00     0.049 C 
HETATM    8  C16         0      40.460  67.865 -21.801  1.00  0.00     0.093 C 
HETATM    9  C18         0      41.096  66.991 -20.928  1.00  0.00     0.048 C 
HETATM   10  C19         0      42.456  66.742 -21.046  1.00  0.00     0.096 C 
HETATM   11  C21         0      43.174  67.348 -22.041  1.00  0.00     0.084 C 
ENDROOT
BRANCH  10  12
HETATM   12  O20         0      43.154  66.240 -19.952  1.00  0.00    -0.359 OA
HETATM   13  H20         0      43.892  66.742 -19.627  1.00  0.00     0.218 HD
ENDBRANCH  10  12
BRANCH   4  14
HETATM   14  C5          0      45.054  69.482 -25.033  1.00  0.00     0.025 C 
HETATM   15  C6          0      44.449  69.904 -26.208  1.00  0.00     0.004 C 
HETATM   16  C7          0      44.540  71.254 -26.531  1.00  0.00     0.026 C 
HETATM   17  C8          0      45.318  72.132 -25.784  1.00  0.00     0.112 C 
HETATM   18  C10         0      46.341  71.531 -25.063  1.00  0.00     0.112 C 
HETATM   19  C12         0      46.187  70.204 -24.680  1.00  0.00     0.028 C 
BRANCH  17  20
HETATM   20  O9          0      44.942  73.455 -25.627  1.00  0.00    -0.357 OA
HETATM   21  H9          0      44.761  74.041 -26.352  1.00  0.00     0.218 HD
ENDBRANCH  17  20
BRANCH  18  22
HETATM   22  O11         0      47.260  72.373 -24.454  1.00  0.00    -0.357 OA
HETATM   23  H11         0      47.233  72.425 -23.505  1.00  0.00     0.218 HD
ENDBRANCH  18  22
ENDBRANCH   4  14
BRANCH   8  24
HETATM   24  O17         0      39.439  68.721 -21.371  1.00  0.00    -0.359 OA
HETATM   25  H17         0      39.627  69.520 -20.892  1.00  0.00     0.218 HD
ENDBRANCH   8  24
TORSDOF 5
ENDMDL
MODEL 7
REMARK VINA RESULT:      -5.5     13.613     15.781
REMARK  5 active torsions:
REMARK  status: ('A' for Active; 'I' for Inactive)
REMARK    1  A    between atoms: C4_4  and  C5_5 
REMARK    2  A    between atoms: C8_8  and  O9_9 
REMARK    3  A    between atoms: C10_11  and  O11_12 
REMARK    4  A    between atoms: C16_18  and  O17_19 
REMARK    5  A    between atoms: C19_22  and  O20_23 
ROOT
HETATM    1  O1          0      45.777  68.337 -28.611  1.00  0.00    -0.286 OA
HETATM    2  C2          0      45.554  68.895 -27.501  1.00  0.00     0.201 C 
HETATM    3  C3          0      45.234  68.185 -26.356  1.00  0.00     0.067 C 
HETATM    4  C4          0      44.893  68.829 -25.172  1.00  0.00     0.103 C 
HETATM    5  O13         0      44.897  70.150 -25.144  1.00  0.00    -0.307 OA
HETATM    6  C14         0      45.156  70.872 -26.212  1.00  0.00     0.107 C 
HETATM    7  C15         0      44.781  72.204 -26.304  1.00  0.00     0.049 C 
HETATM    8  C16         0      44.825  72.885 -27.514  1.00  0.00     0.093 C 
HETATM    9  C18         0      45.723  72.373 -28.443  1.00  0.00     0.048 C 
HETATM   10  C19         0      46.156  71.057 -28.354  1.00  0.00     0.096 C 
HETATM   11  C21         0      45.709  70.262 -27.334  1.00  0.00     0.084 C 
ENDROOT
BRANCH  10  12
HETATM   12  O20         0      46.680  70.435 -29.483  1.00  0.00    -0.359 OA
HETATM   13  H20         0      47.610  70.530 -29.653  1.00  0.00     0.218 HD
ENDBRANCH  10  12
BRANCH   4  14
HETATM   14  C5          0      44.021  68.107 -24.245  1.00  0.00     0.025 C 
HETATM   15  C6          0      44.489  67.504 -23.086  1.00  0.00     0.004 C 
HETATM   16  C7          0      43.685  67.572 -21.953  1.00  0.00     0.026 C 
HETATM   17  C8          0      42.400  68.102 -22.002  1.00  0.00     0.112 C 
HETATM   18  C10         0      41.811  68.081 -23.259  1.00  0.00     0.112 C 
HETATM   19  C12         0      42.638  68.099 -24.376  1.00  0.00     0.028 C 
BRANCH  17  20
HETATM   20  O9          0      41.871  68.779 -20.917  1.00  0.00    -0.357 OA
HETATM   21  H9          0      41.107  69.342 -20.968  1.00  0.00     0.218 HD
ENDBRANCH  17  20
BRANCH  18  22
HETATM   22  O11         0      40.468  68.421 -23.330  1.00  0.00    -0.357 OA
HETATM   23  H11         0      40.169  69.115 -22.754  1.00  0.00     0.218 HD
ENDBRANCH  18  22
ENDBRANCH   4  14
BRANCH   8  24
HETATM   24  O17         0      43.818  73.784 -27.882  1.00  0.00    -0.359 OA
HETATM   25  H17         0      43.224  73.601 -28.600  1.00  0.00     0.218 HD
ENDBRANCH   8  24
TORSDOF 5
ENDMDL
MODEL 8
REMARK VINA RESULT:      -5.4      1.614      6.437
REMARK  5 active torsions:
REMARK  status: ('A' for Active; 'I' for Inactive)
REMARK    1  A    between atoms: C4_4  and  C5_5 
REMARK    2  A    between atoms: C8_8  and  O9_9 
REMARK    3  A    between atoms: C10_11  and  O11_12 
REMARK    4  A    between atoms: C16_18  and  O17_19 
REMARK    5  A    between atoms: C19_22  and  O20_23 
ROOT
HETATM    1  O1          0      31.602  76.177 -38.023  1.00  0.00    -0.286 OA
HETATM    2  C2          0      31.838  75.914 -36.812  1.00  0.00     0.201 C 
HETATM    3  C3          0      32.518  76.781 -35.974  1.00  0.00     0.067 C 
HETATM    4  C4          0      32.856  76.423 -34.674  1.00  0.00     0.103 C 
HETATM    5  O13         0      32.496  75.232 -34.230  1.00  0.00    -0.307 OA
HETATM    6  C14         0      31.881  74.357 -34.995  1.00  0.00     0.107 C 
HETATM    7  C15         0      31.859  73.004 -34.687  1.00  0.00     0.049 C 
HETATM    8  C16         0      31.438  72.059 -35.614  1.00  0.00     0.093 C 
HETATM    9  C18         0      30.577  72.541 -36.593  1.00  0.00     0.048 C 
HETATM   10  C19         0      30.540  73.896 -36.895  1.00  0.00     0.096 C 
HETATM   11  C21         0      31.344  74.766 -36.211  1.00  0.00     0.084 C 
ENDROOT
BRANCH  10  12
HETATM   12  O20         0      30.032  74.305 -38.124  1.00  0.00    -0.359 OA
HETATM   13  H20         0      29.202  73.941 -38.407  1.00  0.00     0.218 HD
ENDBRANCH  10  12
BRANCH   4  14
HETATM   14  C5          0      34.029  77.070 -34.084  1.00  0.00     0.025 C 
HETATM   15  C6          0      34.166  77.278 -32.719  1.00  0.00     0.004 C 
HETATM   16  C7          0      35.432  77.112 -32.166  1.00  0.00     0.026 C 
HETATM   17  C8          0      36.550  76.879 -32.960  1.00  0.00     0.112 C 
HETATM   18  C10         0      36.429  77.312 -34.274  1.00  0.00     0.112 C 
HETATM   19  C12         0      35.157  77.388 -34.829  1.00  0.00     0.028 C 
BRANCH  17  20
HETATM   20  O9          0      37.591  76.090 -32.504  1.00  0.00    -0.357 OA
HETATM   21  H9          0      37.941  76.135 -31.622  1.00  0.00     0.218 HD
ENDBRANCH  17  20
BRANCH  18  22
HETATM   22  O11         0      37.575  77.277 -35.055  1.00  0.00    -0.357 OA
HETATM   23  H11         0      38.352  76.898 -34.662  1.00  0.00     0.218 HD
ENDBRANCH  18  22
ENDBRANCH   4  14
BRANCH   8  24
HETATM   24  O17         0      32.088  70.827 -35.747  1.00  0.00    -0.359 OA
HETATM   25  H17         0      32.362  70.323 -34.990  1.00  0.00     0.218 HD
ENDBRANCH   8  24
TORSDOF 5
ENDMDL
MODEL 9
REMARK VINA RESULT:      -5.4      1.568      3.214
REMARK  5 active torsions:
REMARK  status: ('A' for Active; 'I' for Inactive)
REMARK    1  A    between atoms: C4_4  and  C5_5 
REMARK    2  A    between atoms: C8_8  and  O9_9 
REMARK    3  A    between atoms: C10_11  and  O11_12 
REMARK    4  A    between atoms: C16_18  and  O17_19 
REMARK    5  A    between atoms: C19_22  and  O20_23 
ROOT
HETATM    1  O1          0      38.021  75.280 -35.955  1.00  0.00    -0.286 OA
HETATM    2  C2          0      36.961  75.281 -35.271  1.00  0.00     0.201 C 
HETATM    3  C3          0      35.860  74.505 -35.592  1.00  0.00     0.067 C 
HETATM    4  C4          0      34.669  74.602 -34.882  1.00  0.00     0.103 C 
HETATM    5  O13         0      34.603  75.442 -33.864  1.00  0.00    -0.307 OA
HETATM    6  C14         0      35.606  76.228 -33.541  1.00  0.00     0.107 C 
HETATM    7  C15         0      35.425  77.364 -32.764  1.00  0.00     0.049 C 
HETATM    8  C16         0      36.425  78.320 -32.639  1.00  0.00     0.093 C 
HETATM    9  C18         0      37.715  77.851 -32.855  1.00  0.00     0.048 C 
HETATM   10  C19         0      37.931  76.692 -33.588  1.00  0.00     0.096 C 
HETATM   11  C21         0      36.864  75.996 -34.087  1.00  0.00     0.084 C 
ENDROOT
BRANCH  10  12
HETATM   12  O20         0      39.179  76.473 -34.163  1.00  0.00    -0.359 OA
HETATM   13  H20         0      39.394  76.950 -34.955  1.00  0.00     0.218 HD
ENDBRANCH  10  12
BRANCH   4  14
HETATM   14  C5          0      33.436  74.256 -35.591  1.00  0.00     0.025 C 
HETATM   15  C6          0      33.393  73.312 -36.607  1.00  0.00     0.004 C 
HETATM   16  C7          0      32.279  72.481 -36.667  1.00  0.00     0.026 C 
HETATM   17  C8          0      31.183  72.667 -35.831  1.00  0.00     0.112 C 
HETATM   18  C10         0      31.050  73.955 -35.329  1.00  0.00     0.112 C 
HETATM   19  C12         0      32.193  74.735 -35.200  1.00  0.00     0.028 C 
BRANCH  17  20
HETATM   20  O9          0      30.437  71.589 -35.389  1.00  0.00    -0.357 OA
HETATM   21  H9          0      30.175  71.464 -34.485  1.00  0.00     0.218 HD
ENDBRANCH  17  20
BRANCH  18  22
HETATM   22  O11         0      29.877  74.244 -34.646  1.00  0.00    -0.357 OA
HETATM   23  H11         0      29.066  74.178 -35.137  1.00  0.00     0.218 HD
ENDBRANCH  18  22
ENDBRANCH   4  14
BRANCH   8  24
HETATM   24  O17         0      36.130  79.688 -32.634  1.00  0.00    -0.359 OA
HETATM   25  H17         0      35.280  80.016 -32.902  1.00  0.00     0.218 HD
ENDBRANCH   8  24
TORSDOF 5
ENDMDL
