MODEL 1
REMARK VINA RESULT:      -4.7      0.000      0.000
REMARK  5 active torsions:
REMARK  status: ('A' for Active; 'I' for Inactive)
REMARK    1  A    between atoms: C4_4  and  C5_5 
REMARK    2  A    between atoms: C8_8  and  O9_9 
REMARK    3  A    between atoms: C10_11  and  O11_12 
REMARK    4  A    between atoms: C16_18  and  O17_19 
REMARK    5  A    between atoms: C19_22  and  O20_23 
ROOT
HETATM    1  O1          0      44.506 109.030  16.204  1.00  0.00    -0.286 OA
HETATM    2  C2          0      43.550 108.248  16.458  1.00  0.00     0.201 C 
HETATM    3  C3          0      43.587 106.896  16.161  1.00  0.00     0.067 C 
HETATM    4  C4          0      42.481 106.076  16.357  1.00  0.00     0.103 C 
HETATM    5  O13         0      41.379 106.606  16.857  1.00  0.00    -0.307 OA
HETATM    6  C14         0      41.278 107.891  17.121  1.00  0.00     0.107 C 
HETATM    7  C15         0      40.046 108.515  17.256  1.00  0.00     0.049 C 
HETATM    8  C16         0      39.937 109.900  17.279  1.00  0.00     0.093 C 
HETATM    9  C18         0      41.082 110.572  17.691  1.00  0.00     0.048 C 
HETATM   10  C19         0      42.326 109.960  17.613  1.00  0.00     0.096 C 
HETATM   11  C21         0      42.424 108.679  17.143  1.00  0.00     0.084 C 
ENDROOT
BRANCH  10  12
HETATM   12  O20         0      43.472 110.748  17.603  1.00  0.00    -0.359 OA
HETATM   13  H20         0      44.199 110.484  18.154  1.00  0.00     0.218 HD
ENDBRANCH  10  12
BRANCH   4  14
HETATM   14  C5          0      42.369 104.888  15.509  1.00  0.00     0.025 C 
HETATM   15  C6          0      41.690 103.744  15.903  1.00  0.00     0.004 C 
HETATM   16  C7          0      40.951 103.069  14.937  1.00  0.00     0.026 C 
HETATM   17  C8          0      40.992 103.438  13.597  1.00  0.00     0.112 C 
HETATM   18  C10         0      42.133 104.135  13.222  1.00  0.00     0.112 C 
HETATM   19  C12         0      42.805 104.871  14.190  1.00  0.00     0.028 C 
BRANCH  17  20
HETATM   20  O9          0      39.878 103.295  12.788  1.00  0.00    -0.357 OA
HETATM   21  H9          0      39.015 103.068  13.114  1.00  0.00     0.218 HD
ENDBRANCH  17  20
BRANCH  18  22
HETATM   22  O11         0      42.313 104.361  11.865  1.00  0.00    -0.357 OA
HETATM   23  H11         0      42.916 103.786  11.409  1.00  0.00     0.218 HD
ENDBRANCH  18  22
ENDBRANCH   4  14
BRANCH   8  24
HETATM   24  O17         0      38.892 110.560  16.624  1.00  0.00    -0.359 OA
HETATM   25  H17         0      39.055 111.268  16.012  1.00  0.00     0.218 HD
ENDBRANCH   8  24
TORSDOF 5
ENDMDL
MODEL 2
REMARK VINA RESULT:      -4.7      5.131      9.666
REMARK  5 active torsions:
REMARK  status: ('A' for Active; 'I' for Inactive)
REMARK    1  A    between atoms: C4_4  and  C5_5 
REMARK    2  A    between atoms: C8_8  and  O9_9 
REMARK    3  A    between atoms: C10_11  and  O11_12 
REMARK    4  A    between atoms: C16_18  and  O17_19 
REMARK    5  A    between atoms: C19_22  and  O20_23 
ROOT
HETATM    1  O1          0      36.425 112.272  20.291  1.00  0.00    -0.286 OA
HETATM    2  C2          0      37.553 112.577  19.816  1.00  0.00     0.201 C 
HETATM    3  C3          0      38.000 113.884  19.723  1.00  0.00     0.067 C 
HETATM    4  C4          0      39.203 114.200  19.102  1.00  0.00     0.103 C 
HETATM    5  O13         0      39.940 113.220  18.610  1.00  0.00    -0.307 OA
HETATM    6  C14         0      39.546 111.966  18.639  1.00  0.00     0.107 C 
HETATM    7  C15         0      40.093 111.008  17.798  1.00  0.00     0.049 C 
HETATM    8  C16         0      39.506 109.757  17.650  1.00  0.00     0.093 C 
HETATM    9  C18         0      38.725 109.345  18.723  1.00  0.00     0.048 C 
HETATM   10  C19         0      38.200 110.274  19.612  1.00  0.00     0.096 C 
HETATM   11  C21         0      38.467 111.605  19.439  1.00  0.00     0.084 C 
ENDROOT
BRANCH  10  12
HETATM   12  O20         0      37.101 109.925  20.390  1.00  0.00    -0.359 OA
HETATM   13  H20         0      37.248 109.362  21.141  1.00  0.00     0.218 HD
ENDBRANCH  10  12
BRANCH   4  14
HETATM   14  C5          0      39.322 115.536  18.514  1.00  0.00     0.025 C 
HETATM   15  C6          0      40.163 116.512  19.029  1.00  0.00     0.004 C 
HETATM   16  C7          0      40.832 117.329  18.123  1.00  0.00     0.026 C 
HETATM   17  C8          0      40.574 117.269  16.758  1.00  0.00     0.112 C 
HETATM   18  C10         0      39.327 116.758  16.426  1.00  0.00     0.112 C 
HETATM   19  C12         0      38.718 115.876  17.310  1.00  0.00     0.028 C 
BRANCH  17  20
HETATM   20  O9          0      41.578 117.507  15.836  1.00  0.00    -0.357 OA
HETATM   21  H9          0      41.418 117.796  14.945  1.00  0.00     0.218 HD
ENDBRANCH  17  20
BRANCH  18  22
HETATM   22  O11         0      38.944 116.851  15.095  1.00  0.00    -0.357 OA
HETATM   23  H11         0      38.032 117.054  14.924  1.00  0.00     0.218 HD
ENDBRANCH  18  22
ENDBRANCH   4  14
BRANCH   8  24
HETATM   24  O17         0      39.431 109.130  16.402  1.00  0.00    -0.359 OA
HETATM   25  H17         0      38.841 109.436  15.724  1.00  0.00     0.218 HD
ENDBRANCH   8  24
TORSDOF 5
ENDMDL
MODEL 3
REMARK VINA RESULT:      -4.6      4.649      7.287
REMARK  5 active torsions:
REMARK  status: ('A' for Active; 'I' for Inactive)
REMARK    1  A    between atoms: C4_4  and  C5_5 
REMARK    2  A    between atoms: C8_8  and  O9_9 
REMARK    3  A    between atoms: C10_11  and  O11_12 
REMARK    4  A    between atoms: C16_18  and  O17_19 
REMARK    5  A    between atoms: C19_22  and  O20_23 
ROOT
HETATM    1  O1          0      41.910 105.051  14.476  1.00  0.00    -0.286 OA
HETATM    2  C2          0      42.299 104.164  13.667  1.00  0.00     0.201 C 
HETATM    3  C3          0      43.511 104.236  13.002  1.00  0.00     0.067 C 
HETATM    4  C4          0      43.871 103.299  12.040  1.00  0.00     0.103 C 
HETATM    5  O13         0      43.037 102.308  11.776  1.00  0.00    -0.307 OA
HETATM    6  C14         0      41.859 102.214  12.352  1.00  0.00     0.107 C 
HETATM    7  C15         0      40.841 101.441  11.812  1.00  0.00     0.049 C 
HETATM    8  C16         0      39.534 101.544  12.274  1.00  0.00     0.093 C 
HETATM    9  C18         0      39.407 102.010  13.577  1.00  0.00     0.048 C 
HETATM   10  C19         0      40.427 102.747  14.165  1.00  0.00     0.096 C 
HETATM   11  C21         0      41.573 103.001  13.462  1.00  0.00     0.084 C 
ENDROOT
BRANCH  10  12
HETATM   12  O20         0      40.136 103.560  15.256  1.00  0.00    -0.359 OA
HETATM   13  H20         0      39.747 103.155  16.022  1.00  0.00     0.218 HD
ENDBRANCH  10  12
BRANCH   4  14
HETATM   14  C5          0      44.801 103.733  10.996  1.00  0.00     0.025 C 
HETATM   15  C6          0      44.706 104.967  10.369  1.00  0.00     0.004 C 
HETATM   16  C7          0      45.890 105.632  10.070  1.00  0.00     0.026 C 
HETATM   17  C8          0      47.131 105.034  10.264  1.00  0.00     0.112 C 
HETATM   18  C10         0      47.110 103.646  10.278  1.00  0.00     0.112 C 
HETATM   19  C12         0      45.937 103.007  10.663  1.00  0.00     0.028 C 
BRANCH  17  20
HETATM   20  O9          0      48.233 105.789  10.623  1.00  0.00    -0.357 OA
HETATM   21  H9          0      48.988 105.437  11.081  1.00  0.00     0.218 HD
ENDBRANCH  17  20
BRANCH  18  22
HETATM   22  O11         0      48.338 102.999  10.278  1.00  0.00    -0.357 OA
HETATM   23  H11         0      48.616 102.606  11.097  1.00  0.00     0.218 HD
ENDBRANCH  18  22
ENDBRANCH   4  14
BRANCH   8  24
HETATM   24  O17         0      38.445 101.509  11.396  1.00  0.00    -0.359 OA
HETATM   25  H17         0      37.904 100.733  11.302  1.00  0.00     0.218 HD
ENDBRANCH   8  24
TORSDOF 5
ENDMDL
MODEL 4
REMARK VINA RESULT:      -4.5      3.540      5.827
REMARK  5 active torsions:
REMARK  status: ('A' for Active; 'I' for Inactive)
REMARK    1  A    between atoms: C4_4  and  C5_5 
REMARK    2  A    between atoms: C8_8  and  O9_9 
REMARK    3  A    between atoms: C10_11  and  O11_12 
REMARK    4  A    between atoms: C16_18  and  O17_19 
REMARK    5  A    between atoms: C19_22  and  O20_23 
ROOT
HETATM    1  O1          0      45.304 107.914  13.070  1.00  0.00    -0.286 OA
HETATM    2  C2          0      44.935 108.852  13.829  1.00  0.00     0.201 C 
HETATM    3  C3          0      44.525 108.644  15.135  1.00  0.00     0.067 C 
HETATM    4  C4          0      44.027 109.680  15.916  1.00  0.00     0.103 C 
HETATM    5  O13         0      43.966 110.894  15.397  1.00  0.00    -0.307 OA
HETATM    6  C14         0      44.307 111.139  14.151  1.00  0.00     0.107 C 
HETATM    7  C15         0      43.882 112.281  13.488  1.00  0.00     0.049 C 
HETATM    8  C16         0      44.027 112.413  12.112  1.00  0.00     0.093 C 
HETATM    9  C18         0      45.044 111.649  11.553  1.00  0.00     0.048 C 
HETATM   10  C19         0      45.526 110.526  12.212  1.00  0.00     0.096 C 
HETATM   11  C21         0      45.007 110.178  13.430  1.00  0.00     0.084 C 
ENDROOT
BRANCH  10  12
HETATM   12  O20         0      46.199 109.548  11.486  1.00  0.00    -0.359 OA
HETATM   13  H20         0      45.708 109.060  10.835  1.00  0.00     0.218 HD
ENDBRANCH  10  12
BRANCH   4  14
HETATM   14  C5          0      43.093 109.324  16.986  1.00  0.00     0.025 C 
HETATM   15  C6          0      42.309 110.261  17.643  1.00  0.00     0.004 C 
HETATM   16  C7          0      41.010 109.893  17.979  1.00  0.00     0.026 C 
HETATM   17  C8          0      40.547 108.595  17.789  1.00  0.00     0.112 C 
HETATM   18  C10         0      41.541 107.627  17.739  1.00  0.00     0.112 C 
HETATM   19  C12         0      42.810 108.005  17.318  1.00  0.00     0.028 C 
BRANCH  17  20
HETATM   20  O9          0      39.223 108.354  17.468  1.00  0.00    -0.357 OA
HETATM   21  H9          0      38.838 108.561  16.624  1.00  0.00     0.218 HD
ENDBRANCH  17  20
BRANCH  18  22
HETATM   22  O11         0      41.128 106.302  17.742  1.00  0.00    -0.357 OA
HETATM   23  H11         0      40.459 106.061  18.372  1.00  0.00     0.218 HD
ENDBRANCH  18  22
ENDBRANCH   4  14
BRANCH   8  24
HETATM   24  O17         0      43.026 112.994  11.326  1.00  0.00    -0.359 OA
HETATM   25  H17         0      42.766 112.620  10.493  1.00  0.00     0.218 HD
ENDBRANCH   8  24
TORSDOF 5
ENDMDL
MODEL 5
REMARK VINA RESULT:      -4.5      4.327      6.212
REMARK  5 active torsions:
REMARK  status: ('A' for Active; 'I' for Inactive)
REMARK    1  A    between atoms: C4_4  and  C5_5 
REMARK    2  A    between atoms: C8_8  and  O9_9 
REMARK    3  A    between atoms: C10_11  and  O11_12 
REMARK    4  A    between atoms: C16_18  and  O17_19 
REMARK    5  A    between atoms: C19_22  and  O20_23 
ROOT
HETATM    1  O1          0      44.444 105.609  15.061  1.00  0.00    -0.286 OA
HETATM    2  C2          0      43.947 105.146  13.998  1.00  0.00     0.201 C 
HETATM    3  C3          0      42.733 104.483  13.964  1.00  0.00     0.067 C 
HETATM    4  C4          0      42.257 103.893  12.798  1.00  0.00     0.103 C 
HETATM    5  O13         0      42.980 103.990  11.696  1.00  0.00    -0.307 OA
HETATM    6  C14         0      44.157 104.577  11.683  1.00  0.00     0.107 C 
HETATM    7  C15         0      45.079 104.342  10.673  1.00  0.00     0.049 C 
HETATM    8  C16         0      46.401 104.755  10.791  1.00  0.00     0.093 C 
HETATM    9  C18         0      46.606 105.824  11.656  1.00  0.00     0.048 C 
HETATM   10  C19         0      45.680 106.116  12.648  1.00  0.00     0.096 C 
HETATM   11  C21         0      44.548 105.356  12.766  1.00  0.00     0.084 C 
ENDROOT
BRANCH  10  12
HETATM   12  O20         0      46.078 106.869  13.749  1.00  0.00    -0.359 OA
HETATM   13  H20         0      45.819 106.568  14.611  1.00  0.00     0.218 HD
ENDBRANCH  10  12
BRANCH   4  14
HETATM   14  C5          0      41.349 102.754  12.946  1.00  0.00     0.025 C 
HETATM   15  C6          0      40.221 102.792  13.753  1.00  0.00     0.004 C 
HETATM   16  C7          0      39.077 102.148  13.292  1.00  0.00     0.026 C 
HETATM   17  C8          0      39.090 101.379  12.133  1.00  0.00     0.112 C 
HETATM   18  C10         0      40.340 100.894  11.773  1.00  0.00     0.112 C 
HETATM   19  C12         0      41.465 101.604  12.175  1.00  0.00     0.028 C 
BRANCH  17  20
HETATM   20  O9          0      37.973 101.303  11.320  1.00  0.00    -0.357 OA
HETATM   21  H9          0      37.329 101.998  11.242  1.00  0.00     0.218 HD
ENDBRANCH  17  20
BRANCH  18  22
HETATM   22  O11         0      40.381  99.970  10.739  1.00  0.00    -0.357 OA
HETATM   23  H11         0      40.815 100.241   9.937  1.00  0.00     0.218 HD
ENDBRANCH  18  22
ENDBRANCH   4  14
BRANCH   8  24
HETATM   24  O17         0      47.458 103.953  10.348  1.00  0.00    -0.359 OA
HETATM   25  H17         0      47.656 103.853   9.425  1.00  0.00     0.218 HD
ENDBRANCH   8  24
TORSDOF 5
ENDMDL
MODEL 6
REMARK VINA RESULT:      -4.2      4.294      7.042
REMARK  5 active torsions:
REMARK  status: ('A' for Active; 'I' for Inactive)
REMARK    1  A    between atoms: C4_4  and  C5_5 
REMARK    2  A    between atoms: C8_8  and  O9_9 
REMARK    3  A    between atoms: C10_11  and  O11_12 
REMARK    4  A    between atoms: C16_18  and  O17_19 
REMARK    5  A    between atoms: C19_22  and  O20_23 
ROOT
HETATM    1  O1          0      43.738 115.034  17.002  1.00  0.00    -0.286 OA
HETATM    2  C2          0      42.610 114.683  17.446  1.00  0.00     0.201 C 
HETATM    3  C3          0      42.396 113.468  18.075  1.00  0.00     0.067 C 
HETATM    4  C4          0      41.124 113.062  18.462  1.00  0.00     0.103 C 
HETATM    5  O13         0      40.104 113.872  18.238  1.00  0.00    -0.307 OA
HETATM    6  C14         0      40.246 115.019  17.612  1.00  0.00     0.107 C 
HETATM    7  C15         0      39.170 115.671  17.027  1.00  0.00     0.049 C 
HETATM    8  C16         0      39.360 116.738  16.156  1.00  0.00     0.093 C 
HETATM    9  C18         0      40.555 117.426  16.323  1.00  0.00     0.048 C 
HETATM   10  C19         0      41.638 116.820  16.946  1.00  0.00     0.096 C 
HETATM   11  C21         0      41.521 115.540  17.416  1.00  0.00     0.084 C 
ENDROOT
BRANCH  10  12
HETATM   12  O20         0      42.917 117.320  16.726  1.00  0.00    -0.359 OA
HETATM   13  H20         0      43.398 116.997  15.973  1.00  0.00     0.218 HD
ENDBRANCH  10  12
BRANCH   4  14
HETATM   14  C5          0      40.876 111.622  18.542  1.00  0.00     0.025 C 
HETATM   15  C6          0      39.675 111.089  18.988  1.00  0.00     0.004 C 
HETATM   16  C7          0      39.195 109.954  18.344  1.00  0.00     0.026 C 
HETATM   17  C8          0      39.945 109.290  17.380  1.00  0.00     0.112 C 
HETATM   18  C10         0      41.315 109.500  17.465  1.00  0.00     0.112 C 
HETATM   19  C12         0      41.767 110.684  18.037  1.00  0.00     0.028 C 
BRANCH  17  20
HETATM   20  O9          0      39.331 108.656  16.314  1.00  0.00    -0.357 OA
HETATM   21  H9          0      38.388 108.591  16.211  1.00  0.00     0.218 HD
ENDBRANCH  17  20
BRANCH  18  22
HETATM   22  O11         0      42.123 108.718  16.652  1.00  0.00    -0.357 OA
HETATM   23  H11         0      41.687 108.089  16.089  1.00  0.00     0.218 HD
ENDBRANCH  18  22
ENDBRANCH   4  14
BRANCH   8  24
HETATM   24  O17         0      38.579 116.887  15.005  1.00  0.00    -0.359 OA
HETATM   25  H17         0      38.344 117.743  14.668  1.00  0.00     0.218 HD
ENDBRANCH   8  24
TORSDOF 5
ENDMDL
MODEL 7
REMARK VINA RESULT:      -4.1      2.181      7.308
REMARK  5 active torsions:
REMARK  status: ('A' for Active; 'I' for Inactive)
REMARK    1  A    between atoms: C4_4  and  C5_5 
REMARK    2  A    between atoms: C8_8  and  O9_9 
REMARK    3  A    between atoms: C10_11  and  O11_12 
REMARK    4  A    between atoms: C16_18  and  O17_19 
REMARK    5  A    between atoms: C19_22  and  O20_23 
ROOT
HETATM    1  O1          0      44.261 102.013  11.989  1.00  0.00    -0.286 OA
HETATM    2  C2          0      43.326 102.723  12.450  1.00  0.00     0.201 C 
HETATM    3  C3          0      43.535 103.975  13.002  1.00  0.00     0.067 C 
HETATM    4  C4          0      42.502 104.692  13.595  1.00  0.00     0.103 C 
HETATM    5  O13         0      41.290 104.166  13.608  1.00  0.00    -0.307 OA
HETATM    6  C14         0      41.044 102.966  13.131  1.00  0.00     0.107 C 
HETATM    7  C15         0      39.907 102.256  13.489  1.00  0.00     0.049 C 
HETATM    8  C16         0      39.776 100.905  13.191  1.00  0.00     0.093 C 
HETATM    9  C18         0      40.532 100.466  12.110  1.00  0.00     0.048 C 
HETATM   10  C19         0      41.650 101.178  11.696  1.00  0.00     0.096 C 
HETATM   11  C21         0      42.000 102.331  12.345  1.00  0.00     0.084 C 
ENDROOT
BRANCH  10  12
HETATM   12  O20         0      42.623 100.536  10.937  1.00  0.00    -0.359 OA
HETATM   13  H20         0      43.496 100.464  11.301  1.00  0.00     0.218 HD
ENDBRANCH  10  12
BRANCH   4  14
HETATM   14  C5          0      42.866 105.651  14.640  1.00  0.00     0.025 C 
HETATM   15  C6          0      44.169 106.078  14.848  1.00  0.00     0.004 C 
HETATM   16  C7          0      44.363 107.414  15.187  1.00  0.00     0.026 C 
HETATM   17  C8          0      43.293 108.264  15.442  1.00  0.00     0.112 C 
HETATM   18  C10         0      42.123 107.624  15.827  1.00  0.00     0.112 C 
HETATM   19  C12         0      41.915 106.317  15.403  1.00  0.00     0.028 C 
BRANCH  17  20
HETATM   20  O9          0      43.364 109.608  15.122  1.00  0.00    -0.357 OA
HETATM   21  H9          0      44.176 110.101  15.088  1.00  0.00     0.218 HD
ENDBRANCH  17  20
BRANCH  18  22
HETATM   22  O11         0      41.084 108.428  16.274  1.00  0.00    -0.357 OA
HETATM   23  H11         0      40.956 109.255  15.823  1.00  0.00     0.218 HD
ENDBRANCH  18  22
ENDBRANCH   4  14
BRANCH   8  24
HETATM   24  O17         0      39.206 100.009  14.102  1.00  0.00    -0.359 OA
HETATM   25  H17         0      39.730  99.366  14.563  1.00  0.00     0.218 HD
ENDBRANCH   8  24
TORSDOF 5
ENDMDL
MODEL 8
REMARK VINA RESULT:      -4.1      4.258      9.059
REMARK  5 active torsions:
REMARK  status: ('A' for Active; 'I' for Inactive)
REMARK    1  A    between atoms: C4_4  and  C5_5 
REMARK    2  A    between atoms: C8_8  and  O9_9 
REMARK    3  A    between atoms: C10_11  and  O11_12 
REMARK    4  A    between atoms: C16_18  and  O17_19 
REMARK    5  A    between atoms: C19_22  and  O20_23 
ROOT
HETATM    1  O1          0      38.908 110.472  18.150  1.00  0.00    -0.286 OA
HETATM    2  C2          0      39.812 111.351  18.127  1.00  0.00     0.201 C 
HETATM    3  C3          0      39.570 112.684  18.414  1.00  0.00     0.067 C 
HETATM    4  C4          0      40.561 113.650  18.281  1.00  0.00     0.103 C 
HETATM    5  O13         0      41.765 113.273  17.890  1.00  0.00    -0.307 OA
HETATM    6  C14         0      42.039 112.028  17.569  1.00  0.00     0.107 C 
HETATM    7  C15         0      43.142 111.698  16.795  1.00  0.00     0.049 C 
HETATM    8  C16         0      43.286 110.428  16.248  1.00  0.00     0.093 C 
HETATM    9  C18         0      42.609 109.419  16.921  1.00  0.00     0.048 C 
HETATM   10  C19         0      41.529 109.719  17.741  1.00  0.00     0.096 C 
HETATM   11  C21         0      41.139 111.020  17.901  1.00  0.00     0.084 C 
ENDROOT
BRANCH  10  12
HETATM   12  O20         0      40.610 108.720  18.048  1.00  0.00    -0.359 OA
HETATM   13  H20         0      39.963 108.902  18.719  1.00  0.00     0.218 HD
ENDBRANCH  10  12
BRANCH   4  14
HETATM   14  C5          0      40.127 115.021  18.008  1.00  0.00     0.025 C 
HETATM   15  C6          0      40.706 116.128  18.612  1.00  0.00     0.004 C 
HETATM   16  C7          0      40.879 117.269  17.836  1.00  0.00     0.026 C 
HETATM   17  C8          0      40.372 117.356  16.544  1.00  0.00     0.112 C 
HETATM   18  C10         0      39.308 116.503  16.279  1.00  0.00     0.112 C 
HETATM   19  C12         0      39.208 115.327  17.012  1.00  0.00     0.028 C 
BRANCH  17  20
HETATM   20  O9          0      41.032 118.085  15.571  1.00  0.00    -0.357 OA
HETATM   21  H9          0      40.605 118.454  14.806  1.00  0.00     0.218 HD
ENDBRANCH  17  20
BRANCH  18  22
HETATM   22  O11         0      38.645 116.681  15.074  1.00  0.00    -0.357 OA
HETATM   23  H11         0      38.917 117.417  14.537  1.00  0.00     0.218 HD
ENDBRANCH  18  22
ENDBRANCH   4  14
BRANCH   8  24
HETATM   24  O17         0      43.783 110.244  14.953  1.00  0.00    -0.359 OA
HETATM   25  H17         0      44.579 110.670  14.659  1.00  0.00     0.218 HD
ENDBRANCH   8  24
TORSDOF 5
ENDMDL
MODEL 9
REMARK VINA RESULT:      -4.1      4.088      6.529
REMARK  5 active torsions:
REMARK  status: ('A' for Active; 'I' for Inactive)
REMARK    1  A    between atoms: C4_4  and  C5_5 
REMARK    2  A    between atoms: C8_8  and  O9_9 
REMARK    3  A    between atoms: C10_11  and  O11_12 
REMARK    4  A    between atoms: C16_18  and  O17_19 
REMARK    5  A    between atoms: C19_22  and  O20_23 
ROOT
HETATM    1  O1          0      41.430 104.357  16.480  1.00  0.00    -0.286 OA
HETATM    2  C2          0      41.949 103.873  15.437  1.00  0.00     0.201 C 
HETATM    3  C3          0      43.244 104.159  15.041  1.00  0.00     0.067 C 
HETATM    4  C4          0      43.757 103.695  13.835  1.00  0.00     0.103 C 
HETATM    5  O13         0      42.988 102.946  13.065  1.00  0.00    -0.307 OA
HETATM    6  C14         0      41.739 102.676  13.375  1.00  0.00     0.107 C 
HETATM    7  C15         0      40.824 102.251  12.422  1.00  0.00     0.049 C 
HETATM    8  C16         0      39.462 102.213  12.695  1.00  0.00     0.093 C 
HETATM    9  C18         0      39.137 102.096  14.041  1.00  0.00     0.048 C 
HETATM   10  C19         0      40.046 102.469  15.022  1.00  0.00     0.096 C 
HETATM   11  C21         0      41.279 102.939  14.661  1.00  0.00     0.084 C 
ENDROOT
BRANCH  10  12
HETATM   12  O20         0      39.585 102.763  16.301  1.00  0.00    -0.359 OA
HETATM   13  H20         0      38.907 103.422  16.389  1.00  0.00     0.218 HD
ENDBRANCH  10  12
BRANCH   4  14
HETATM   14  C5          0      44.825 104.481  13.215  1.00  0.00     0.025 C 
HETATM   15  C6          0      44.952 104.624  11.841  1.00  0.00     0.004 C 
HETATM   16  C7          0      45.352 105.865  11.356  1.00  0.00     0.026 C 
HETATM   17  C8          0      45.742 106.891  12.211  1.00  0.00     0.112 C 
HETATM   18  C10         0      46.182 106.469  13.459  1.00  0.00     0.112 C 
HETATM   19  C12         0      45.700 105.265  13.956  1.00  0.00     0.028 C 
BRANCH  17  20
HETATM   20  O9          0      45.498 108.214  11.889  1.00  0.00    -0.357 OA
HETATM   21  H9          0      46.136 108.910  11.996  1.00  0.00     0.218 HD
ENDBRANCH  17  20
BRANCH  18  22
HETATM   22  O11         0      46.758 107.429  14.279  1.00  0.00    -0.357 OA
HETATM   23  H11         0      47.581 107.805  13.988  1.00  0.00     0.218 HD
ENDBRANCH  18  22
ENDBRANCH   4  14
BRANCH   8  24
HETATM   24  O17         0      38.516 102.601  11.740  1.00  0.00    -0.359 OA
HETATM   25  H17         0      38.582 102.329  10.833  1.00  0.00     0.218 HD
ENDBRANCH   8  24
TORSDOF 5
ENDMDL
