MODEL 1
REMARK VINA RESULT:      -5.6      0.000      0.000
REMARK  5 active torsions:
REMARK  status: ('A' for Active; 'I' for Inactive)
REMARK    1  A    between atoms: C4_4  and  C5_5 
REMARK    2  A    between atoms: C8_8  and  O9_9 
REMARK    3  A    between atoms: C10_11  and  O11_12 
REMARK    4  A    between atoms: C16_18  and  O17_19 
REMARK    5  A    between atoms: C19_22  and  O20_23 
ROOT
HETATM    1  O1          0      13.498  90.692 -12.173  1.00  0.00    -0.286 OA
HETATM    2  C2          0      13.639  90.441 -13.401  1.00  0.00     0.201 C 
HETATM    3  C3          0      14.878  90.290 -13.999  1.00  0.00     0.067 C 
HETATM    4  C4          0      15.008  90.115 -15.372  1.00  0.00     0.103 C 
HETATM    5  O13         0      13.915  90.074 -16.113  1.00  0.00    -0.307 OA
HETATM    6  C14         0      12.716  90.249 -15.601  1.00  0.00     0.107 C 
HETATM    7  C15         0      11.630  90.604 -16.388  1.00  0.00     0.049 C 
HETATM    8  C16         0      10.437  91.034 -15.820  1.00  0.00     0.093 C 
HETATM    9  C18         0      10.213  90.594 -14.521  1.00  0.00     0.048 C 
HETATM   10  C19         0      11.273  90.188 -13.722  1.00  0.00     0.096 C 
HETATM   11  C21         0      12.546  90.205 -14.222  1.00  0.00     0.084 C 
ENDROOT
BRANCH  10  12
HETATM   12  O20         0      11.115  90.172 -12.339  1.00  0.00    -0.359 OA
HETATM   13  H20         0      10.248  90.002 -11.992  1.00  0.00     0.218 HD
ENDBRANCH  10  12
BRANCH   4  14
HETATM   14  C5          0      16.261  90.557 -15.988  1.00  0.00     0.025 C 
HETATM   15  C6          0      16.352  90.933 -17.320  1.00  0.00     0.004 C 
HETATM   16  C7          0      17.180  92.007 -17.632  1.00  0.00     0.026 C 
HETATM   17  C8          0      17.994  92.602 -16.674  1.00  0.00     0.112 C 
HETATM   18  C10         0      18.304  91.790 -15.591  1.00  0.00     0.112 C 
HETATM   19  C12         0      17.416  90.777 -15.250  1.00  0.00     0.028 C 
BRANCH  17  20
HETATM   20  O9          0      18.273  93.956 -16.724  1.00  0.00    -0.357 OA
HETATM   21  H9          0      18.500  94.477 -15.962  1.00  0.00     0.218 HD
ENDBRANCH  17  20
BRANCH  18  22
HETATM   22  O11         0      19.260  92.264 -14.704  1.00  0.00    -0.357 OA
HETATM   23  H11         0      19.791  91.615 -14.257  1.00  0.00     0.218 HD
ENDBRANCH  18  22
ENDBRANCH   4  14
BRANCH   8  24
HETATM   24  O17         0       9.701  92.086 -16.378  1.00  0.00    -0.359 OA
HETATM   25  H17         0       9.465  92.097 -17.298  1.00  0.00     0.218 HD
ENDBRANCH   8  24
TORSDOF 5
ENDMDL
MODEL 2
REMARK VINA RESULT:      -5.5      1.643      6.744
REMARK  5 active torsions:
REMARK  status: ('A' for Active; 'I' for Inactive)
REMARK    1  A    between atoms: C4_4  and  C5_5 
REMARK    2  A    between atoms: C8_8  and  O9_9 
REMARK    3  A    between atoms: C10_11  and  O11_12 
REMARK    4  A    between atoms: C16_18  and  O17_19 
REMARK    5  A    between atoms: C19_22  and  O20_23 
ROOT
HETATM    1  O1          0      16.587  94.265 -14.914  1.00  0.00    -0.286 OA
HETATM    2  C2          0      16.126  93.176 -15.354  1.00  0.00     0.201 C 
HETATM    3  C3          0      14.925  92.641 -14.920  1.00  0.00     0.067 C 
HETATM    4  C4          0      14.489  91.390 -15.344  1.00  0.00     0.103 C 
HETATM    5  O13         0      15.237  90.713 -16.198  1.00  0.00    -0.307 OA
HETATM    6  C14         0      16.403  91.159 -16.612  1.00  0.00     0.107 C 
HETATM    7  C15         0      17.353  90.314 -17.166  1.00  0.00     0.049 C 
HETATM    8  C16         0      18.664  90.733 -17.364  1.00  0.00     0.093 C 
HETATM    9  C18         0      18.828  92.107 -17.491  1.00  0.00     0.048 C 
HETATM   10  C19         0      17.873  92.980 -16.989  1.00  0.00     0.096 C 
HETATM   11  C21         0      16.753  92.485 -16.379  1.00  0.00     0.084 C 
ENDROOT
BRANCH  10  12
HETATM   12  O20         0      18.229  94.299 -16.726  1.00  0.00    -0.359 OA
HETATM   13  H20         0      17.816  94.983 -17.239  1.00  0.00     0.218 HD
ENDBRANCH  10  12
BRANCH   4  14
HETATM   14  C5          0      13.599  90.652 -14.447  1.00  0.00     0.025 C 
HETATM   15  C6          0      13.815  90.561 -13.080  1.00  0.00     0.004 C 
HETATM   16  C7          0      12.702  90.608 -12.246  1.00  0.00     0.026 C 
HETATM   17  C8          0      11.409  90.610 -12.756  1.00  0.00     0.112 C 
HETATM   18  C10         0      11.287  90.071 -14.030  1.00  0.00     0.112 C 
HETATM   19  C12         0      12.391  90.114 -14.873  1.00  0.00     0.028 C 
BRANCH  17  20
HETATM   20  O9          0      10.393  91.292 -12.111  1.00  0.00    -0.357 OA
HETATM   21  H9          0      10.240  92.225 -12.206  1.00  0.00     0.218 HD
ENDBRANCH  17  20
BRANCH  18  22
HETATM   22  O11         0      10.000  89.875 -14.510  1.00  0.00    -0.357 OA
HETATM   23  H11         0       9.702  90.462 -15.195  1.00  0.00     0.218 HD
ENDBRANCH  18  22
ENDBRANCH   4  14
BRANCH   8  24
HETATM   24  O17         0      19.746  89.882 -17.116  1.00  0.00    -0.359 OA
HETATM   25  H17         0      20.106  89.321 -17.793  1.00  0.00     0.218 HD
ENDBRANCH   8  24
TORSDOF 5
ENDMDL
MODEL 3
REMARK VINA RESULT:      -5.4      1.623      6.699
REMARK  5 active torsions:
REMARK  status: ('A' for Active; 'I' for Inactive)
REMARK    1  A    between atoms: C4_4  and  C5_5 
REMARK    2  A    between atoms: C8_8  and  O9_9 
REMARK    3  A    between atoms: C10_11  and  O11_12 
REMARK    4  A    between atoms: C16_18  and  O17_19 
REMARK    5  A    between atoms: C19_22  and  O20_23 
ROOT
HETATM    1  O1          0      14.161  92.976 -17.929  1.00  0.00    -0.286 OA
HETATM    2  C2          0      14.348  92.023 -17.124  1.00  0.00     0.201 C 
HETATM    3  C3          0      13.316  91.409 -16.435  1.00  0.00     0.067 C 
HETATM    4  C4          0      13.560  90.430 -15.478  1.00  0.00     0.103 C 
HETATM    5  O13         0      14.809  90.070 -15.242  1.00  0.00    -0.307 OA
HETATM    6  C14         0      15.828  90.647 -15.841  1.00  0.00     0.107 C 
HETATM    7  C15         0      17.115  90.572 -15.329  1.00  0.00     0.049 C 
HETATM    8  C16         0      18.133  91.384 -15.814  1.00  0.00     0.093 C 
HETATM    9  C18         0      17.950  91.842 -17.113  1.00  0.00     0.048 C 
HETATM   10  C19         0      16.681  91.886 -17.673  1.00  0.00     0.096 C 
HETATM   11  C21         0      15.603  91.460 -16.947  1.00  0.00     0.084 C 
ENDROOT
BRANCH  10  12
HETATM   12  O20         0      16.446  92.723 -18.760  1.00  0.00    -0.359 OA
HETATM   13  H20         0      17.127  93.338 -19.004  1.00  0.00     0.218 HD
ENDBRANCH  10  12
BRANCH   4  14
HETATM   14  C5          0      12.568  90.273 -14.413  1.00  0.00     0.025 C 
HETATM   15  C6          0      12.913  90.181 -13.072  1.00  0.00     0.004 C 
HETATM   16  C7          0      12.087  90.814 -12.149  1.00  0.00     0.026 C 
HETATM   17  C8          0      10.887  91.405 -12.529  1.00  0.00     0.112 C 
HETATM   18  C10         0      10.343  90.908 -13.706  1.00  0.00     0.112 C 
HETATM   19  C12         0      11.202  90.357 -14.649  1.00  0.00     0.028 C 
BRANCH  17  20
HETATM   20  O9          0      10.416  92.534 -11.881  1.00  0.00    -0.357 OA
HETATM   21  H9          0       9.957  93.241 -12.320  1.00  0.00     0.218 HD
ENDBRANCH  17  20
BRANCH  18  22
HETATM   22  O11         0       9.060  91.326 -14.030  1.00  0.00    -0.357 OA
HETATM   23  H11         0       8.443  91.417 -13.313  1.00  0.00     0.218 HD
ENDBRANCH  18  22
ENDBRANCH   4  14
BRANCH   8  24
HETATM   24  O17         0      19.077  91.960 -14.957  1.00  0.00    -0.359 OA
HETATM   25  H17         0      19.079  91.782 -14.024  1.00  0.00     0.218 HD
ENDBRANCH   8  24
TORSDOF 5
ENDMDL
MODEL 4
REMARK VINA RESULT:      -5.4      2.169      3.164
REMARK  5 active torsions:
REMARK  status: ('A' for Active; 'I' for Inactive)
REMARK    1  A    between atoms: C4_4  and  C5_5 
REMARK    2  A    between atoms: C8_8  and  O9_9 
REMARK    3  A    between atoms: C10_11  and  O11_12 
REMARK    4  A    between atoms: C16_18  and  O17_19 
REMARK    5  A    between atoms: C19_22  and  O20_23 
ROOT
HETATM    1  O1          0      10.303  90.038 -14.902  1.00  0.00    -0.286 OA
HETATM    2  C2          0      11.297  90.801 -14.753  1.00  0.00     0.201 C 
HETATM    3  C3          0      12.448  90.691 -15.514  1.00  0.00     0.067 C 
HETATM    4  C4          0      13.567  91.477 -15.261  1.00  0.00     0.103 C 
HETATM    5  O13         0      13.513  92.361 -14.280  1.00  0.00    -0.307 OA
HETATM    6  C14         0      12.458  92.480 -13.503  1.00  0.00     0.107 C 
HETATM    7  C15         0      12.531  93.092 -12.260  1.00  0.00     0.049 C 
HETATM    8  C16         0      11.491  92.991 -11.344  1.00  0.00     0.093 C 
HETATM    9  C18         0      10.242  92.738 -11.899  1.00  0.00     0.048 C 
HETATM   10  C19         0      10.133  92.169 -13.160  1.00  0.00     0.096 C 
HETATM   11  C21         0      11.263  91.870 -13.871  1.00  0.00     0.084 C 
ENDROOT
BRANCH  10  12
HETATM   12  O20         0       8.949  91.531 -13.518  1.00  0.00    -0.359 OA
HETATM   13  H20         0       8.443  91.114 -12.832  1.00  0.00     0.218 HD
ENDBRANCH  10  12
BRANCH   4  14
HETATM   14  C5          0      14.870  90.932 -15.647  1.00  0.00     0.025 C 
HETATM   15  C6          0      15.478  91.225 -16.859  1.00  0.00     0.004 C 
HETATM   16  C7          0      16.858  91.400 -16.862  1.00  0.00     0.026 C 
HETATM   17  C8          0      17.626  91.161 -15.728  1.00  0.00     0.112 C 
HETATM   18  C10         0      17.048  90.296 -14.808  1.00  0.00     0.112 C 
HETATM   19  C12         0      15.662  90.204 -14.769  1.00  0.00     0.028 C 
BRANCH  17  20
HETATM   20  O9          0      18.764  91.904 -15.473  1.00  0.00    -0.357 OA
HETATM   21  H9          0      19.109  92.563 -16.066  1.00  0.00     0.218 HD
ENDBRANCH  17  20
BRANCH  18  22
HETATM   22  O11         0      17.846  89.875 -13.754  1.00  0.00    -0.357 OA
HETATM   23  H11         0      17.926  90.465 -13.013  1.00  0.00     0.218 HD
ENDBRANCH  18  22
ENDBRANCH   4  14
BRANCH   8  24
HETATM   24  O17         0      11.738  92.818  -9.977  1.00  0.00    -0.359 OA
HETATM   25  H17         0      11.313  92.132  -9.477  1.00  0.00     0.218 HD
ENDBRANCH   8  24
TORSDOF 5
ENDMDL
MODEL 5
REMARK VINA RESULT:      -5.0      3.246      7.379
REMARK  5 active torsions:
REMARK  status: ('A' for Active; 'I' for Inactive)
REMARK    1  A    between atoms: C4_4  and  C5_5 
REMARK    2  A    between atoms: C8_8  and  O9_9 
REMARK    3  A    between atoms: C10_11  and  O11_12 
REMARK    4  A    between atoms: C16_18  and  O17_19 
REMARK    5  A    between atoms: C19_22  and  O20_23 
ROOT
HETATM    1  O1          0      10.393  91.296 -16.348  1.00  0.00    -0.286 OA
HETATM    2  C2          0      10.773  91.134 -15.156  1.00  0.00     0.201 C 
HETATM    3  C3          0       9.991  91.477 -14.066  1.00  0.00     0.067 C 
HETATM    4  C4          0      10.473  91.384 -12.765  1.00  0.00     0.103 C 
HETATM    5  O13         0      11.702  90.939 -12.574  1.00  0.00    -0.307 OA
HETATM    6  C14         0      12.499  90.636 -13.575  1.00  0.00     0.107 C 
HETATM    7  C15         0      13.876  90.560 -13.416  1.00  0.00     0.049 C 
HETATM    8  C16         0      14.726  90.494 -14.513  1.00  0.00     0.093 C 
HETATM    9  C18         0      14.153  89.983 -15.671  1.00  0.00     0.048 C 
HETATM   10  C19         0      12.775  90.001 -15.842  1.00  0.00     0.096 C 
HETATM   11  C21         0      11.974  90.510 -14.857  1.00  0.00     0.084 C 
ENDROOT
BRANCH  10  12
HETATM   12  O20         0      12.249  89.907 -17.127  1.00  0.00    -0.359 OA
HETATM   13  H20         0      11.463  90.403 -17.323  1.00  0.00     0.218 HD
ENDBRANCH  10  12
BRANCH   4  14
HETATM   14  C5          0       9.884  92.280 -11.768  1.00  0.00     0.025 C 
HETATM   15  C6          0      10.612  93.271 -11.125  1.00  0.00     0.004 C 
HETATM   16  C7          0       9.975  94.484 -10.882  1.00  0.00     0.026 C 
HETATM   17  C8          0       8.621  94.662 -11.146  1.00  0.00     0.112 C 
HETATM   18  C10         0       7.876  93.491 -11.172  1.00  0.00     0.112 C 
HETATM   19  C12         0       8.522  92.305 -11.501  1.00  0.00     0.028 C 
BRANCH  17  20
HETATM   20  O9          0       8.134  95.891 -11.555  1.00  0.00    -0.357 OA
HETATM   21  H9          0       7.217  96.135 -11.516  1.00  0.00     0.218 HD
ENDBRANCH  17  20
BRANCH  18  22
HETATM   22  O11         0       6.497  93.625 -11.242  1.00  0.00    -0.357 OA
HETATM   23  H11         0       6.131  94.460 -10.974  1.00  0.00     0.218 HD
ENDBRANCH  18  22
ENDBRANCH   4  14
BRANCH   8  24
HETATM   24  O17         0      15.939  91.193 -14.538  1.00  0.00    -0.359 OA
HETATM   25  H17         0      16.660  90.921 -15.094  1.00  0.00     0.218 HD
ENDBRANCH   8  24
TORSDOF 5
ENDMDL
MODEL 6
REMARK VINA RESULT:      -4.8      4.209      8.383
REMARK  5 active torsions:
REMARK  status: ('A' for Active; 'I' for Inactive)
REMARK    1  A    between atoms: C4_4  and  C5_5 
REMARK    2  A    between atoms: C8_8  and  O9_9 
REMARK    3  A    between atoms: C10_11  and  O11_12 
REMARK    4  A    between atoms: C16_18  and  O17_19 
REMARK    5  A    between atoms: C19_22  and  O20_23 
ROOT
HETATM    1  O1          0       9.604  91.649 -15.449  1.00  0.00    -0.286 OA
HETATM    2  C2          0       9.694  91.681 -14.191  1.00  0.00     0.201 C 
HETATM    3  C3          0       8.768  92.324 -13.388  1.00  0.00     0.067 C 
HETATM    4  C4          0       8.945  92.432 -12.013  1.00  0.00     0.103 C 
HETATM    5  O13         0      10.018  91.887 -11.467  1.00  0.00    -0.307 OA
HETATM    6  C14         0      10.947  91.298 -12.188  1.00  0.00     0.107 C 
HETATM    7  C15         0      12.228  91.087 -11.698  1.00  0.00     0.049 C 
HETATM    8  C16         0      13.267  90.702 -12.538  1.00  0.00     0.093 C 
HETATM    9  C18         0      12.872  90.047 -13.698  1.00  0.00     0.048 C 
HETATM   10  C19         0      11.583  90.199 -14.190  1.00  0.00     0.096 C 
HETATM   11  C21         0      10.688  90.986 -13.518  1.00  0.00     0.084 C 
ENDROOT
BRANCH  10  12
HETATM   12  O20         0      11.328  89.919 -15.529  1.00  0.00    -0.359 OA
HETATM   13  H20         0      11.884  89.284 -15.964  1.00  0.00     0.218 HD
ENDBRANCH  10  12
BRANCH   4  14
HETATM   14  C5          0       8.316  93.572 -11.344  1.00  0.00     0.025 C 
HETATM   15  C6          0       9.044  94.619 -10.797  1.00  0.00     0.004 C 
HETATM   16  C7          0       8.524  95.903 -10.927  1.00  0.00     0.026 C 
HETATM   17  C8          0       7.260  96.127 -11.463  1.00  0.00     0.112 C 
HETATM   18  C10         0       6.396  95.044 -11.382  1.00  0.00     0.112 C 
HETATM   19  C12         0       6.941  93.766 -11.339  1.00  0.00     0.028 C 
BRANCH  17  20
HETATM   20  O9          0       6.993  97.270 -12.196  1.00  0.00    -0.357 OA
HETATM   21  H9          0       7.079  98.151 -11.850  1.00  0.00     0.218 HD
ENDBRANCH  17  20
BRANCH  18  22
HETATM   22  O11         0       5.071  95.270 -11.726  1.00  0.00    -0.357 OA
HETATM   23  H11         0       4.554  94.510 -11.970  1.00  0.00     0.218 HD
ENDBRANCH  18  22
ENDBRANCH   4  14
BRANCH   8  24
HETATM   24  O17         0      14.555  91.229 -12.392  1.00  0.00    -0.359 OA
HETATM   25  H17         0      14.699  92.125 -12.112  1.00  0.00     0.218 HD
ENDBRANCH   8  24
TORSDOF 5
ENDMDL
MODEL 7
REMARK VINA RESULT:      -4.7      4.683      8.285
REMARK  5 active torsions:
REMARK  status: ('A' for Active; 'I' for Inactive)
REMARK    1  A    between atoms: C4_4  and  C5_5 
REMARK    2  A    between atoms: C8_8  and  O9_9 
REMARK    3  A    between atoms: C10_11  and  O11_12 
REMARK    4  A    between atoms: C16_18  and  O17_19 
REMARK    5  A    between atoms: C19_22  and  O20_23 
ROOT
HETATM    1  O1          0       9.498  91.853 -14.932  1.00  0.00    -0.286 OA
HETATM    2  C2          0       9.770  91.994 -13.708  1.00  0.00     0.201 C 
HETATM    3  C3          0       9.068  92.850 -12.877  1.00  0.00     0.067 C 
HETATM    4  C4          0       9.453  93.064 -11.558  1.00  0.00     0.103 C 
HETATM    5  O13         0      10.504  92.416 -11.091  1.00  0.00    -0.307 OA
HETATM    6  C14         0      11.229  91.621 -11.848  1.00  0.00     0.107 C 
HETATM    7  C15         0      12.524  91.263 -11.502  1.00  0.00     0.049 C 
HETATM    8  C16         0      13.368  90.640 -12.414  1.00  0.00     0.093 C 
HETATM    9  C18         0      12.724  89.943 -13.429  1.00  0.00     0.048 C 
HETATM   10  C19         0      11.412  90.244 -13.769  1.00  0.00     0.096 C 
HETATM   11  C21         0      10.742  91.223 -13.088  1.00  0.00     0.084 C 
ENDROOT
BRANCH  10  12
HETATM   12  O20         0      10.933  89.875 -15.022  1.00  0.00    -0.359 OA
HETATM   13  H20         0      10.038  90.106 -15.242  1.00  0.00     0.218 HD
ENDBRANCH  10  12
BRANCH   4  14
HETATM   14  C5          0       9.092  94.349 -10.956  1.00  0.00     0.025 C 
HETATM   15  C6          0       7.809  94.874 -11.016  1.00  0.00     0.004 C 
HETATM   16  C7          0       7.331  95.538  -9.890  1.00  0.00     0.026 C 
HETATM   17  C8          0       8.146  95.791  -8.792  1.00  0.00     0.112 C 
HETATM   18  C10         0       9.506  95.808  -9.071  1.00  0.00     0.112 C 
HETATM   19  C12         0       9.968  95.066 -10.151  1.00  0.00     0.028 C 
BRANCH  17  20
HETATM   20  O9          0       7.623  95.805  -7.511  1.00  0.00    -0.357 OA
HETATM   21  H9          0       7.969  95.286  -6.794  1.00  0.00     0.218 HD
ENDBRANCH  17  20
BRANCH  18  22
HETATM   22  O11         0      10.349  96.240  -8.057  1.00  0.00    -0.357 OA
HETATM   23  H11         0      10.682  95.577  -7.463  1.00  0.00     0.218 HD
ENDBRANCH  18  22
ENDBRANCH   4  14
BRANCH   8  24
HETATM   24  O17         0      14.725  90.972 -12.495  1.00  0.00    -0.359 OA
HETATM   25  H17         0      15.261  90.703 -13.231  1.00  0.00     0.218 HD
ENDBRANCH   8  24
TORSDOF 5
ENDMDL
MODEL 8
REMARK VINA RESULT:      -4.7      4.041      5.885
REMARK  5 active torsions:
REMARK  status: ('A' for Active; 'I' for Inactive)
REMARK    1  A    between atoms: C4_4  and  C5_5 
REMARK    2  A    between atoms: C8_8  and  O9_9 
REMARK    3  A    between atoms: C10_11  and  O11_12 
REMARK    4  A    between atoms: C16_18  and  O17_19 
REMARK    5  A    between atoms: C19_22  and  O20_23 
ROOT
HETATM    1  O1          0      11.494  95.405 -10.816  1.00  0.00    -0.286 OA
HETATM    2  C2          0      10.927  94.294 -11.005  1.00  0.00     0.201 C 
HETATM    3  C3          0      11.629  93.118 -11.206  1.00  0.00     0.067 C 
HETATM    4  C4          0      10.981  91.927 -11.514  1.00  0.00     0.103 C 
HETATM    5  O13         0       9.662  91.923 -11.594  1.00  0.00    -0.307 OA
HETATM    6  C14         0       8.950  93.019 -11.448  1.00  0.00     0.107 C 
HETATM    7  C15         0       7.647  93.112 -11.914  1.00  0.00     0.049 C 
HETATM    8  C16         0       6.992  94.335 -11.989  1.00  0.00     0.093 C 
HETATM    9  C18         0       7.467  95.310 -11.120  1.00  0.00     0.048 C 
HETATM   10  C19         0       8.751  95.224 -10.598  1.00  0.00     0.096 C 
HETATM   11  C21         0       9.549  94.162 -10.928  1.00  0.00     0.084 C 
ENDROOT
BRANCH  10  12
HETATM   12  O20         0       9.364  96.372 -10.106  1.00  0.00    -0.359 OA
HETATM   13  H20         0      10.276  96.519 -10.326  1.00  0.00     0.218 HD
ENDBRANCH  10  12
BRANCH   4  14
HETATM   14  C5          0      11.736  90.932 -12.279  1.00  0.00     0.025 C 
HETATM   15  C6          0      11.220  90.294 -13.397  1.00  0.00     0.004 C 
HETATM   16  C7          0      12.086  90.055 -14.459  1.00  0.00     0.026 C 
HETATM   17  C8          0      13.448  90.318 -14.364  1.00  0.00     0.112 C 
HETATM   18  C10         0      13.945  90.338 -13.067  1.00  0.00     0.112 C 
HETATM   19  C12         0      13.076  90.664 -12.032  1.00  0.00     0.028 C 
BRANCH  17  20
HETATM   20  O9          0      14.170  90.731 -15.469  1.00  0.00    -0.357 OA
HETATM   21  H9          0      13.856  90.656 -16.363  1.00  0.00     0.218 HD
ENDBRANCH  17  20
BRANCH  18  22
HETATM   22  O11         0      15.323  90.408 -12.923  1.00  0.00    -0.357 OA
HETATM   23  H11         0      15.765  89.620 -12.627  1.00  0.00     0.218 HD
ENDBRANCH  18  22
ENDBRANCH   4  14
BRANCH   8  24
HETATM   24  O17         0       6.167  94.655 -13.073  1.00  0.00    -0.359 OA
HETATM   25  H17         0       6.101  95.543 -13.405  1.00  0.00     0.218 HD
ENDBRANCH   8  24
TORSDOF 5
ENDMDL
MODEL 9
REMARK VINA RESULT:      -4.7      3.713      8.206
REMARK  5 active torsions:
REMARK  status: ('A' for Active; 'I' for Inactive)
REMARK    1  A    between atoms: C4_4  and  C5_5 
REMARK    2  A    between atoms: C8_8  and  O9_9 
REMARK    3  A    between atoms: C10_11  and  O11_12 
REMARK    4  A    between atoms: C16_18  and  O17_19 
REMARK    5  A    between atoms: C19_22  and  O20_23 
ROOT
HETATM    1  O1          0      10.641  91.890 -16.502  1.00  0.00    -0.286 OA
HETATM    2  C2          0      10.355  91.769 -15.280  1.00  0.00     0.201 C 
HETATM    3  C3          0       9.219  92.325 -14.715  1.00  0.00     0.067 C 
HETATM    4  C4          0       8.980  92.263 -13.347  1.00  0.00     0.103 C 
HETATM    5  O13         0       9.855  91.639 -12.578  1.00  0.00    -0.307 OA
HETATM    6  C14         0      10.967  91.127 -13.057  1.00  0.00     0.107 C 
HETATM    7  C15         0      12.051  90.839 -12.239  1.00  0.00     0.049 C 
HETATM    8  C16         0      13.299  90.543 -12.773  1.00  0.00     0.093 C 
HETATM    9  C18         0      13.279  90.038 -14.068  1.00  0.00     0.048 C 
HETATM   10  C19         0      12.190  90.268 -14.898  1.00  0.00     0.096 C 
HETATM   11  C21         0      11.120  90.983 -14.431  1.00  0.00     0.084 C 
ENDROOT
BRANCH  10  12
HETATM   12  O20         0      12.348  90.155 -16.275  1.00  0.00    -0.359 OA
HETATM   13  H20         0      12.170  90.921 -16.808  1.00  0.00     0.218 HD
ENDBRANCH  10  12
BRANCH   4  14
HETATM   14  C5          0       8.158  93.324 -12.763  1.00  0.00     0.025 C 
HETATM   15  C6          0       6.812  93.481 -13.060  1.00  0.00     0.004 C 
HETATM   16  C7          0       5.963  93.858 -12.024  1.00  0.00     0.026 C 
HETATM   17  C8          0       6.452  94.198 -10.767  1.00  0.00     0.112 C 
HETATM   18  C10         0       7.775  94.618 -10.754  1.00  0.00     0.112 C 
HETATM   19  C12         0       8.624  94.157 -11.754  1.00  0.00     0.028 C 
BRANCH  17  20
HETATM   20  O9          0       5.721  93.925  -9.625  1.00  0.00    -0.357 OA
HETATM   21  H9          0       4.869  93.505  -9.631  1.00  0.00     0.218 HD
ENDBRANCH  17  20
BRANCH  18  22
HETATM   22  O11         0       8.255  95.146  -9.564  1.00  0.00    -0.357 OA
HETATM   23  H11         0       8.706  94.548  -8.979  1.00  0.00     0.218 HD
ENDBRANCH  18  22
ENDBRANCH   4  14
BRANCH   8  24
HETATM   24  O17         0      14.475  91.028 -12.191  1.00  0.00    -0.359 OA
HETATM   25  H17         0      14.522  91.897 -11.811  1.00  0.00     0.218 HD
ENDBRANCH   8  24
TORSDOF 5
ENDMDL
