MODEL 1
REMARK VINA RESULT:      -6.8      0.000      0.000
REMARK  5 active torsions:
REMARK  status: ('A' for Active; 'I' for Inactive)
REMARK    1  A    between atoms: C4_4  and  C5_5 
REMARK    2  A    between atoms: C8_8  and  O9_9 
REMARK    3  A    between atoms: C10_11  and  O11_12 
REMARK    4  A    between atoms: C16_18  and  O17_19 
REMARK    5  A    between atoms: C19_22  and  O20_23 
ROOT
HETATM    1  O1          0      34.163  55.255 -18.545  1.00  0.00    -0.286 OA
HETATM    2  C2          0      35.109  55.224 -19.378  1.00  0.00     0.201 C 
HETATM    3  C3          0      35.154  54.324 -20.429  1.00  0.00     0.067 C 
HETATM    4  C4          0      36.256  54.242 -21.272  1.00  0.00     0.103 C 
HETATM    5  O13         0      37.272  55.063 -21.070  1.00  0.00    -0.307 OA
HETATM    6  C14         0      37.297  55.910 -20.064  1.00  0.00     0.107 C 
HETATM    7  C15         0      38.481  56.471 -19.610  1.00  0.00     0.049 C 
HETATM    8  C16         0      38.539  57.157 -18.403  1.00  0.00     0.093 C 
HETATM    9  C18         0      37.331  57.695 -17.975  1.00  0.00     0.048 C 
HETATM   10  C19         0      36.127  57.188 -18.446  1.00  0.00     0.096 C 
HETATM   11  C21         0      36.130  56.162 -19.351  1.00  0.00     0.084 C 
ENDROOT
BRANCH  10  12
HETATM   12  O20         0      34.963  57.411 -17.716  1.00  0.00    -0.359 OA
HETATM   13  H20         0      35.050  57.635 -16.798  1.00  0.00     0.218 HD
ENDBRANCH  10  12
BRANCH   4  14
HETATM   14  C5          0      36.509  52.955 -21.923  1.00  0.00     0.025 C 
HETATM   15  C6          0      36.559  52.807 -23.301  1.00  0.00     0.004 C 
HETATM   16  C7          0      37.508  51.931 -23.821  1.00  0.00     0.026 C 
HETATM   17  C8          0      38.289  51.129 -22.996  1.00  0.00     0.112 C 
HETATM   18  C10         0      37.746  50.884 -21.742  1.00  0.00     0.112 C 
HETATM   19  C12         0      36.865  51.818 -21.210  1.00  0.00     0.028 C 
BRANCH  17  20
HETATM   20  O9          0      39.586  50.801 -23.349  1.00  0.00    -0.357 OA
HETATM   21  H9          0      39.984  51.040 -24.178  1.00  0.00     0.218 HD
ENDBRANCH  17  20
BRANCH  18  22
HETATM   22  O11         0      38.389  49.942 -20.952  1.00  0.00    -0.357 OA
HETATM   23  H11         0      38.828  49.230 -21.403  1.00  0.00     0.218 HD
ENDBRANCH  18  22
ENDBRANCH   4  14
BRANCH   8  24
HETATM   24  O17         0      39.631  57.022 -17.538  1.00  0.00    -0.359 OA
HETATM   25  H17         0      40.488  57.366 -17.760  1.00  0.00     0.218 HD
ENDBRANCH   8  24
TORSDOF 5
ENDMDL
MODEL 2
REMARK VINA RESULT:      -6.8      1.947      6.582
REMARK  5 active torsions:
REMARK  status: ('A' for Active; 'I' for Inactive)
REMARK    1  A    between atoms: C4_4  and  C5_5 
REMARK    2  A    between atoms: C8_8  and  O9_9 
REMARK    3  A    between atoms: C10_11  and  O11_12 
REMARK    4  A    between atoms: C16_18  and  O17_19 
REMARK    5  A    between atoms: C19_22  and  O20_23 
ROOT
HETATM    1  O1          0      37.669  55.430 -23.411  1.00  0.00    -0.286 OA
HETATM    2  C2          0      36.897  54.807 -22.631  1.00  0.00     0.201 C 
HETATM    3  C3          0      35.974  55.446 -21.821  1.00  0.00     0.067 C 
HETATM    4  C4          0      35.207  54.746 -20.897  1.00  0.00     0.103 C 
HETATM    5  O13         0      35.356  53.436 -20.812  1.00  0.00    -0.307 OA
HETATM    6  C14         0      36.244  52.785 -21.531  1.00  0.00     0.107 C 
HETATM    7  C15         0      36.684  51.518 -21.177  1.00  0.00     0.049 C 
HETATM    8  C16         0      37.795  50.944 -21.784  1.00  0.00     0.093 C 
HETATM    9  C18         0      38.086  51.428 -23.053  1.00  0.00     0.048 C 
HETATM   10  C19         0      37.622  52.673 -23.457  1.00  0.00     0.096 C 
HETATM   11  C21         0      36.858  53.422 -22.604  1.00  0.00     0.084 C 
ENDROOT
BRANCH  10  12
HETATM   12  O20         0      38.255  53.326 -24.510  1.00  0.00    -0.359 OA
HETATM   13  H20         0      38.889  54.000 -24.299  1.00  0.00     0.218 HD
ENDBRANCH  10  12
BRANCH   4  14
HETATM   14  C5          0      34.741  55.480 -19.719  1.00  0.00     0.025 C 
HETATM   15  C6          0      34.824  54.968 -18.432  1.00  0.00     0.004 C 
HETATM   16  C7          0      35.149  55.851 -17.407  1.00  0.00     0.026 C 
HETATM   17  C8          0      35.257  57.219 -17.630  1.00  0.00     0.112 C 
HETATM   18  C10         0      34.559  57.684 -18.736  1.00  0.00     0.112 C 
HETATM   19  C12         0      34.321  56.802 -19.785  1.00  0.00     0.028 C 
BRANCH  17  20
HETATM   20  O9          0      36.163  57.984 -16.917  1.00  0.00    -0.357 OA
HETATM   21  H9          0      36.906  57.622 -16.447  1.00  0.00     0.218 HD
ENDBRANCH  17  20
BRANCH  18  22
HETATM   22  O11         0      34.476  59.060 -18.896  1.00  0.00    -0.357 OA
HETATM   23  H11         0      33.720  59.492 -18.516  1.00  0.00     0.218 HD
ENDBRANCH  18  22
ENDBRANCH   4  14
BRANCH   8  24
HETATM   24  O17         0      38.725  50.201 -21.048  1.00  0.00    -0.359 OA
HETATM   25  H17         0      38.572  49.968 -20.140  1.00  0.00     0.218 HD
ENDBRANCH   8  24
TORSDOF 5
ENDMDL
MODEL 3
REMARK VINA RESULT:      -6.6      1.812      2.699
REMARK  5 active torsions:
REMARK  status: ('A' for Active; 'I' for Inactive)
REMARK    1  A    between atoms: C4_4  and  C5_5 
REMARK    2  A    between atoms: C8_8  and  O9_9 
REMARK    3  A    between atoms: C10_11  and  O11_12 
REMARK    4  A    between atoms: C16_18  and  O17_19 
REMARK    5  A    between atoms: C19_22  and  O20_23 
ROOT
HETATM    1  O1          0      36.167  57.897 -22.309  1.00  0.00    -0.286 OA
HETATM    2  C2          0      36.290  56.883 -21.569  1.00  0.00     0.201 C 
HETATM    3  C3          0      36.871  55.703 -22.002  1.00  0.00     0.067 C 
HETATM    4  C4          0      36.901  54.568 -21.200  1.00  0.00     0.103 C 
HETATM    5  O13         0      36.378  54.633 -19.989  1.00  0.00    -0.307 OA
HETATM    6  C14         0      35.781  55.716 -19.542  1.00  0.00     0.107 C 
HETATM    7  C15         0      34.900  55.676 -18.471  1.00  0.00     0.049 C 
HETATM    8  C16         0      34.084  56.759 -18.167  1.00  0.00     0.093 C 
HETATM    9  C18         0      34.555  57.990 -18.606  1.00  0.00     0.048 C 
HETATM   10  C19         0      35.473  58.064 -19.645  1.00  0.00     0.096 C 
HETATM   11  C21         0      35.931  56.915 -20.230  1.00  0.00     0.084 C 
ENDROOT
BRANCH  10  12
HETATM   12  O20         0      35.602  59.254 -20.355  1.00  0.00    -0.359 OA
HETATM   13  H20         0      36.425  59.724 -20.290  1.00  0.00     0.218 HD
ENDBRANCH  10  12
BRANCH   4  14
HETATM   14  C5          0      36.954  53.271 -21.877  1.00  0.00     0.025 C 
HETATM   15  C6          0      36.933  53.142 -23.258  1.00  0.00     0.004 C 
HETATM   16  C7          0      37.735  52.157 -23.826  1.00  0.00     0.026 C 
HETATM   17  C8          0      38.431  51.243 -23.043  1.00  0.00     0.112 C 
HETATM   18  C10         0      37.906  51.049 -21.772  1.00  0.00     0.112 C 
HETATM   19  C12         0      37.180  52.083 -21.194  1.00  0.00     0.028 C 
BRANCH  17  20
HETATM   20  O9          0      39.658  50.750 -23.450  1.00  0.00    -0.357 OA
HETATM   21  H9          0      39.771  49.919 -23.898  1.00  0.00     0.218 HD
ENDBRANCH  17  20
BRANCH  18  22
HETATM   22  O11         0      38.445  50.015 -21.020  1.00  0.00    -0.357 OA
HETATM   23  H11         0      39.370  49.832 -21.141  1.00  0.00     0.218 HD
ENDBRANCH  18  22
ENDBRANCH   4  14
BRANCH   8  24
HETATM   24  O17         0      32.756  56.581 -17.762  1.00  0.00    -0.359 OA
HETATM   25  H17         0      32.027  56.843 -18.312  1.00  0.00     0.218 HD
ENDBRANCH   8  24
TORSDOF 5
ENDMDL
MODEL 4
REMARK VINA RESULT:      -6.5     12.312     13.005
REMARK  5 active torsions:
REMARK  status: ('A' for Active; 'I' for Inactive)
REMARK    1  A    between atoms: C4_4  and  C5_5 
REMARK    2  A    between atoms: C8_8  and  O9_9 
REMARK    3  A    between atoms: C10_11  and  O11_12 
REMARK    4  A    between atoms: C16_18  and  O17_19 
REMARK    5  A    between atoms: C19_22  and  O20_23 
ROOT
HETATM    1  O1          0      44.566  46.010 -10.741  1.00  0.00    -0.286 OA
HETATM    2  C2          0      44.609  46.403 -11.940  1.00  0.00     0.201 C 
HETATM    3  C3          0      44.191  45.618 -13.001  1.00  0.00     0.067 C 
HETATM    4  C4          0      44.345  46.034 -14.319  1.00  0.00     0.103 C 
HETATM    5  O13         0      44.886  47.217 -14.552  1.00  0.00    -0.307 OA
HETATM    6  C14         0      45.334  47.984 -13.583  1.00  0.00     0.107 C 
HETATM    7  C15         0      46.240  49.008 -13.820  1.00  0.00     0.049 C 
HETATM    8  C16         0      46.900  49.644 -12.776  1.00  0.00     0.093 C 
HETATM    9  C18         0      46.246  49.593 -11.551  1.00  0.00     0.048 C 
HETATM   10  C19         0      45.299  48.610 -11.296  1.00  0.00     0.096 C 
HETATM   11  C21         0      44.995  47.694 -12.266  1.00  0.00     0.084 C 
ENDROOT
BRANCH  10  12
HETATM   12  O20         0      44.982  48.296  -9.979  1.00  0.00    -0.359 OA
HETATM   13  H20         0      44.378  48.865  -9.518  1.00  0.00     0.218 HD
ENDBRANCH  10  12
BRANCH   4  14
HETATM   14  C5          0      44.461  44.992 -15.341  1.00  0.00     0.025 C 
HETATM   15  C6          0      43.375  44.251 -15.785  1.00  0.00     0.004 C 
HETATM   16  C7          0      43.319  43.938 -17.139  1.00  0.00     0.026 C 
HETATM   17  C8          0      44.370  44.234 -18.000  1.00  0.00     0.112 C 
HETATM   18  C10         0      45.605  44.375 -17.381  1.00  0.00     0.112 C 
HETATM   19  C12         0      45.635  44.772 -16.049  1.00  0.00     0.028 C 
BRANCH  17  20
HETATM   20  O9          0      44.132  44.564 -19.323  1.00  0.00    -0.357 OA
HETATM   21  H9          0      44.675  44.272 -20.046  1.00  0.00     0.218 HD
ENDBRANCH  17  20
BRANCH  18  22
HETATM   22  O11         0      46.714  44.483 -18.208  1.00  0.00    -0.357 OA
HETATM   23  H11         0      47.299  45.215 -18.050  1.00  0.00     0.218 HD
ENDBRANCH  18  22
ENDBRANCH   4  14
BRANCH   8  24
HETATM   24  O17         0      48.250  49.999 -12.875  1.00  0.00    -0.359 OA
HETATM   25  H17         0      48.810  50.050 -12.110  1.00  0.00     0.218 HD
ENDBRANCH   8  24
TORSDOF 5
ENDMDL
MODEL 5
REMARK VINA RESULT:      -6.4      2.072      3.689
REMARK  5 active torsions:
REMARK  status: ('A' for Active; 'I' for Inactive)
REMARK    1  A    between atoms: C4_4  and  C5_5 
REMARK    2  A    between atoms: C8_8  and  O9_9 
REMARK    3  A    between atoms: C10_11  and  O11_12 
REMARK    4  A    between atoms: C16_18  and  O17_19 
REMARK    5  A    between atoms: C19_22  and  O20_23 
ROOT
HETATM    1  O1          0      36.342  58.512 -19.121  1.00  0.00    -0.286 OA
HETATM    2  C2          0      35.816  57.368 -19.041  1.00  0.00     0.201 C 
HETATM    3  C3          0      36.399  56.234 -19.580  1.00  0.00     0.067 C 
HETATM    4  C4          0      35.750  55.005 -19.568  1.00  0.00     0.103 C 
HETATM    5  O13         0      34.556  54.923 -19.009  1.00  0.00    -0.307 OA
HETATM    6  C14         0      33.941  55.976 -18.516  1.00  0.00     0.107 C 
HETATM    7  C15         0      32.571  55.988 -18.301  1.00  0.00     0.049 C 
HETATM    8  C16         0      31.894  57.170 -18.026  1.00  0.00     0.093 C 
HETATM    9  C18         0      32.673  58.176 -17.467  1.00  0.00     0.048 C 
HETATM   10  C19         0      34.052  58.170 -17.623  1.00  0.00     0.096 C 
HETATM   11  C21         0      34.652  57.155 -18.319  1.00  0.00     0.084 C 
ENDROOT
BRANCH  10  12
HETATM   12  O20         0      34.761  59.356 -17.458  1.00  0.00    -0.359 OA
HETATM   13  H20         0      34.292  60.174 -17.570  1.00  0.00     0.218 HD
ENDBRANCH  10  12
BRANCH   4  14
HETATM   14  C5          0      36.101  54.052 -20.623  1.00  0.00     0.025 C 
HETATM   15  C6          0      36.961  54.367 -21.666  1.00  0.00     0.004 C 
HETATM   16  C7          0      37.841  53.380 -22.096  1.00  0.00     0.026 C 
HETATM   17  C8          0      37.779  52.082 -21.601  1.00  0.00     0.112 C 
HETATM   18  C10         0      36.545  51.718 -21.079  1.00  0.00     0.112 C 
HETATM   19  C12         0      35.720  52.718 -20.578  1.00  0.00     0.028 C 
BRANCH  17  20
HETATM   20  O9          0      38.927  51.321 -21.461  1.00  0.00    -0.357 OA
HETATM   21  H9          0      39.774  51.575 -21.807  1.00  0.00     0.218 HD
ENDBRANCH  17  20
BRANCH  18  22
HETATM   22  O11         0      36.372  50.382 -20.746  1.00  0.00    -0.357 OA
HETATM   23  H11         0      36.728  50.097 -19.912  1.00  0.00     0.218 HD
ENDBRANCH  18  22
ENDBRANCH   4  14
BRANCH   8  24
HETATM   24  O17         0      30.635  57.434 -18.576  1.00  0.00    -0.359 OA
HETATM   25  H17         0      29.903  56.840 -18.457  1.00  0.00     0.218 HD
ENDBRANCH   8  24
TORSDOF 5
ENDMDL
MODEL 6
REMARK VINA RESULT:      -6.3      1.989      6.699
REMARK  5 active torsions:
REMARK  status: ('A' for Active; 'I' for Inactive)
REMARK    1  A    between atoms: C4_4  and  C5_5 
REMARK    2  A    between atoms: C8_8  and  O9_9 
REMARK    3  A    between atoms: C10_11  and  O11_12 
REMARK    4  A    between atoms: C16_18  and  O17_19 
REMARK    5  A    between atoms: C19_22  and  O20_23 
ROOT
HETATM    1  O1          0      37.593  54.995 -24.922  1.00  0.00    -0.286 OA
HETATM    2  C2          0      37.374  54.935 -23.681  1.00  0.00     0.201 C 
HETATM    3  C3          0      37.226  56.061 -22.889  1.00  0.00     0.067 C 
HETATM    4  C4          0      37.088  55.968 -21.509  1.00  0.00     0.103 C 
HETATM    5  O13         0      37.081  54.771 -20.951  1.00  0.00    -0.307 OA
HETATM    6  C14         0      37.255  53.672 -21.651  1.00  0.00     0.107 C 
HETATM    7  C15         0      37.644  52.480 -21.057  1.00  0.00     0.049 C 
HETATM    8  C16         0      38.072  51.399 -21.819  1.00  0.00     0.093 C 
HETATM    9  C18         0      37.598  51.378 -23.125  1.00  0.00     0.048 C 
HETATM   10  C19         0      37.157  52.544 -23.735  1.00  0.00     0.096 C 
HETATM   11  C21         0      37.173  53.722 -23.039  1.00  0.00     0.084 C 
ENDROOT
BRANCH  10  12
HETATM   12  O20         0      37.104  52.608 -25.124  1.00  0.00    -0.359 OA
HETATM   13  H20         0      37.862  52.309 -25.612  1.00  0.00     0.218 HD
ENDBRANCH  10  12
BRANCH   4  14
HETATM   14  C5          0      37.534  57.114 -20.714  1.00  0.00     0.025 C 
HETATM   15  C6          0      37.528  58.414 -21.198  1.00  0.00     0.004 C 
HETATM   16  C7          0      37.169  59.429 -20.317  1.00  0.00     0.026 C 
HETATM   17  C8          0      36.953  59.179 -18.966  1.00  0.00     0.112 C 
HETATM   18  C10         0      37.581  58.041 -18.479  1.00  0.00     0.112 C 
HETATM   19  C12         0      37.852  57.006 -19.366  1.00  0.00     0.028 C 
BRANCH  17  20
HETATM   20  O9          0      36.014  59.904 -18.253  1.00  0.00    -0.357 OA
HETATM   21  H9          0      36.081  60.838 -18.090  1.00  0.00     0.218 HD
ENDBRANCH  17  20
BRANCH  18  22
HETATM   22  O11         0      37.556  57.848 -17.105  1.00  0.00    -0.357 OA
HETATM   23  H11         0      37.918  57.033 -16.779  1.00  0.00     0.218 HD
ENDBRANCH  18  22
ENDBRANCH   4  14
BRANCH   8  24
HETATM   24  O17         0      39.147  50.601 -21.413  1.00  0.00    -0.359 OA
HETATM   25  H17         0      39.491  49.909 -21.965  1.00  0.00     0.218 HD
ENDBRANCH   8  24
TORSDOF 5
ENDMDL
MODEL 7
REMARK VINA RESULT:      -6.2      1.983      2.303
REMARK  5 active torsions:
REMARK  status: ('A' for Active; 'I' for Inactive)
REMARK    1  A    between atoms: C4_4  and  C5_5 
REMARK    2  A    between atoms: C8_8  and  O9_9 
REMARK    3  A    between atoms: C10_11  and  O11_12 
REMARK    4  A    between atoms: C16_18  and  O17_19 
REMARK    5  A    between atoms: C19_22  and  O20_23 
ROOT
HETATM    1  O1          0      34.681  55.647 -16.586  1.00  0.00    -0.286 OA
HETATM    2  C2          0      34.939  55.984 -17.774  1.00  0.00     0.201 C 
HETATM    3  C3          0      34.915  55.090 -18.830  1.00  0.00     0.067 C 
HETATM    4  C4          0      35.303  55.465 -20.112  1.00  0.00     0.103 C 
HETATM    5  O13         0      35.684  56.713 -20.320  1.00  0.00    -0.307 OA
HETATM    6  C14         0      35.761  57.592 -19.345  1.00  0.00     0.107 C 
HETATM    7  C15         0      36.519  58.748 -19.462  1.00  0.00     0.049 C 
HETATM    8  C16         0      36.804  59.540 -18.355  1.00  0.00     0.093 C 
HETATM    9  C18         0      35.898  59.430 -17.307  1.00  0.00     0.048 C 
HETATM   10  C19         0      35.091  58.307 -17.186  1.00  0.00     0.096 C 
HETATM   11  C21         0      35.176  57.307 -18.116  1.00  0.00     0.084 C 
ENDROOT
BRANCH  10  12
HETATM   12  O20         0      34.530  58.003 -15.950  1.00  0.00    -0.359 OA
HETATM   13  H20         0      33.742  58.467 -15.692  1.00  0.00     0.218 HD
ENDBRANCH  10  12
BRANCH   4  14
HETATM   14  C5          0      35.823  54.414 -20.988  1.00  0.00     0.025 C 
HETATM   15  C6          0      36.811  54.644 -21.934  1.00  0.00     0.004 C 
HETATM   16  C7          0      37.768  53.652 -22.120  1.00  0.00     0.026 C 
HETATM   17  C8          0      37.672  52.417 -21.488  1.00  0.00     0.112 C 
HETATM   18  C10         0      36.386  52.063 -21.100  1.00  0.00     0.112 C 
HETATM   19  C12         0      35.473  53.078 -20.837  1.00  0.00     0.028 C 
BRANCH  17  20
HETATM   20  O9          0      38.807  51.726 -21.104  1.00  0.00    -0.357 OA
HETATM   21  H9          0      38.790  50.907 -20.622  1.00  0.00     0.218 HD
ENDBRANCH  17  20
BRANCH  18  22
HETATM   22  O11         0      36.203  50.768 -20.637  1.00  0.00    -0.357 OA
HETATM   23  H11         0      35.995  50.666 -19.716  1.00  0.00     0.218 HD
ENDBRANCH  18  22
ENDBRANCH   4  14
BRANCH   8  24
HETATM   24  O17         0      38.063  60.125 -18.182  1.00  0.00    -0.359 OA
HETATM   25  H17         0      38.676  60.212 -18.902  1.00  0.00     0.218 HD
ENDBRANCH   8  24
TORSDOF 5
ENDMDL
MODEL 8
REMARK VINA RESULT:      -6.1      2.322      3.029
REMARK  5 active torsions:
REMARK  status: ('A' for Active; 'I' for Inactive)
REMARK    1  A    between atoms: C4_4  and  C5_5 
REMARK    2  A    between atoms: C8_8  and  O9_9 
REMARK    3  A    between atoms: C10_11  and  O11_12 
REMARK    4  A    between atoms: C16_18  and  O17_19 
REMARK    5  A    between atoms: C19_22  and  O20_23 
ROOT
HETATM    1  O1          0      38.349  56.478 -19.504  1.00  0.00    -0.286 OA
HETATM    2  C2          0      37.479  56.067 -20.319  1.00  0.00     0.201 C 
HETATM    3  C3          0      37.236  54.723 -20.544  1.00  0.00     0.067 C 
HETATM    4  C4          0      36.345  54.296 -21.522  1.00  0.00     0.103 C 
HETATM    5  O13         0      35.703  55.205 -22.235  1.00  0.00    -0.307 OA
HETATM    6  C14         0      35.924  56.493 -22.088  1.00  0.00     0.107 C 
HETATM    7  C15         0      35.578  57.411 -23.070  1.00  0.00     0.049 C 
HETATM    8  C16         0      36.037  58.721 -23.026  1.00  0.00     0.093 C 
HETATM    9  C18         0      36.374  59.184 -21.760  1.00  0.00     0.048 C 
HETATM   10  C19         0      36.681  58.292 -20.742  1.00  0.00     0.096 C 
HETATM   11  C21         0      36.635  56.945 -20.982  1.00  0.00     0.084 C 
ENDROOT
BRANCH  10  12
HETATM   12  O20         0      37.419  58.734 -19.649  1.00  0.00    -0.359 OA
HETATM   13  H20         0      38.227  59.204 -19.818  1.00  0.00     0.218 HD
ENDBRANCH  10  12
BRANCH   4  14
HETATM   14  C5          0      36.574  52.974 -22.106  1.00  0.00     0.025 C 
HETATM   15  C6          0      36.608  52.753 -23.476  1.00  0.00     0.004 C 
HETATM   16  C7          0      37.540  51.839 -23.958  1.00  0.00     0.026 C 
HETATM   17  C8          0      38.320  51.071 -23.100  1.00  0.00     0.112 C 
HETATM   18  C10         0      37.787  50.899 -21.830  1.00  0.00     0.112 C 
HETATM   19  C12         0      36.924  51.871 -21.338  1.00  0.00     0.028 C 
BRANCH  17  20
HETATM   20  O9          0      39.609  50.708 -23.448  1.00  0.00    -0.357 OA
HETATM   21  H9          0      39.831  50.255 -24.253  1.00  0.00     0.218 HD
ENDBRANCH  17  20
BRANCH  18  22
HETATM   22  O11         0      38.426  49.991 -20.998  1.00  0.00    -0.357 OA
HETATM   23  H11         0      38.279  50.085 -20.064  1.00  0.00     0.218 HD
ENDBRANCH  18  22
ENDBRANCH   4  14
BRANCH   8  24
HETATM   24  O17         0      36.444  59.390 -24.186  1.00  0.00    -0.359 OA
HETATM   25  H17         0      36.760  60.285 -24.161  1.00  0.00     0.218 HD
ENDBRANCH   8  24
TORSDOF 5
ENDMDL
MODEL 9
REMARK VINA RESULT:      -6.1      2.239      7.019
REMARK  5 active torsions:
REMARK  status: ('A' for Active; 'I' for Inactive)
REMARK    1  A    between atoms: C4_4  and  C5_5 
REMARK    2  A    between atoms: C8_8  and  O9_9 
REMARK    3  A    between atoms: C10_11  and  O11_12 
REMARK    4  A    between atoms: C16_18  and  O17_19 
REMARK    5  A    between atoms: C19_22  and  O20_23 
ROOT
HETATM    1  O1          0      38.660  50.765 -22.086  1.00  0.00    -0.286 OA
HETATM    2  C2          0      38.002  51.810 -22.346  1.00  0.00     0.201 C 
HETATM    3  C3          0      37.595  52.703 -21.369  1.00  0.00     0.067 C 
HETATM    4  C4          0      36.785  53.791 -21.669  1.00  0.00     0.103 C 
HETATM    5  O13         0      36.416  53.981 -22.924  1.00  0.00    -0.307 OA
HETATM    6  C14         0      36.743  53.143 -23.883  1.00  0.00     0.107 C 
HETATM    7  C15         0      36.052  53.103 -25.086  1.00  0.00     0.049 C 
HETATM    8  C16         0      36.230  52.059 -25.986  1.00  0.00     0.093 C 
HETATM    9  C18         0      37.450  51.400 -25.886  1.00  0.00     0.048 C 
HETATM   10  C19         0      38.189  51.458 -24.713  1.00  0.00     0.096 C 
HETATM   11  C21         0      37.722  52.183 -23.651  1.00  0.00     0.084 C 
ENDROOT
BRANCH  10  12
HETATM   12  O20         0      39.148  50.480 -24.464  1.00  0.00    -0.359 OA
HETATM   13  H20         0      39.360  50.285 -23.559  1.00  0.00     0.218 HD
ENDBRANCH  10  12
BRANCH   4  14
HETATM   14  C5          0      35.930  54.306 -20.598  1.00  0.00     0.025 C 
HETATM   15  C6          0      36.331  55.315 -19.735  1.00  0.00     0.004 C 
HETATM   16  C7          0      35.379  56.256 -19.356  1.00  0.00     0.026 C 
HETATM   17  C8          0      34.041  56.124 -19.713  1.00  0.00     0.112 C 
HETATM   18  C10         0      33.643  54.826 -20.002  1.00  0.00     0.112 C 
HETATM   19  C12         0      34.601  53.928 -20.460  1.00  0.00     0.028 C 
BRANCH  17  20
HETATM   20  O9          0      33.260  57.240 -19.958  1.00  0.00    -0.357 OA
HETATM   21  H9          0      33.226  57.997 -19.385  1.00  0.00     0.218 HD
ENDBRANCH  17  20
BRANCH  18  22
HETATM   22  O11         0      32.284  54.610 -20.178  1.00  0.00    -0.357 OA
HETATM   23  H11         0      31.808  54.243 -19.442  1.00  0.00     0.218 HD
ENDBRANCH  18  22
ENDBRANCH   4  14
BRANCH   8  24
HETATM   24  O17         0      35.152  51.509 -26.687  1.00  0.00    -0.359 OA
HETATM   25  H17         0      34.690  50.741 -26.371  1.00  0.00     0.218 HD
ENDBRANCH   8  24
TORSDOF 5
ENDMDL
