MODEL 1
REMARK VINA RESULT:      -6.0      0.000      0.000
REMARK  5 active torsions:
REMARK  status: ('A' for Active; 'I' for Inactive)
REMARK    1  A    between atoms: C4_4  and  C5_5 
REMARK    2  A    between atoms: C8_8  and  O9_9 
REMARK    3  A    between atoms: C10_11  and  O11_12 
REMARK    4  A    between atoms: C16_18  and  O17_19 
REMARK    5  A    between atoms: C19_22  and  O20_23 
ROOT
HETATM    1  O1          0      60.108  87.208 -22.310  1.00  0.00    -0.286 OA
HETATM    2  C2          0      59.291  87.916 -22.960  1.00  0.00     0.201 C 
HETATM    3  C3          0      58.062  88.302 -22.452  1.00  0.00     0.067 C 
HETATM    4  C4          0      57.138  88.995 -23.227  1.00  0.00     0.103 C 
HETATM    5  O13         0      57.459  89.305 -24.471  1.00  0.00    -0.307 OA
HETATM    6  C14         0      58.596  88.931 -25.014  1.00  0.00     0.107 C 
HETATM    7  C15         0      58.772  88.894 -26.389  1.00  0.00     0.049 C 
HETATM    8  C16         0      59.871  88.263 -26.960  1.00  0.00     0.093 C 
HETATM    9  C18         0      60.985  88.165 -26.135  1.00  0.00     0.048 C 
HETATM   10  C19         0      60.851  88.244 -24.755  1.00  0.00     0.096 C 
HETATM   11  C21         0      59.614  88.438 -24.204  1.00  0.00     0.084 C 
ENDROOT
BRANCH  10  12
HETATM   12  O20         0      61.853  87.723 -23.943  1.00  0.00    -0.359 OA
HETATM   13  H20         0      62.071  86.804 -24.039  1.00  0.00     0.218 HD
ENDBRANCH  10  12
BRANCH   4  14
HETATM   14  C5          0      55.724  88.840 -22.881  1.00  0.00     0.025 C 
HETATM   15  C6          0      55.062  89.702 -22.019  1.00  0.00     0.004 C 
HETATM   16  C7          0      53.746  90.034 -22.325  1.00  0.00     0.026 C 
HETATM   17  C8          0      53.066  89.427 -23.375  1.00  0.00     0.112 C 
HETATM   18  C10         0      53.562  88.184 -23.746  1.00  0.00     0.112 C 
HETATM   19  C12         0      54.903  87.910 -23.505  1.00  0.00     0.028 C 
BRANCH  17  20
HETATM   20  O9          0      52.119  90.125 -24.103  1.00  0.00    -0.357 OA
HETATM   21  H9          0      52.001  91.066 -24.051  1.00  0.00     0.218 HD
ENDBRANCH  17  20
BRANCH  18  22
HETATM   22  O11         0      52.810  87.454 -24.655  1.00  0.00    -0.357 OA
HETATM   23  H11         0      51.956  87.156 -24.366  1.00  0.00     0.218 HD
ENDBRANCH  18  22
ENDBRANCH   4  14
BRANCH   8  24
HETATM   24  O17         0      59.750  87.499 -28.126  1.00  0.00    -0.359 OA
HETATM   25  H17         0      59.659  86.554 -28.096  1.00  0.00     0.218 HD
ENDBRANCH   8  24
TORSDOF 5
ENDMDL
MODEL 2
REMARK VINA RESULT:      -5.3     17.957     18.945
REMARK  5 active torsions:
REMARK  status: ('A' for Active; 'I' for Inactive)
REMARK    1  A    between atoms: C4_4  and  C5_5 
REMARK    2  A    between atoms: C8_8  and  O9_9 
REMARK    3  A    between atoms: C10_11  and  O11_12 
REMARK    4  A    between atoms: C16_18  and  O17_19 
REMARK    5  A    between atoms: C19_22  and  O20_23 
ROOT
HETATM    1  O1          0      57.491  76.184 -37.004  1.00  0.00    -0.286 OA
HETATM    2  C2          0      58.676  75.768 -37.125  1.00  0.00     0.201 C 
HETATM    3  C3          0      59.124  74.596 -36.540  1.00  0.00     0.067 C 
HETATM    4  C4          0      60.459  74.214 -36.604  1.00  0.00     0.103 C 
HETATM    5  O13         0      61.309  74.985 -37.257  1.00  0.00    -0.307 OA
HETATM    6  C14         0      60.944  76.127 -37.798  1.00  0.00     0.107 C 
HETATM    7  C15         0      61.868  77.110 -38.123  1.00  0.00     0.049 C 
HETATM    8  C16         0      61.464  78.399 -38.452  1.00  0.00     0.093 C 
HETATM    9  C18         0      60.169  78.500 -38.946  1.00  0.00     0.048 C 
HETATM   10  C19         0      59.233  77.511 -38.680  1.00  0.00     0.096 C 
HETATM   11  C21         0      59.592  76.418 -37.938  1.00  0.00     0.084 C 
ENDROOT
BRANCH  10  12
HETATM   12  O20         0      57.878  77.809 -38.788  1.00  0.00    -0.359 OA
HETATM   13  H20         0      57.260  77.236 -38.352  1.00  0.00     0.218 HD
ENDBRANCH  10  12
BRANCH   4  14
HETATM   14  C5          0      60.964  73.364 -35.524  1.00  0.00     0.025 C 
HETATM   15  C6          0      62.152  73.625 -34.855  1.00  0.00     0.004 C 
HETATM   16  C7          0      62.187  73.381 -33.486  1.00  0.00     0.026 C 
HETATM   17  C8          0      61.125  72.773 -32.826  1.00  0.00     0.112 C 
HETATM   18  C10         0      60.303  72.002 -33.637  1.00  0.00     0.112 C 
HETATM   19  C12         0      60.221  72.321 -34.987  1.00  0.00     0.028 C 
BRANCH  17  20
HETATM   20  O9          0      60.821  73.103 -31.517  1.00  0.00    -0.357 OA
HETATM   21  H9          0      60.637  73.988 -31.225  1.00  0.00     0.218 HD
ENDBRANCH  17  20
BRANCH  18  22
HETATM   22  O11         0      59.344  71.225 -33.002  1.00  0.00    -0.357 OA
HETATM   23  H11         0      58.481  71.608 -32.896  1.00  0.00     0.218 HD
ENDBRANCH  18  22
ENDBRANCH   4  14
BRANCH   8  24
HETATM   24  O17         0      62.171  79.521 -38.004  1.00  0.00    -0.359 OA
HETATM   25  H17         0      63.067  79.686 -38.273  1.00  0.00     0.218 HD
ENDBRANCH   8  24
TORSDOF 5
ENDMDL
MODEL 3
REMARK VINA RESULT:      -5.2     13.438     15.477
REMARK  5 active torsions:
REMARK  status: ('A' for Active; 'I' for Inactive)
REMARK    1  A    between atoms: C4_4  and  C5_5 
REMARK    2  A    between atoms: C8_8  and  O9_9 
REMARK    3  A    between atoms: C10_11  and  O11_12 
REMARK    4  A    between atoms: C16_18  and  O17_19 
REMARK    5  A    between atoms: C19_22  and  O20_23 
ROOT
HETATM    1  O1          0      53.840  75.802 -20.134  1.00  0.00    -0.286 OA
HETATM    2  C2          0      54.117  75.006 -21.073  1.00  0.00     0.201 C 
HETATM    3  C3          0      55.417  74.675 -21.418  1.00  0.00     0.067 C 
HETATM    4  C4          0      55.697  73.877 -22.521  1.00  0.00     0.103 C 
HETATM    5  O13         0      54.691  73.411 -23.240  1.00  0.00    -0.307 OA
HETATM    6  C14         0      53.441  73.724 -22.978  1.00  0.00     0.107 C 
HETATM    7  C15         0      52.438  73.583 -23.926  1.00  0.00     0.049 C 
HETATM    8  C16         0      51.182  74.147 -23.738  1.00  0.00     0.093 C 
HETATM    9  C18         0      50.830  74.365 -22.412  1.00  0.00     0.048 C 
HETATM   10  C19         0      51.806  74.464 -21.429  1.00  0.00     0.096 C 
HETATM   11  C21         0      53.125  74.331 -21.767  1.00  0.00     0.084 C 
ENDROOT
BRANCH  10  12
HETATM   12  O20         0      51.501  75.099 -20.229  1.00  0.00    -0.359 OA
HETATM   13  H20         0      50.851  74.696 -19.665  1.00  0.00     0.218 HD
ENDBRANCH  10  12
BRANCH   4  14
HETATM   14  C5          0      56.999  74.060 -23.166  1.00  0.00     0.025 C 
HETATM   15  C6          0      57.393  73.335 -24.282  1.00  0.00     0.004 C 
HETATM   16  C7          0      58.125  74.004 -25.259  1.00  0.00     0.026 C 
HETATM   17  C8          0      58.565  75.310 -25.074  1.00  0.00     0.112 C 
HETATM   18  C10         0      58.679  75.701 -23.747  1.00  0.00     0.112 C 
HETATM   19  C12         0      57.874  75.075 -22.802  1.00  0.00     0.028 C 
BRANCH  17  20
HETATM   20  O9          0      58.666  76.182 -26.144  1.00  0.00    -0.357 OA
HETATM   21  H9          0      57.984  76.797 -26.389  1.00  0.00     0.218 HD
ENDBRANCH  17  20
BRANCH  18  22
HETATM   22  O11         0      59.291  76.922 -23.502  1.00  0.00    -0.357 OA
HETATM   23  H11         0      59.796  77.300 -24.213  1.00  0.00     0.218 HD
ENDBRANCH  18  22
ENDBRANCH   4  14
BRANCH   8  24
HETATM   24  O17         0      50.488  74.751 -24.792  1.00  0.00    -0.359 OA
HETATM   25  H17         0      50.572  74.442 -25.687  1.00  0.00     0.218 HD
ENDBRANCH   8  24
TORSDOF 5
ENDMDL
MODEL 4
REMARK VINA RESULT:      -5.2     18.064     18.879
REMARK  5 active torsions:
REMARK  status: ('A' for Active; 'I' for Inactive)
REMARK    1  A    between atoms: C4_4  and  C5_5 
REMARK    2  A    between atoms: C8_8  and  O9_9 
REMARK    3  A    between atoms: C10_11  and  O11_12 
REMARK    4  A    between atoms: C16_18  and  O17_19 
REMARK    5  A    between atoms: C19_22  and  O20_23 
ROOT
HETATM    1  O1          0      59.121  78.061 -38.529  1.00  0.00    -0.286 OA
HETATM    2  C2          0      60.139  77.327 -38.398  1.00  0.00     0.201 C 
HETATM    3  C3          0      60.075  76.040 -37.891  1.00  0.00     0.067 C 
HETATM    4  C4          0      61.223  75.290 -37.662  1.00  0.00     0.103 C 
HETATM    5  O13         0      62.397  75.820 -37.956  1.00  0.00    -0.307 OA
HETATM    6  C14         0      62.516  77.051 -38.404  1.00  0.00     0.107 C 
HETATM    7  C15         0      63.718  77.741 -38.335  1.00  0.00     0.049 C 
HETATM    8  C16         0      63.778  79.109 -38.569  1.00  0.00     0.093 C 
HETATM    9  C18         0      62.755  79.615 -39.362  1.00  0.00     0.048 C 
HETATM   10  C19         0      61.556  78.927 -39.491  1.00  0.00     0.096 C 
HETATM   11  C21         0      61.387  77.732 -38.846  1.00  0.00     0.084 C 
ENDROOT
BRANCH  10  12
HETATM   12  O20         0      60.418  79.614 -39.902  1.00  0.00    -0.359 OA
HETATM   13  H20         0      60.389  79.931 -40.796  1.00  0.00     0.218 HD
ENDBRANCH  10  12
BRANCH   4  14
HETATM   14  C5          0      61.155  74.263 -36.621  1.00  0.00     0.025 C 
HETATM   15  C6          0      62.238  73.929 -35.821  1.00  0.00     0.004 C 
HETATM   16  C7          0      61.988  73.644 -34.483  1.00  0.00     0.026 C 
HETATM   17  C8          0      60.692  73.560 -33.984  1.00  0.00     0.112 C 
HETATM   18  C10         0      59.722  73.280 -34.937  1.00  0.00     0.112 C 
HETATM   19  C12         0      59.962  73.653 -36.254  1.00  0.00     0.028 C 
BRANCH  17  20
HETATM   20  O9          0      60.406  73.942 -32.686  1.00  0.00    -0.357 OA
HETATM   21  H9          0      60.956  73.729 -31.940  1.00  0.00     0.218 HD
ENDBRANCH  17  20
BRANCH  18  22
HETATM   22  O11         0      58.446  72.999 -34.470  1.00  0.00    -0.357 OA
HETATM   23  H11         0      58.290  72.120 -34.146  1.00  0.00     0.218 HD
ENDBRANCH  18  22
ENDBRANCH   4  14
BRANCH   8  24
HETATM   24  O17         0      64.594  79.945 -37.799  1.00  0.00    -0.359 OA
HETATM   25  H17         0      64.645  79.861 -36.854  1.00  0.00     0.218 HD
ENDBRANCH   8  24
TORSDOF 5
ENDMDL
MODEL 5
REMARK VINA RESULT:      -5.2     10.313     11.448
REMARK  5 active torsions:
REMARK  status: ('A' for Active; 'I' for Inactive)
REMARK    1  A    between atoms: C4_4  and  C5_5 
REMARK    2  A    between atoms: C8_8  and  O9_9 
REMARK    3  A    between atoms: C10_11  and  O11_12 
REMARK    4  A    between atoms: C16_18  and  O17_19 
REMARK    5  A    between atoms: C19_22  and  O20_23 
ROOT
HETATM    1  O1          0      55.204  76.296 -21.995  1.00  0.00    -0.286 OA
HETATM    2  C2          0      56.393  76.674 -21.805  1.00  0.00     0.201 C 
HETATM    3  C3          0      56.724  77.706 -20.944  1.00  0.00     0.067 C 
HETATM    4  C4          0      58.030  78.170 -20.830  1.00  0.00     0.103 C 
HETATM    5  O13         0      58.974  77.591 -21.551  1.00  0.00    -0.307 OA
HETATM    6  C14         0      58.708  76.632 -22.411  1.00  0.00     0.107 C 
HETATM    7  C15         0      59.585  76.303 -23.434  1.00  0.00     0.049 C 
HETATM    8  C16         0      59.195  75.477 -24.482  1.00  0.00     0.093 C 
HETATM    9  C18         0      58.148  74.613 -24.189  1.00  0.00     0.048 C 
HETATM   10  C19         0      57.278  74.887 -23.142  1.00  0.00     0.096 C 
HETATM   11  C21         0      57.465  76.009 -22.381  1.00  0.00     0.084 C 
ENDROOT
BRANCH  10  12
HETATM   12  O20         0      56.022  74.290 -23.127  1.00  0.00    -0.359 OA
HETATM   13  H20         0      55.539  74.248 -23.943  1.00  0.00     0.218 HD
ENDBRANCH  10  12
BRANCH   4  14
HETATM   14  C5          0      58.213  79.562 -20.418  1.00  0.00     0.025 C 
HETATM   15  C6          0      59.406  80.249 -20.595  1.00  0.00     0.004 C 
HETATM   16  C7          0      59.330  81.590 -20.959  1.00  0.00     0.026 C 
HETATM   17  C8          0      58.114  82.263 -21.013  1.00  0.00     0.112 C 
HETATM   18  C10         0      57.108  81.707 -20.234  1.00  0.00     0.112 C 
HETATM   19  C12         0      57.163  80.346 -19.957  1.00  0.00     0.028 C 
BRANCH  17  20
HETATM   20  O9          0      57.902  83.268 -21.940  1.00  0.00    -0.357 OA
HETATM   21  H9          0      57.378  83.160 -22.725  1.00  0.00     0.218 HD
ENDBRANCH  17  20
BRANCH  18  22
HETATM   22  O11         0      55.937  82.440 -20.103  1.00  0.00    -0.357 OA
HETATM   23  H11         0      55.447  82.327 -19.297  1.00  0.00     0.218 HD
ENDBRANCH  18  22
ENDBRANCH   4  14
BRANCH   8  24
HETATM   24  O17         0      59.591  75.735 -25.799  1.00  0.00    -0.359 OA
HETATM   25  H17         0      59.066  76.271 -26.382  1.00  0.00     0.218 HD
ENDBRANCH   8  24
TORSDOF 5
ENDMDL
MODEL 6
REMARK VINA RESULT:      -5.2     18.062     19.494
REMARK  5 active torsions:
REMARK  status: ('A' for Active; 'I' for Inactive)
REMARK    1  A    between atoms: C4_4  and  C5_5 
REMARK    2  A    between atoms: C8_8  and  O9_9 
REMARK    3  A    between atoms: C10_11  and  O11_12 
REMARK    4  A    between atoms: C16_18  and  O17_19 
REMARK    5  A    between atoms: C19_22  and  O20_23 
ROOT
HETATM    1  O1          0      56.343  77.000 -39.790  1.00  0.00    -0.286 OA
HETATM    2  C2          0      57.357  76.912 -39.045  1.00  0.00     0.201 C 
HETATM    3  C3          0      58.451  77.752 -39.163  1.00  0.00     0.067 C 
HETATM    4  C4          0      59.597  77.568 -38.399  1.00  0.00     0.103 C 
HETATM    5  O13         0      59.626  76.577 -37.526  1.00  0.00    -0.307 OA
HETATM    6  C14         0      58.630  75.728 -37.400  1.00  0.00     0.107 C 
HETATM    7  C15         0      58.798  74.487 -36.803  1.00  0.00     0.049 C 
HETATM    8  C16         0      57.823  73.501 -36.899  1.00  0.00     0.093 C 
HETATM    9  C18         0      56.535  73.971 -37.125  1.00  0.00     0.048 C 
HETATM   10  C19         0      56.329  75.228 -37.677  1.00  0.00     0.096 C 
HETATM   11  C21         0      57.402  76.018 -37.986  1.00  0.00     0.084 C 
ENDROOT
BRANCH  10  12
HETATM   12  O20         0      55.113  75.510 -38.292  1.00  0.00    -0.359 OA
HETATM   13  H20         0      54.840  76.418 -38.343  1.00  0.00     0.218 HD
ENDBRANCH  10  12
BRANCH   4  14
HETATM   14  C5          0      60.861  78.050 -38.960  1.00  0.00     0.025 C 
HETATM   15  C6          0      60.926  78.842 -40.097  1.00  0.00     0.004 C 
HETATM   16  C7          0      61.876  79.858 -40.121  1.00  0.00     0.026 C 
HETATM   17  C8          0      62.819  79.999 -39.109  1.00  0.00     0.112 C 
HETATM   18  C10         0      63.076  78.839 -38.391  1.00  0.00     0.112 C 
HETATM   19  C12         0      62.077  77.877 -38.312  1.00  0.00     0.028 C 
BRANCH  17  20
HETATM   20  O9          0      63.281  81.250 -38.740  1.00  0.00    -0.357 OA
HETATM   21  H9          0      64.124  81.401 -38.328  1.00  0.00     0.218 HD
ENDBRANCH  17  20
BRANCH  18  22
HETATM   22  O11         0      64.140  78.875 -37.500  1.00  0.00    -0.357 OA
HETATM   23  H11         0      64.191  78.171 -36.863  1.00  0.00     0.218 HD
ENDBRANCH  18  22
ENDBRANCH   4  14
BRANCH   8  24
HETATM   24  O17         0      58.160  72.157 -37.092  1.00  0.00    -0.359 OA
HETATM   25  H17         0      57.614  71.453 -36.764  1.00  0.00     0.218 HD
ENDBRANCH   8  24
TORSDOF 5
ENDMDL
MODEL 7
REMARK VINA RESULT:      -5.1      2.128      2.952
REMARK  5 active torsions:
REMARK  status: ('A' for Active; 'I' for Inactive)
REMARK    1  A    between atoms: C4_4  and  C5_5 
REMARK    2  A    between atoms: C8_8  and  O9_9 
REMARK    3  A    between atoms: C10_11  and  O11_12 
REMARK    4  A    between atoms: C16_18  and  O17_19 
REMARK    5  A    between atoms: C19_22  and  O20_23 
ROOT
HETATM    1  O1          0      61.592  85.511 -23.473  1.00  0.00    -0.286 OA
HETATM    2  C2          0      61.152  86.659 -23.758  1.00  0.00     0.201 C 
HETATM    3  C3          0      60.119  87.261 -23.060  1.00  0.00     0.067 C 
HETATM    4  C4          0      59.585  88.481 -23.459  1.00  0.00     0.103 C 
HETATM    5  O13         0      60.096  89.082 -24.519  1.00  0.00    -0.307 OA
HETATM    6  C14         0      61.052  88.537 -25.239  1.00  0.00     0.107 C 
HETATM    7  C15         0      61.311  88.945 -26.539  1.00  0.00     0.049 C 
HETATM    8  C16         0      62.137  88.205 -27.376  1.00  0.00     0.093 C 
HETATM    9  C18         0      63.065  87.402 -26.725  1.00  0.00     0.048 C 
HETATM   10  C19         0      62.860  87.013 -25.408  1.00  0.00     0.096 C 
HETATM   11  C21         0      61.744  87.438 -24.740  1.00  0.00     0.084 C 
ENDROOT
BRANCH  10  12
HETATM   12  O20         0      63.528  85.895 -24.917  1.00  0.00    -0.359 OA
HETATM   13  H20         0      63.632  85.817 -23.976  1.00  0.00     0.218 HD
ENDBRANCH  10  12
BRANCH   4  14
HETATM   14  C5          0      58.192  88.752 -23.098  1.00  0.00     0.025 C 
HETATM   15  C6          0      57.227  89.098 -24.033  1.00  0.00     0.004 C 
HETATM   16  C7          0      55.947  88.579 -23.861  1.00  0.00     0.026 C 
HETATM   17  C8          0      55.602  87.852 -22.727  1.00  0.00     0.112 C 
HETATM   18  C10         0      56.395  88.100 -21.615  1.00  0.00     0.112 C 
HETATM   19  C12         0      57.699  88.536 -21.818  1.00  0.00     0.028 C 
BRANCH  17  20
HETATM   20  O9          0      54.680  86.823 -22.799  1.00  0.00    -0.357 OA
HETATM   21  H9          0      54.913  85.915 -22.960  1.00  0.00     0.218 HD
ENDBRANCH  17  20
BRANCH  18  22
HETATM   22  O11         0      55.981  87.547 -20.412  1.00  0.00    -0.357 OA
HETATM   23  H11         0      55.806  88.150 -19.699  1.00  0.00     0.218 HD
ENDBRANCH  18  22
ENDBRANCH   4  14
BRANCH   8  24
HETATM   24  O17         0      61.833  88.029 -28.731  1.00  0.00    -0.359 OA
HETATM   25  H17         0      62.307  87.408 -29.272  1.00  0.00     0.218 HD
ENDBRANCH   8  24
TORSDOF 5
ENDMDL
MODEL 8
REMARK VINA RESULT:      -5.1     13.261     14.248
REMARK  5 active torsions:
REMARK  status: ('A' for Active; 'I' for Inactive)
REMARK    1  A    between atoms: C4_4  and  C5_5 
REMARK    2  A    between atoms: C8_8  and  O9_9 
REMARK    3  A    between atoms: C10_11  and  O11_12 
REMARK    4  A    between atoms: C16_18  and  O17_19 
REMARK    5  A    between atoms: C19_22  and  O20_23 
ROOT
HETATM    1  O1          0      58.288  74.420 -25.387  1.00  0.00    -0.286 OA
HETATM    2  C2          0      57.680  74.393 -24.282  1.00  0.00     0.201 C 
HETATM    3  C3          0      56.532  73.648 -24.075  1.00  0.00     0.067 C 
HETATM    4  C4          0      55.824  73.716 -22.880  1.00  0.00     0.103 C 
HETATM    5  O13         0      56.278  74.499 -21.918  1.00  0.00    -0.307 OA
HETATM    6  C14         0      57.342  75.256 -22.076  1.00  0.00     0.107 C 
HETATM    7  C15         0      57.590  76.349 -21.257  1.00  0.00     0.049 C 
HETATM    8  C16         0      58.563  77.287 -21.580  1.00  0.00     0.093 C 
HETATM    9  C18         0      59.579  76.818 -22.404  1.00  0.00     0.048 C 
HETATM   10  C19         0      59.380  75.700 -23.202  1.00  0.00     0.096 C 
HETATM   11  C21         0      58.181  75.042 -23.164  1.00  0.00     0.084 C 
ENDROOT
BRANCH  10  12
HETATM   12  O20         0      60.198  75.500 -24.310  1.00  0.00    -0.359 OA
HETATM   13  H20         0      59.872  74.950 -25.012  1.00  0.00     0.218 HD
ENDBRANCH  10  12
BRANCH   4  14
HETATM   14  C5          0      54.391  73.422 -22.933  1.00  0.00     0.025 C 
HETATM   15  C6          0      53.464  74.053 -22.117  1.00  0.00     0.004 C 
HETATM   16  C7          0      52.230  74.375 -22.672  1.00  0.00     0.026 C 
HETATM   17  C8          0      51.877  73.965 -23.954  1.00  0.00     0.112 C 
HETATM   18  C10         0      52.567  72.852 -24.417  1.00  0.00     0.112 C 
HETATM   19  C12         0      53.835  72.602 -23.906  1.00  0.00     0.028 C 
BRANCH  17  20
HETATM   20  O9          0      51.062  74.750 -24.750  1.00  0.00    -0.357 OA
HETATM   21  H9          0      50.161  74.961 -24.537  1.00  0.00     0.218 HD
ENDBRANCH  17  20
BRANCH  18  22
HETATM   22  O11         0      52.125  72.289 -25.605  1.00  0.00    -0.357 OA
HETATM   23  H11         0      52.232  71.350 -25.702  1.00  0.00     0.218 HD
ENDBRANCH  18  22
ENDBRANCH   4  14
BRANCH   8  24
HETATM   24  O17         0      58.354  78.655 -21.375  1.00  0.00    -0.359 OA
HETATM   25  H17         0      58.134  79.003 -20.519  1.00  0.00     0.218 HD
ENDBRANCH   8  24
TORSDOF 5
ENDMDL
MODEL 9
REMARK VINA RESULT:      -4.9      2.394      4.360
REMARK  5 active torsions:
REMARK  status: ('A' for Active; 'I' for Inactive)
REMARK    1  A    between atoms: C4_4  and  C5_5 
REMARK    2  A    between atoms: C8_8  and  O9_9 
REMARK    3  A    between atoms: C10_11  and  O11_12 
REMARK    4  A    between atoms: C16_18  and  O17_19 
REMARK    5  A    between atoms: C19_22  and  O20_23 
ROOT
HETATM    1  O1          0      61.869  90.124 -27.302  1.00  0.00    -0.286 OA
HETATM    2  C2          0      61.317  89.159 -26.705  1.00  0.00     0.201 C 
HETATM    3  C3          0      60.078  89.264 -26.097  1.00  0.00     0.067 C 
HETATM    4  C4          0      59.539  88.217 -25.358  1.00  0.00     0.103 C 
HETATM    5  O13         0      60.224  87.092 -25.257  1.00  0.00    -0.307 OA
HETATM    6  C14         0      61.421  86.953 -25.783  1.00  0.00     0.107 C 
HETATM    7  C15         0      62.296  85.963 -25.359  1.00  0.00     0.049 C 
HETATM    8  C16         0      63.636  85.977 -25.729  1.00  0.00     0.093 C 
HETATM    9  C18         0      63.912  86.662 -26.906  1.00  0.00     0.048 C 
HETATM   10  C19         0      63.035  87.626 -27.384  1.00  0.00     0.096 C 
HETATM   11  C21         0      61.881  87.892 -26.700  1.00  0.00     0.084 C 
ENDROOT
BRANCH  10  12
HETATM   12  O20         0      63.501  88.586 -28.278  1.00  0.00    -0.359 OA
HETATM   13  H20         0      64.290  88.392 -28.768  1.00  0.00     0.218 HD
ENDBRANCH  10  12
BRANCH   4  14
HETATM   14  C5          0      58.594  88.565 -24.294  1.00  0.00     0.025 C 
HETATM   15  C6          0      57.341  89.102 -24.548  1.00  0.00     0.004 C 
HETATM   16  C7          0      56.285  88.681 -23.746  1.00  0.00     0.026 C 
HETATM   17  C8          0      56.489  87.858 -22.644  1.00  0.00     0.112 C 
HETATM   18  C10         0      57.772  87.902 -22.117  1.00  0.00     0.112 C 
HETATM   19  C12         0      58.822  88.243 -22.962  1.00  0.00     0.028 C 
BRANCH  17  20
HETATM   20  O9          0      55.535  86.930 -22.267  1.00  0.00    -0.357 OA
HETATM   21  H9          0      54.599  87.061 -22.372  1.00  0.00     0.218 HD
ENDBRANCH  17  20
BRANCH  18  22
HETATM   22  O11         0      57.979  87.249 -20.910  1.00  0.00    -0.357 OA
HETATM   23  H11         0      57.255  86.738 -20.568  1.00  0.00     0.218 HD
ENDBRANCH  18  22
ENDBRANCH   4  14
BRANCH   8  24
HETATM   24  O17         0      64.646  85.630 -24.825  1.00  0.00    -0.359 OA
HETATM   25  H17         0      64.458  85.454 -23.910  1.00  0.00     0.218 HD
ENDBRANCH   8  24
TORSDOF 5
ENDMDL
