MODEL 1
REMARK VINA RESULT:      -6.4      0.000      0.000
REMARK  5 active torsions:
REMARK  status: ('A' for Active; 'I' for Inactive)
REMARK    1  A    between atoms: C4_4  and  C5_5 
REMARK    2  A    between atoms: C8_8  and  O9_9 
REMARK    3  A    between atoms: C10_11  and  O11_12 
REMARK    4  A    between atoms: C16_18  and  O17_19 
REMARK    5  A    between atoms: C19_22  and  O20_23 
ROOT
HETATM    1  O1          0      19.395  81.872 -26.093  1.00  0.00    -0.286 OA
HETATM    2  C2          0      19.164  83.056 -26.462  1.00  0.00     0.201 C 
HETATM    3  C3          0      19.654  83.583 -27.645  1.00  0.00     0.067 C 
HETATM    4  C4          0      19.471  84.920 -27.978  1.00  0.00     0.103 C 
HETATM    5  O13         0      18.794  85.694 -27.148  1.00  0.00    -0.307 OA
HETATM    6  C14         0      18.340  85.254 -25.995  1.00  0.00     0.107 C 
HETATM    7  C15         0      17.996  86.119 -24.967  1.00  0.00     0.049 C 
HETATM    8  C16         0      17.763  85.653 -23.678  1.00  0.00     0.093 C 
HETATM    9  C18         0      17.373  84.321 -23.598  1.00  0.00     0.048 C 
HETATM   10  C19         0      17.660  83.439 -24.630  1.00  0.00     0.096 C 
HETATM   11  C21         0      18.317  83.887 -25.744  1.00  0.00     0.084 C 
ENDROOT
BRANCH  10  12
HETATM   12  O20         0      17.669  82.071 -24.373  1.00  0.00    -0.359 OA
HETATM   13  H20         0      16.834  81.621 -24.328  1.00  0.00     0.218 HD
ENDBRANCH  10  12
BRANCH   4  14
HETATM   14  C5          0      20.466  85.533 -28.860  1.00  0.00     0.025 C 
HETATM   15  C6          0      21.478  84.807 -29.472  1.00  0.00     0.004 C 
HETATM   16  C7          0      21.822  85.153 -30.774  1.00  0.00     0.026 C 
HETATM   17  C8          0      21.276  86.267 -31.402  1.00  0.00     0.112 C 
HETATM   18  C10         0      20.801  87.244 -30.537  1.00  0.00     0.112 C 
HETATM   19  C12         0      20.383  86.858 -29.269  1.00  0.00     0.028 C 
BRANCH  17  20
HETATM   20  O9          0      21.048  86.272 -32.766  1.00  0.00    -0.357 OA
HETATM   21  H9          0      21.727  86.125 -33.415  1.00  0.00     0.218 HD
ENDBRANCH  17  20
BRANCH  18  22
HETATM   22  O11         0      20.420  88.453 -31.103  1.00  0.00    -0.357 OA
HETATM   23  H11         0      19.998  88.416 -31.953  1.00  0.00     0.218 HD
ENDBRANCH  18  22
ENDBRANCH   4  14
BRANCH   8  24
HETATM   24  O17         0      18.211  86.358 -22.556  1.00  0.00    -0.359 OA
HETATM   25  H17         0      17.694  87.051 -22.163  1.00  0.00     0.218 HD
ENDBRANCH   8  24
TORSDOF 5
ENDMDL
MODEL 2
REMARK VINA RESULT:      -6.2      1.422      2.946
REMARK  5 active torsions:
REMARK  status: ('A' for Active; 'I' for Inactive)
REMARK    1  A    between atoms: C4_4  and  C5_5 
REMARK    2  A    between atoms: C8_8  and  O9_9 
REMARK    3  A    between atoms: C10_11  and  O11_12 
REMARK    4  A    between atoms: C16_18  and  O17_19 
REMARK    5  A    between atoms: C19_22  and  O20_23 
ROOT
HETATM    1  O1          0      19.005  87.540 -24.839  1.00  0.00    -0.286 OA
HETATM    2  C2          0      19.312  86.561 -25.572  1.00  0.00     0.201 C 
HETATM    3  C3          0      19.986  86.706 -26.773  1.00  0.00     0.067 C 
HETATM    4  C4          0      20.222  85.622 -27.611  1.00  0.00     0.103 C 
HETATM    5  O13         0      19.807  84.425 -27.233  1.00  0.00    -0.307 OA
HETATM    6  C14         0      19.131  84.239 -26.121  1.00  0.00     0.107 C 
HETATM    7  C15         0      18.362  83.103 -25.915  1.00  0.00     0.049 C 
HETATM    8  C16         0      17.456  83.025 -24.864  1.00  0.00     0.093 C 
HETATM    9  C18         0      17.738  83.853 -23.784  1.00  0.00     0.048 C 
HETATM   10  C19         0      18.542  84.973 -23.945  1.00  0.00     0.096 C 
HETATM   11  C21         0      19.076  85.255 -25.173  1.00  0.00     0.084 C 
ENDROOT
BRANCH  10  12
HETATM   12  O20         0      18.466  86.004 -23.014  1.00  0.00    -0.359 OA
HETATM   13  H20         0      17.659  86.102 -22.523  1.00  0.00     0.218 HD
ENDBRANCH  10  12
BRANCH   4  14
HETATM   14  C5          0      20.364  85.899 -29.041  1.00  0.00     0.025 C 
HETATM   15  C6          0      20.179  87.163 -29.584  1.00  0.00     0.004 C 
HETATM   16  C7          0      21.028  87.551 -30.616  1.00  0.00     0.026 C 
HETATM   17  C8          0      21.941  86.668 -31.181  1.00  0.00     0.112 C 
HETATM   18  C10         0      21.620  85.326 -31.028  1.00  0.00     0.112 C 
HETATM   19  C12         0      20.840  84.953 -29.940  1.00  0.00     0.028 C 
BRANCH  17  20
HETATM   20  O9          0      23.160  87.117 -31.658  1.00  0.00    -0.357 OA
HETATM   21  H9          0      23.329  87.313 -32.572  1.00  0.00     0.218 HD
ENDBRANCH  17  20
BRANCH  18  22
HETATM   22  O11         0      22.391  84.411 -31.731  1.00  0.00    -0.357 OA
HETATM   23  H11         0      22.164  83.493 -31.635  1.00  0.00     0.218 HD
ENDBRANCH  18  22
ENDBRANCH   4  14
BRANCH   8  24
HETATM   24  O17         0      16.201  82.428 -25.025  1.00  0.00    -0.359 OA
HETATM   25  H17         0      15.852  81.818 -24.386  1.00  0.00     0.218 HD
ENDBRANCH   8  24
TORSDOF 5
ENDMDL
MODEL 3
REMARK VINA RESULT:      -6.2      3.744      8.141
REMARK  5 active torsions:
REMARK  status: ('A' for Active; 'I' for Inactive)
REMARK    1  A    between atoms: C4_4  and  C5_5 
REMARK    2  A    between atoms: C8_8  and  O9_9 
REMARK    3  A    between atoms: C10_11  and  O11_12 
REMARK    4  A    between atoms: C16_18  and  O17_19 
REMARK    5  A    between atoms: C19_22  and  O20_23 
ROOT
HETATM    1  O1          0      18.070  86.316 -22.887  1.00  0.00    -0.286 OA
HETATM    2  C2          0      17.298  85.765 -23.720  1.00  0.00     0.201 C 
HETATM    3  C3          0      15.919  85.795 -23.598  1.00  0.00     0.067 C 
HETATM    4  C4          0      15.096  85.093 -24.472  1.00  0.00     0.103 C 
HETATM    5  O13         0      15.652  84.401 -25.451  1.00  0.00    -0.307 OA
HETATM    6  C14         0      16.956  84.309 -25.588  1.00  0.00     0.107 C 
HETATM    7  C15         0      17.543  83.296 -26.333  1.00  0.00     0.049 C 
HETATM    8  C16         0      18.910  83.052 -26.268  1.00  0.00     0.093 C 
HETATM    9  C18         0      19.683  84.141 -25.884  1.00  0.00     0.048 C 
HETATM   10  C19         0      19.117  85.194 -25.178  1.00  0.00     0.096 C 
HETATM   11  C21         0      17.784  85.168 -24.873  1.00  0.00     0.084 C 
ENDROOT
BRANCH  10  12
HETATM   12  O20         0      19.940  86.035 -24.436  1.00  0.00    -0.359 OA
HETATM   13  H20         0      19.720  86.182 -23.524  1.00  0.00     0.218 HD
ENDBRANCH  10  12
BRANCH   4  14
HETATM   14  C5          0      13.787  84.674 -23.968  1.00  0.00     0.025 C 
HETATM   15  C6          0      13.397  83.344 -23.902  1.00  0.00     0.004 C 
HETATM   16  C7          0      12.648  82.946 -22.800  1.00  0.00     0.026 C 
HETATM   17  C8          0      12.186  83.862 -21.861  1.00  0.00     0.112 C 
HETATM   18  C10         0      12.076  85.165 -22.329  1.00  0.00     0.112 C 
HETATM   19  C12         0      12.897  85.563 -23.377  1.00  0.00     0.028 C 
BRANCH  17  20
HETATM   20  O9          0      12.064  83.512 -20.529  1.00  0.00    -0.357 OA
HETATM   21  H9          0      11.276  83.651 -20.016  1.00  0.00     0.218 HD
ENDBRANCH  17  20
BRANCH  18  22
HETATM   22  O11         0      11.445  86.080 -21.497  1.00  0.00    -0.357 OA
HETATM   23  H11         0      10.510  86.197 -21.618  1.00  0.00     0.218 HD
ENDBRANCH  18  22
ENDBRANCH   4  14
BRANCH   8  24
HETATM   24  O17         0      19.418  81.748 -26.257  1.00  0.00    -0.359 OA
HETATM   25  H17         0      18.851  80.993 -26.153  1.00  0.00     0.218 HD
ENDBRANCH   8  24
TORSDOF 5
ENDMDL
MODEL 4
REMARK VINA RESULT:      -6.0      1.806      2.266
REMARK  5 active torsions:
REMARK  status: ('A' for Active; 'I' for Inactive)
REMARK    1  A    between atoms: C4_4  and  C5_5 
REMARK    2  A    between atoms: C8_8  and  O9_9 
REMARK    3  A    between atoms: C10_11  and  O11_12 
REMARK    4  A    between atoms: C16_18  and  O17_19 
REMARK    5  A    between atoms: C19_22  and  O20_23 
ROOT
HETATM    1  O1          0      18.776  82.492 -26.912  1.00  0.00    -0.286 OA
HETATM    2  C2          0      18.922  83.690 -27.280  1.00  0.00     0.201 C 
HETATM    3  C3          0      19.007  84.060 -28.611  1.00  0.00     0.067 C 
HETATM    4  C4          0      19.271  85.372 -28.987  1.00  0.00     0.103 C 
HETATM    5  O13         0      19.423  86.285 -28.043  1.00  0.00    -0.307 OA
HETATM    6  C14         0      19.389  85.980 -26.764  1.00  0.00     0.107 C 
HETATM    7  C15         0      19.931  86.816 -25.799  1.00  0.00     0.049 C 
HETATM    8  C16         0      20.122  86.381 -24.493  1.00  0.00     0.093 C 
HETATM    9  C18         0      19.293  85.339 -24.094  1.00  0.00     0.048 C 
HETATM   10  C19         0      18.697  84.512 -25.036  1.00  0.00     0.096 C 
HETATM   11  C21         0      18.913  84.734 -26.368  1.00  0.00     0.084 C 
ENDROOT
BRANCH  10  12
HETATM   12  O20         0      18.249  83.252 -24.649  1.00  0.00    -0.359 OA
HETATM   13  H20         0      17.768  82.736 -25.284  1.00  0.00     0.218 HD
ENDBRANCH  10  12
BRANCH   4  14
HETATM   14  C5          0      19.926  85.580 -30.280  1.00  0.00     0.025 C 
HETATM   15  C6          0      21.179  86.164 -30.403  1.00  0.00     0.004 C 
HETATM   16  C7          0      22.038  85.649 -31.368  1.00  0.00     0.026 C 
HETATM   17  C8          0      21.622  84.677 -32.271  1.00  0.00     0.112 C 
HETATM   18  C10         0      20.250  84.631 -32.481  1.00  0.00     0.112 C 
HETATM   19  C12         0      19.411  85.073 -31.465  1.00  0.00     0.028 C 
BRANCH  17  20
HETATM   20  O9          0      22.503  83.718 -32.736  1.00  0.00    -0.357 OA
HETATM   21  H9          0      23.412  83.660 -32.465  1.00  0.00     0.218 HD
ENDBRANCH  17  20
BRANCH  18  22
HETATM   22  O11         0      19.799  83.813 -33.508  1.00  0.00    -0.357 OA
HETATM   23  H11         0      19.287  84.226 -34.193  1.00  0.00     0.218 HD
ENDBRANCH  18  22
ENDBRANCH   4  14
BRANCH   8  24
HETATM   24  O17         0      21.268  86.729 -23.769  1.00  0.00    -0.359 OA
HETATM   25  H17         0      21.298  87.508 -23.226  1.00  0.00     0.218 HD
ENDBRANCH   8  24
TORSDOF 5
ENDMDL
MODEL 5
REMARK VINA RESULT:      -5.8      1.755      3.379
REMARK  5 active torsions:
REMARK  status: ('A' for Active; 'I' for Inactive)
REMARK    1  A    between atoms: C4_4  and  C5_5 
REMARK    2  A    between atoms: C8_8  and  O9_9 
REMARK    3  A    between atoms: C10_11  and  O11_12 
REMARK    4  A    between atoms: C16_18  and  O17_19 
REMARK    5  A    between atoms: C19_22  and  O20_23 
ROOT
HETATM    1  O1          0      18.437  87.637 -26.601  1.00  0.00    -0.286 OA
HETATM    2  C2          0      19.154  86.733 -27.112  1.00  0.00     0.201 C 
HETATM    3  C3          0      19.969  86.953 -28.209  1.00  0.00     0.067 C 
HETATM    4  C4          0      20.670  85.917 -28.815  1.00  0.00     0.103 C 
HETATM    5  O13         0      20.565  84.699 -28.311  1.00  0.00    -0.307 OA
HETATM    6  C14         0      19.776  84.429 -27.295  1.00  0.00     0.107 C 
HETATM    7  C15         0      19.354  83.137 -27.020  1.00  0.00     0.049 C 
HETATM    8  C16         0      18.330  82.889 -26.114  1.00  0.00     0.093 C 
HETATM    9  C18         0      18.143  83.877 -25.154  1.00  0.00     0.048 C 
HETATM   10  C19         0      18.595  85.170 -25.377  1.00  0.00     0.096 C 
HETATM   11  C21         0      19.244  85.472 -26.543  1.00  0.00     0.084 C 
ENDROOT
BRANCH  10  12
HETATM   12  O20         0      18.042  86.219 -24.648  1.00  0.00    -0.359 OA
HETATM   13  H20         0      17.335  86.018 -24.046  1.00  0.00     0.218 HD
ENDBRANCH  10  12
BRANCH   4  14
HETATM   14  C5          0      20.992  86.066 -30.235  1.00  0.00     0.025 C 
HETATM   15  C6          0      21.441  87.259 -30.783  1.00  0.00     0.004 C 
HETATM   16  C7          0      22.421  87.188 -31.768  1.00  0.00     0.026 C 
HETATM   17  C8          0      22.844  85.970 -32.288  1.00  0.00     0.112 C 
HETATM   18  C10         0      21.930  84.933 -32.156  1.00  0.00     0.112 C 
HETATM   19  C12         0      21.016  84.988 -31.111  1.00  0.00     0.028 C 
BRANCH  17  20
HETATM   20  O9          0      24.153  85.791 -32.700  1.00  0.00    -0.357 OA
HETATM   21  H9          0      24.558  86.289 -33.401  1.00  0.00     0.218 HD
ENDBRANCH  17  20
BRANCH  18  22
HETATM   22  O11         0      22.220  83.751 -32.822  1.00  0.00    -0.357 OA
HETATM   23  H11         0      22.950  83.767 -33.430  1.00  0.00     0.218 HD
ENDBRANCH  18  22
ENDBRANCH   4  14
BRANCH   8  24
HETATM   24  O17         0      17.362  81.907 -26.357  1.00  0.00    -0.359 OA
HETATM   25  H17         0      17.585  80.985 -26.392  1.00  0.00     0.218 HD
ENDBRANCH   8  24
TORSDOF 5
ENDMDL
MODEL 6
REMARK VINA RESULT:      -5.7      1.767      6.871
REMARK  5 active torsions:
REMARK  status: ('A' for Active; 'I' for Inactive)
REMARK    1  A    between atoms: C4_4  and  C5_5 
REMARK    2  A    between atoms: C8_8  and  O9_9 
REMARK    3  A    between atoms: C10_11  and  O11_12 
REMARK    4  A    between atoms: C16_18  and  O17_19 
REMARK    5  A    between atoms: C19_22  and  O20_23 
ROOT
HETATM    1  O1          0      17.546  86.683 -30.088  1.00  0.00    -0.286 OA
HETATM    2  C2          0      18.467  85.942 -29.647  1.00  0.00     0.201 C 
HETATM    3  C3          0      18.467  85.430 -28.360  1.00  0.00     0.067 C 
HETATM    4  C4          0      19.544  84.702 -27.866  1.00  0.00     0.103 C 
HETATM    5  O13         0      20.578  84.481 -28.659  1.00  0.00    -0.307 OA
HETATM    6  C14         0      20.645  84.976 -29.875  1.00  0.00     0.107 C 
HETATM    7  C15         0      21.851  85.095 -30.551  1.00  0.00     0.049 C 
HETATM    8  C16         0      21.954  85.844 -31.717  1.00  0.00     0.093 C 
HETATM    9  C18         0      20.767  85.993 -32.425  1.00  0.00     0.048 C 
HETATM   10  C19         0      19.542  85.835 -31.791  1.00  0.00     0.096 C 
HETATM   11  C21         0      19.503  85.512 -30.462  1.00  0.00     0.084 C 
ENDROOT
BRANCH  10  12
HETATM   12  O20         0      18.404  86.397 -32.359  1.00  0.00    -0.359 OA
HETATM   13  H20         0      18.506  87.195 -32.864  1.00  0.00     0.218 HD
ENDBRANCH  10  12
BRANCH   4  14
HETATM   14  C5          0      19.757  84.721 -26.418  1.00  0.00     0.025 C 
HETATM   15  C6          0      20.521  85.689 -25.783  1.00  0.00     0.004 C 
HETATM   16  C7          0      20.079  86.151 -24.548  1.00  0.00     0.026 C 
HETATM   17  C8          0      18.989  85.577 -23.901  1.00  0.00     0.112 C 
HETATM   18  C10         0      18.710  84.272 -24.283  1.00  0.00     0.112 C 
HETATM   19  C12         0      19.088  83.861 -25.556  1.00  0.00     0.028 C 
BRANCH  17  20
HETATM   20  O9          0      18.150  86.342 -23.112  1.00  0.00    -0.357 OA
HETATM   21  H9          0      17.690  86.007 -22.351  1.00  0.00     0.218 HD
ENDBRANCH  17  20
BRANCH  18  22
HETATM   22  O11         0      17.758  83.589 -23.540  1.00  0.00    -0.357 OA
HETATM   23  H11         0      16.905  83.469 -23.941  1.00  0.00     0.218 HD
ENDBRANCH  18  22
ENDBRANCH   4  14
BRANCH   8  24
HETATM   24  O17         0      23.068  86.651 -31.969  1.00  0.00    -0.359 OA
HETATM   25  H17         0      23.543  86.604 -32.791  1.00  0.00     0.218 HD
ENDBRANCH   8  24
TORSDOF 5
ENDMDL
MODEL 7
REMARK VINA RESULT:      -5.6      3.241      6.994
REMARK  5 active torsions:
REMARK  status: ('A' for Active; 'I' for Inactive)
REMARK    1  A    between atoms: C4_4  and  C5_5 
REMARK    2  A    between atoms: C8_8  and  O9_9 
REMARK    3  A    between atoms: C10_11  and  O11_12 
REMARK    4  A    between atoms: C16_18  and  O17_19 
REMARK    5  A    between atoms: C19_22  and  O20_23 
ROOT
HETATM    1  O1          0      17.997  82.895 -27.707  1.00  0.00    -0.286 OA
HETATM    2  C2          0      17.851  83.274 -26.512  1.00  0.00     0.201 C 
HETATM    3  C3          0      16.721  82.984 -25.766  1.00  0.00     0.067 C 
HETATM    4  C4          0      16.541  83.501 -24.488  1.00  0.00     0.103 C 
HETATM    5  O13         0      17.485  84.270 -23.974  1.00  0.00    -0.307 OA
HETATM    6  C14         0      18.559  84.606 -24.654  1.00  0.00     0.107 C 
HETATM    7  C15         0      19.335  85.700 -24.300  1.00  0.00     0.049 C 
HETATM    8  C16         0      20.309  86.202 -25.155  1.00  0.00     0.093 C 
HETATM    9  C18         0      20.812  85.287 -26.073  1.00  0.00     0.048 C 
HETATM   10  C19         0      20.081  84.157 -26.415  1.00  0.00     0.096 C 
HETATM   11  C21         0      18.864  83.933 -25.833  1.00  0.00     0.084 C 
ENDROOT
BRANCH  10  12
HETATM   12  O20         0      20.364  83.501 -27.609  1.00  0.00    -0.359 OA
HETATM   13  H20         0      19.724  83.554 -28.309  1.00  0.00     0.218 HD
ENDBRANCH  10  12
BRANCH   4  14
HETATM   14  C5          0      15.163  83.671 -24.023  1.00  0.00     0.025 C 
HETATM   15  C6          0      14.598  84.915 -23.784  1.00  0.00     0.004 C 
HETATM   16  C7          0      13.265  85.097 -24.138  1.00  0.00     0.026 C 
HETATM   17  C8          0      12.479  84.041 -24.589  1.00  0.00     0.112 C 
HETATM   18  C10         0      12.918  82.783 -24.197  1.00  0.00     0.112 C 
HETATM   19  C12         0      14.272  82.609 -23.931  1.00  0.00     0.028 C 
BRANCH  17  20
HETATM   20  O9          0      11.480  84.249 -25.522  1.00  0.00    -0.357 OA
HETATM   21  H9          0      10.615  84.577 -25.305  1.00  0.00     0.218 HD
ENDBRANCH  17  20
BRANCH  18  22
HETATM   22  O11         0      12.074  81.714 -24.456  1.00  0.00    -0.357 OA
HETATM   23  H11         0      11.301  81.893 -24.980  1.00  0.00     0.218 HD
ENDBRANCH  18  22
ENDBRANCH   4  14
BRANCH   8  24
HETATM   24  O17         0      20.511  87.578 -25.302  1.00  0.00    -0.359 OA
HETATM   25  H17         0      20.573  88.157 -24.551  1.00  0.00     0.218 HD
ENDBRANCH   8  24
TORSDOF 5
ENDMDL
MODEL 8
REMARK VINA RESULT:      -5.6      3.771      7.886
REMARK  5 active torsions:
REMARK  status: ('A' for Active; 'I' for Inactive)
REMARK    1  A    between atoms: C4_4  and  C5_5 
REMARK    2  A    between atoms: C8_8  and  O9_9 
REMARK    3  A    between atoms: C10_11  and  O11_12 
REMARK    4  A    between atoms: C16_18  and  O17_19 
REMARK    5  A    between atoms: C19_22  and  O20_23 
ROOT
HETATM    1  O1          0      16.760  83.789 -28.097  1.00  0.00    -0.286 OA
HETATM    2  C2          0      16.582  83.639 -26.857  1.00  0.00     0.201 C 
HETATM    3  C3          0      15.370  83.245 -26.316  1.00  0.00     0.067 C 
HETATM    4  C4          0      15.171  83.187 -24.941  1.00  0.00     0.103 C 
HETATM    5  O13         0      16.175  83.497 -24.140  1.00  0.00    -0.307 OA
HETATM    6  C14         0      17.334  83.912 -24.602  1.00  0.00     0.107 C 
HETATM    7  C15         0      18.233  84.606 -23.804  1.00  0.00     0.049 C 
HETATM    8  C16         0      19.330  85.259 -24.352  1.00  0.00     0.093 C 
HETATM    9  C18         0      19.762  84.757 -25.574  1.00  0.00     0.048 C 
HETATM   10  C19         0      18.903  84.018 -26.377  1.00  0.00     0.096 C 
HETATM   11  C21         0      17.626  83.769 -25.954  1.00  0.00     0.084 C 
ENDROOT
BRANCH  10  12
HETATM   12  O20         0      19.176  83.900 -27.736  1.00  0.00    -0.359 OA
HETATM   13  H20         0      18.723  84.484 -28.333  1.00  0.00     0.218 HD
ENDBRANCH  10  12
BRANCH   4  14
HETATM   14  C5          0      13.801  83.364 -24.454  1.00  0.00     0.025 C 
HETATM   15  C6          0      12.689  83.216 -25.270  1.00  0.00     0.004 C 
HETATM   16  C7          0      11.562  82.613 -24.720  1.00  0.00     0.026 C 
HETATM   17  C8          0      11.494  82.289 -23.369  1.00  0.00     0.112 C 
HETATM   18  C10         0      12.344  83.024 -22.553  1.00  0.00     0.112 C 
HETATM   19  C12         0      13.507  83.544 -23.109  1.00  0.00     0.028 C 
BRANCH  17  20
HETATM   20  O9          0      10.788  81.179 -22.941  1.00  0.00    -0.357 OA
HETATM   21  H9          0       9.878  81.206 -22.665  1.00  0.00     0.218 HD
ENDBRANCH  17  20
BRANCH  18  22
HETATM   22  O11         0      12.183  82.877 -21.183  1.00  0.00    -0.357 OA
HETATM   23  H11         0      11.972  82.006 -20.866  1.00  0.00     0.218 HD
ENDBRANCH  18  22
ENDBRANCH   4  14
BRANCH   8  24
HETATM   24  O17         0      19.740  86.513 -23.886  1.00  0.00    -0.359 OA
HETATM   25  H17         0      20.070  87.181 -24.475  1.00  0.00     0.218 HD
ENDBRANCH   8  24
TORSDOF 5
ENDMDL
MODEL 9
REMARK VINA RESULT:      -5.4      2.175      3.956
REMARK  5 active torsions:
REMARK  status: ('A' for Active; 'I' for Inactive)
REMARK    1  A    between atoms: C4_4  and  C5_5 
REMARK    2  A    between atoms: C8_8  and  O9_9 
REMARK    3  A    between atoms: C10_11  and  O11_12 
REMARK    4  A    between atoms: C16_18  and  O17_19 
REMARK    5  A    between atoms: C19_22  and  O20_23 
ROOT
HETATM    1  O1          0      19.335  88.031 -27.857  1.00  0.00    -0.286 OA
HETATM    2  C2          0      19.940  87.002 -28.265  1.00  0.00     0.201 C 
HETATM    3  C3          0      20.439  86.886 -29.551  1.00  0.00     0.067 C 
HETATM    4  C4          0      21.011  85.703 -30.006  1.00  0.00     0.103 C 
HETATM    5  O13         0      21.092  84.677 -29.178  1.00  0.00    -0.307 OA
HETATM    6  C14         0      20.600  84.722 -27.959  1.00  0.00     0.107 C 
HETATM    7  C15         0      20.320  83.568 -27.241  1.00  0.00     0.049 C 
HETATM    8  C16         0      19.572  83.610 -26.071  1.00  0.00     0.093 C 
HETATM    9  C18         0      19.590  84.830 -25.406  1.00  0.00     0.048 C 
HETATM   10  C19         0      19.911  85.998 -26.084  1.00  0.00     0.096 C 
HETATM   11  C21         0      20.229  85.946 -27.414  1.00  0.00     0.084 C 
ENDROOT
BRANCH  10  12
HETATM   12  O20         0      19.512  87.223 -25.556  1.00  0.00    -0.359 OA
HETATM   13  H20         0      20.131  87.696 -25.013  1.00  0.00     0.218 HD
ENDBRANCH  10  12
BRANCH   4  14
HETATM   14  C5          0      20.955  85.443 -31.446  1.00  0.00     0.025 C 
HETATM   15  C6          0      22.076  85.116 -32.195  1.00  0.00     0.004 C 
HETATM   16  C7          0      21.923  84.167 -33.202  1.00  0.00     0.026 C 
HETATM   17  C8          0      20.674  83.660 -33.543  1.00  0.00     0.112 C 
HETATM   18  C10         0      19.605  84.478 -33.207  1.00  0.00     0.112 C 
HETATM   19  C12         0      19.755  85.358 -32.141  1.00  0.00     0.028 C 
BRANCH  17  20
HETATM   20  O9          0      20.535  82.355 -33.982  1.00  0.00    -0.357 OA
HETATM   21  H9          0      21.267  81.798 -34.222  1.00  0.00     0.218 HD
ENDBRANCH  17  20
BRANCH  18  22
HETATM   22  O11         0      18.357  84.112 -33.690  1.00  0.00    -0.357 OA
HETATM   23  H11         0      17.827  84.799 -34.078  1.00  0.00     0.218 HD
ENDBRANCH  18  22
ENDBRANCH   4  14
BRANCH   8  24
HETATM   24  O17         0      18.620  82.627 -25.778  1.00  0.00    -0.359 OA
HETATM   25  H17         0      18.528  81.847 -26.313  1.00  0.00     0.218 HD
ENDBRANCH   8  24
TORSDOF 5
ENDMDL
