MODEL 1
REMARK VINA RESULT:      -0.1      0.000      0.000
REMARK  5 active torsions:
REMARK  status: ('A' for Active; 'I' for Inactive)
REMARK    1  A    between atoms: C4_4  and  C5_5 
REMARK    2  A    between atoms: C8_8  and  O9_9 
REMARK    3  A    between atoms: C10_11  and  O11_12 
REMARK    4  A    between atoms: C16_18  and  O17_19 
REMARK    5  A    between atoms: C19_22  and  O20_23 
ROOT
HETATM    1  O1          0      62.322  42.843 -22.028  1.00  0.00    -0.286 OA
HETATM    2  C2          0      61.614  43.689 -22.641  1.00  0.00     0.201 C 
HETATM    3  C3          0      61.570  43.771 -24.022  1.00  0.00     0.067 C 
HETATM    4  C4          0      60.862  44.776 -24.670  1.00  0.00     0.103 C 
HETATM    5  O13         0      60.201  45.658 -23.941  1.00  0.00    -0.307 OA
HETATM    6  C14         0      60.240  45.648 -22.627  1.00  0.00     0.107 C 
HETATM    7  C15         0      59.900  46.765 -21.876  1.00  0.00     0.049 C 
HETATM    8  C16         0      60.183  46.835 -20.518  1.00  0.00     0.093 C 
HETATM    9  C18         0      60.306  45.606 -19.880  1.00  0.00     0.048 C 
HETATM   10  C19         0      60.599  44.460 -20.606  1.00  0.00     0.096 C 
HETATM   11  C21         0      60.751  44.537 -21.964  1.00  0.00     0.084 C 
ENDROOT
BRANCH  10  12
HETATM   12  O20         0      61.141  43.359 -19.951  1.00  0.00    -0.359 OA
HETATM   13  H20         0      62.049  43.407 -19.675  1.00  0.00     0.218 HD
ENDBRANCH  10  12
BRANCH   4  14
HETATM   14  C5          0      61.323  45.168 -26.003  1.00  0.00     0.025 C 
HETATM   15  C6          0      61.299  46.481 -26.452  1.00  0.00     0.004 C 
HETATM   16  C7          0      62.365  46.914 -27.233  1.00  0.00     0.026 C 
HETATM   17  C8          0      63.354  46.039 -27.669  1.00  0.00     0.112 C 
HETATM   18  C10         0      62.968  44.706 -27.716  1.00  0.00     0.112 C 
HETATM   19  C12         0      61.957  44.280 -26.862  1.00  0.00     0.028 C 
BRANCH  17  20
HETATM   20  O9          0      64.660  46.466 -27.826  1.00  0.00    -0.357 OA
HETATM   21  H9          0      65.375  45.895 -28.082  1.00  0.00     0.218 HD
ENDBRANCH  17  20
BRANCH  18  22
HETATM   22  O11         0      63.848  43.818 -28.319  1.00  0.00    -0.357 OA
HETATM   23  H11         0      64.552  43.478 -27.779  1.00  0.00     0.218 HD
ENDBRANCH  18  22
ENDBRANCH   4  14
BRANCH   8  24
HETATM   24  O17         0      60.638  48.019 -19.928  1.00  0.00    -0.359 OA
HETATM   25  H17         0      61.442  48.440 -20.209  1.00  0.00     0.218 HD
ENDBRANCH   8  24
TORSDOF 5
ENDMDL
MODEL 2
REMARK VINA RESULT:      -0.0      2.457      6.057
REMARK  5 active torsions:
REMARK  status: ('A' for Active; 'I' for Inactive)
REMARK    1  A    between atoms: C4_4  and  C5_5 
REMARK    2  A    between atoms: C8_8  and  O9_9 
REMARK    3  A    between atoms: C10_11  and  O11_12 
REMARK    4  A    between atoms: C16_18  and  O17_19 
REMARK    5  A    between atoms: C19_22  and  O20_23 
ROOT
HETATM    1  O1          0      64.115  42.839 -23.528  1.00  0.00    -0.286 OA
HETATM    2  C2          0      63.484  43.748 -24.134  1.00  0.00     0.201 C 
HETATM    3  C3          0      63.310  45.017 -23.611  1.00  0.00     0.067 C 
HETATM    4  C4          0      62.524  45.968 -24.252  1.00  0.00     0.103 C 
HETATM    5  O13         0      61.949  45.649 -25.398  1.00  0.00    -0.307 OA
HETATM    6  C14         0      62.051  44.446 -25.919  1.00  0.00     0.107 C 
HETATM    7  C15         0      61.157  43.985 -26.875  1.00  0.00     0.049 C 
HETATM    8  C16         0      61.111  42.643 -27.233  1.00  0.00     0.093 C 
HETATM    9  C18         0      62.288  41.937 -27.016  1.00  0.00     0.048 C 
HETATM   10  C19         0      63.226  42.395 -26.101  1.00  0.00     0.096 C 
HETATM   11  C21         0      62.998  43.559 -25.419  1.00  0.00     0.084 C 
ENDROOT
BRANCH  10  12
HETATM   12  O20         0      64.155  41.502 -25.575  1.00  0.00    -0.359 OA
HETATM   13  H20         0      64.714  41.805 -24.870  1.00  0.00     0.218 HD
ENDBRANCH  10  12
BRANCH   4  14
HETATM   14  C5          0      61.904  46.999 -23.416  1.00  0.00     0.025 C 
HETATM   15  C6          0      60.567  47.352 -23.525  1.00  0.00     0.004 C 
HETATM   16  C7          0      59.879  47.640 -22.351  1.00  0.00     0.026 C 
HETATM   17  C8          0      60.527  47.706 -21.122  1.00  0.00     0.112 C 
HETATM   18  C10         0      61.889  47.968 -21.199  1.00  0.00     0.112 C 
HETATM   19  C12         0      62.570  47.593 -22.351  1.00  0.00     0.028 C 
BRANCH  17  20
HETATM   20  O9          0      59.883  47.325 -19.959  1.00  0.00    -0.357 OA
HETATM   21  H9          0      58.965  47.500 -19.782  1.00  0.00     0.218 HD
ENDBRANCH  17  20
BRANCH  18  22
HETATM   22  O11         0      62.546  48.231 -20.006  1.00  0.00    -0.357 OA
HETATM   23  H11         0      62.192  47.827 -19.222  1.00  0.00     0.218 HD
ENDBRANCH  18  22
ENDBRANCH   4  14
BRANCH   8  24
HETATM   24  O17         0      59.894  41.992 -27.466  1.00  0.00    -0.359 OA
HETATM   25  H17         0      59.728  41.519 -28.272  1.00  0.00     0.218 HD
ENDBRANCH   8  24
TORSDOF 5
ENDMDL
MODEL 3
REMARK VINA RESULT:      -0.0      2.265      2.602
REMARK  5 active torsions:
REMARK  status: ('A' for Active; 'I' for Inactive)
REMARK    1  A    between atoms: C4_4  and  C5_5 
REMARK    2  A    between atoms: C8_8  and  O9_9 
REMARK    3  A    between atoms: C10_11  and  O11_12 
REMARK    4  A    between atoms: C16_18  and  O17_19 
REMARK    5  A    between atoms: C19_22  and  O20_23 
ROOT
HETATM    1  O1          0      64.777  46.510 -22.190  1.00  0.00    -0.286 OA
HETATM    2  C2          0      63.636  46.452 -22.726  1.00  0.00     0.201 C 
HETATM    3  C3          0      63.455  46.295 -24.090  1.00  0.00     0.067 C 
HETATM    4  C4          0      62.191  46.338 -24.667  1.00  0.00     0.103 C 
HETATM    5  O13         0      61.141  46.511 -23.883  1.00  0.00    -0.307 OA
HETATM    6  C14         0      61.260  46.702 -22.587  1.00  0.00     0.107 C 
HETATM    7  C15         0      60.242  47.272 -21.836  1.00  0.00     0.049 C 
HETATM    8  C16         0      60.462  47.703 -20.533  1.00  0.00     0.093 C 
HETATM    9  C18         0      61.514  47.077 -19.877  1.00  0.00     0.048 C 
HETATM   10  C19         0      62.526  46.457 -20.598  1.00  0.00     0.096 C 
HETATM   11  C21         0      62.477  46.447 -21.965  1.00  0.00     0.084 C 
ENDROOT
BRANCH  10  12
HETATM   12  O20         0      63.755  46.229 -19.987  1.00  0.00    -0.359 OA
HETATM   13  H20         0      63.761  46.031 -19.058  1.00  0.00     0.218 HD
ENDBRANCH  10  12
BRANCH   4  14
HETATM   14  C5          0      62.106  46.766 -26.064  1.00  0.00     0.025 C 
HETATM   15  C6          0      61.074  47.558 -26.546  1.00  0.00     0.004 C 
HETATM   16  C7          0      61.395  48.533 -27.485  1.00  0.00     0.026 C 
HETATM   17  C8          0      62.671  48.631 -28.029  1.00  0.00     0.112 C 
HETATM   18  C10         0      63.414  47.459 -27.978  1.00  0.00     0.112 C 
HETATM   19  C12         0      63.129  46.539 -26.976  1.00  0.00     0.028 C 
BRANCH  17  20
HETATM   20  O9          0      63.198  49.860 -28.384  1.00  0.00    -0.357 OA
HETATM   21  H9          0      63.471  50.519 -27.757  1.00  0.00     0.218 HD
ENDBRANCH  17  20
BRANCH  18  22
HETATM   22  O11         0      64.616  47.446 -28.671  1.00  0.00    -0.357 OA
HETATM   23  H11         0      64.589  47.151 -29.574  1.00  0.00     0.218 HD
ENDBRANCH  18  22
ENDBRANCH   4  14
BRANCH   8  24
HETATM   24  O17         0      59.898  48.891 -20.054  1.00  0.00    -0.359 OA
HETATM   25  H17         0      59.160  48.887 -19.455  1.00  0.00     0.218 HD
ENDBRANCH   8  24
TORSDOF 5
ENDMDL
MODEL 4
REMARK VINA RESULT:      -0.0      3.906      6.922
REMARK  5 active torsions:
REMARK  status: ('A' for Active; 'I' for Inactive)
REMARK    1  A    between atoms: C4_4  and  C5_5 
REMARK    2  A    between atoms: C8_8  and  O9_9 
REMARK    3  A    between atoms: C10_11  and  O11_12 
REMARK    4  A    between atoms: C16_18  and  O17_19 
REMARK    5  A    between atoms: C19_22  and  O20_23 
ROOT
HETATM    1  O1          0      61.532  39.500 -21.717  1.00  0.00    -0.286 OA
HETATM    2  C2          0      62.494  40.288 -21.504  1.00  0.00     0.201 C 
HETATM    3  C3          0      62.337  41.512 -20.877  1.00  0.00     0.067 C 
HETATM    4  C4          0      63.395  42.405 -20.746  1.00  0.00     0.103 C 
HETATM    5  O13         0      64.580  42.058 -21.216  1.00  0.00    -0.307 OA
HETATM    6  C14         0      64.775  40.924 -21.853  1.00  0.00     0.107 C 
HETATM    7  C15         0      65.871  40.729 -22.681  1.00  0.00     0.049 C 
HETATM    8  C16         0      65.941  39.640 -23.541  1.00  0.00     0.093 C 
HETATM    9  C18         0      65.180  38.541 -23.161  1.00  0.00     0.048 C 
HETATM   10  C19         0      64.104  38.693 -22.297  1.00  0.00     0.096 C 
HETATM   11  C21         0      63.801  39.932 -21.802  1.00  0.00     0.084 C 
ENDROOT
BRANCH  10  12
HETATM   12  O20         0      63.112  37.718 -22.267  1.00  0.00    -0.359 OA
HETATM   13  H20         0      63.208  36.968 -22.842  1.00  0.00     0.218 HD
ENDBRANCH  10  12
BRANCH   4  14
HETATM   14  C5          0      63.063  43.827 -20.651  1.00  0.00     0.025 C 
HETATM   15  C6          0      63.863  44.824 -21.192  1.00  0.00     0.004 C 
HETATM   16  C7          0      63.228  45.912 -21.781  1.00  0.00     0.026 C 
HETATM   17  C8          0      61.848  46.073 -21.718  1.00  0.00     0.112 C 
HETATM   18  C10         0      61.235  45.412 -20.661  1.00  0.00     0.112 C 
HETATM   19  C12         0      61.850  44.277 -20.147  1.00  0.00     0.028 C 
BRANCH  17  20
HETATM   20  O9          0      61.155  46.669 -22.757  1.00  0.00    -0.357 OA
HETATM   21  H9          0      61.297  46.462 -23.673  1.00  0.00     0.218 HD
ENDBRANCH  17  20
BRANCH  18  22
HETATM   22  O11         0      59.894  45.690 -20.440  1.00  0.00    -0.357 OA
HETATM   23  H11         0      59.638  46.605 -20.443  1.00  0.00     0.218 HD
ENDBRANCH  18  22
ENDBRANCH   4  14
BRANCH   8  24
HETATM   24  O17         0      66.454  39.767 -24.837  1.00  0.00    -0.359 OA
HETATM   25  H17         0      66.360  40.570 -25.335  1.00  0.00     0.218 HD
ENDBRANCH   8  24
TORSDOF 5
ENDMDL
MODEL 5
REMARK VINA RESULT:      -0.0      4.235      7.086
REMARK  5 active torsions:
REMARK  status: ('A' for Active; 'I' for Inactive)
REMARK    1  A    between atoms: C4_4  and  C5_5 
REMARK    2  A    between atoms: C8_8  and  O9_9 
REMARK    3  A    between atoms: C10_11  and  O11_12 
REMARK    4  A    between atoms: C16_18  and  O17_19 
REMARK    5  A    between atoms: C19_22  and  O20_23 
ROOT
HETATM    1  O1          0      62.054  39.053 -19.875  1.00  0.00    -0.286 OA
HETATM    2  C2          0      62.833  39.781 -20.550  1.00  0.00     0.201 C 
HETATM    3  C3          0      62.805  41.164 -20.493  1.00  0.00     0.067 C 
HETATM    4  C4          0      63.603  41.943 -21.323  1.00  0.00     0.103 C 
HETATM    5  O13         0      64.419  41.340 -22.168  1.00  0.00    -0.307 OA
HETATM    6  C14         0      64.458  40.031 -22.289  1.00  0.00     0.107 C 
HETATM    7  C15         0      64.989  39.416 -23.414  1.00  0.00     0.049 C 
HETATM    8  C16         0      64.800  38.060 -23.652  1.00  0.00     0.093 C 
HETATM    9  C18         0      64.550  37.294 -22.520  1.00  0.00     0.048 C 
HETATM   10  C19         0      64.062  37.885 -21.362  1.00  0.00     0.096 C 
HETATM   11  C21         0      63.841  39.235 -21.330  1.00  0.00     0.084 C 
ENDROOT
BRANCH  10  12
HETATM   12  O20         0      63.416  37.096 -20.416  1.00  0.00    -0.359 OA
HETATM   13  H20         0      62.709  36.535 -20.711  1.00  0.00     0.218 HD
ENDBRANCH  10  12
BRANCH   4  14
HETATM   14  C5          0      63.120  43.287 -21.646  1.00  0.00     0.025 C 
HETATM   15  C6          0      63.290  43.867 -22.895  1.00  0.00     0.004 C 
HETATM   16  C7          0      62.247  44.640 -23.394  1.00  0.00     0.026 C 
HETATM   17  C8          0      61.128  44.939 -22.625  1.00  0.00     0.112 C 
HETATM   18  C10         0      61.331  44.868 -21.254  1.00  0.00     0.112 C 
HETATM   19  C12         0      62.325  44.022 -20.776  1.00  0.00     0.028 C 
BRANCH  17  20
HETATM   20  O9          0      59.882  45.079 -23.211  1.00  0.00    -0.357 OA
HETATM   21  H9          0      59.498  44.437 -23.796  1.00  0.00     0.218 HD
ENDBRANCH  17  20
BRANCH  18  22
HETATM   22  O11         0      60.308  45.337 -20.442  1.00  0.00    -0.357 OA
HETATM   23  H11         0      59.489  44.857 -20.462  1.00  0.00     0.218 HD
ENDBRANCH  18  22
ENDBRANCH   4  14
BRANCH   8  24
HETATM   24  O17         0      64.545  37.575 -24.939  1.00  0.00    -0.359 OA
HETATM   25  H17         0      63.798  37.018 -25.124  1.00  0.00     0.218 HD
ENDBRANCH   8  24
TORSDOF 5
ENDMDL
MODEL 6
REMARK VINA RESULT:      -0.0      3.956      5.047
REMARK  5 active torsions:
REMARK  status: ('A' for Active; 'I' for Inactive)
REMARK    1  A    between atoms: C4_4  and  C5_5 
REMARK    2  A    between atoms: C8_8  and  O9_9 
REMARK    3  A    between atoms: C10_11  and  O11_12 
REMARK    4  A    between atoms: C16_18  and  O17_19 
REMARK    5  A    between atoms: C19_22  and  O20_23 
ROOT
HETATM    1  O1          0      62.504  45.772 -24.336  1.00  0.00    -0.286 OA
HETATM    2  C2          0      63.451  45.379 -23.601  1.00  0.00     0.201 C 
HETATM    3  C3          0      64.768  45.344 -24.028  1.00  0.00     0.067 C 
HETATM    4  C4          0      65.777  44.810 -23.234  1.00  0.00     0.103 C 
HETATM    5  O13         0      65.464  44.346 -22.037  1.00  0.00    -0.307 OA
HETATM    6  C14         0      64.225  44.321 -21.599  1.00  0.00     0.107 C 
HETATM    7  C15         0      63.836  43.496 -20.553  1.00  0.00     0.049 C 
HETATM    8  C16         0      62.494  43.282 -20.264  1.00  0.00     0.093 C 
HETATM    9  C18         0      61.636  44.292 -20.680  1.00  0.00     0.048 C 
HETATM   10  C19         0      62.012  45.165 -21.692  1.00  0.00     0.096 C 
HETATM   11  C21         0      63.244  45.041 -22.273  1.00  0.00     0.084 C 
ENDROOT
BRANCH  10  12
HETATM   12  O20         0      61.030  45.863 -22.388  1.00  0.00    -0.359 OA
HETATM   13  H20         0      61.264  46.700 -22.769  1.00  0.00     0.218 HD
ENDBRANCH  10  12
BRANCH   4  14
HETATM   14  C5          0      66.948  44.261 -23.920  1.00  0.00     0.025 C 
HETATM   15  C6          0      67.633  43.145 -23.462  1.00  0.00     0.004 C 
HETATM   16  C7          0      68.111  42.248 -24.411  1.00  0.00     0.026 C 
HETATM   17  C8          0      68.031  42.515 -25.773  1.00  0.00     0.112 C 
HETATM   18  C10         0      67.930  43.862 -26.095  1.00  0.00     0.112 C 
HETATM   19  C12         0      67.370  44.724 -25.160  1.00  0.00     0.028 C 
BRANCH  17  20
HETATM   20  O9          0      67.852  41.492 -26.687  1.00  0.00    -0.357 OA
HETATM   21  H9          0      68.565  40.981 -27.054  1.00  0.00     0.218 HD
ENDBRANCH  17  20
BRANCH  18  22
HETATM   22  O11         0      68.037  44.197 -27.437  1.00  0.00    -0.357 OA
HETATM   23  H11         0      68.790  44.717 -27.692  1.00  0.00     0.218 HD
ENDBRANCH  18  22
ENDBRANCH   4  14
BRANCH   8  24
HETATM   24  O17         0      62.019  42.018 -19.897  1.00  0.00    -0.359 OA
HETATM   25  H17         0      61.647  41.853 -19.039  1.00  0.00     0.218 HD
ENDBRANCH   8  24
TORSDOF 5
ENDMDL
MODEL 7
REMARK VINA RESULT:      -0.0      7.700     10.570
REMARK  5 active torsions:
REMARK  status: ('A' for Active; 'I' for Inactive)
REMARK    1  A    between atoms: C4_4  and  C5_5 
REMARK    2  A    between atoms: C8_8  and  O9_9 
REMARK    3  A    between atoms: C10_11  and  O11_12 
REMARK    4  A    between atoms: C16_18  and  O17_19 
REMARK    5  A    between atoms: C19_22  and  O20_23 
ROOT
HETATM    1  O1          0      68.703  36.146 -25.670  1.00  0.00    -0.286 OA
HETATM    2  C2          0      68.089  36.989 -26.380  1.00  0.00     0.201 C 
HETATM    3  C3          0      68.090  38.346 -26.102  1.00  0.00     0.067 C 
HETATM    4  C4          0      67.323  39.240 -26.840  1.00  0.00     0.103 C 
HETATM    5  O13         0      66.594  38.777 -27.840  1.00  0.00    -0.307 OA
HETATM    6  C14         0      66.529  37.495 -28.123  1.00  0.00     0.107 C 
HETATM    7  C15         0      65.494  36.965 -28.879  1.00  0.00     0.049 C 
HETATM    8  C16         0      65.288  35.592 -28.960  1.00  0.00     0.093 C 
HETATM    9  C18         0      66.415  34.815 -28.721  1.00  0.00     0.048 C 
HETATM   10  C19         0      67.489  35.330 -28.008  1.00  0.00     0.096 C 
HETATM   11  C21         0      67.445  36.619 -27.550  1.00  0.00     0.084 C 
ENDROOT
BRANCH  10  12
HETATM   12  O20         0      68.389  34.455 -27.408  1.00  0.00    -0.359 OA
HETATM   13  H20         0      68.039  33.704 -26.945  1.00  0.00     0.218 HD
ENDBRANCH  10  12
BRANCH   4  14
HETATM   14  C5          0      66.897  40.470 -26.168  1.00  0.00     0.025 C 
HETATM   15  C6          0      65.750  41.164 -26.526  1.00  0.00     0.004 C 
HETATM   16  C7          0      64.994  41.730 -25.504  1.00  0.00     0.026 C 
HETATM   17  C8          0      65.431  41.723 -24.184  1.00  0.00     0.112 C 
HETATM   18  C10         0      66.805  41.596 -24.028  1.00  0.00     0.112 C 
HETATM   19  C12         0      67.525  40.950 -25.026  1.00  0.00     0.028 C 
BRANCH  17  20
HETATM   20  O9          0      64.529  41.637 -23.139  1.00  0.00    -0.357 OA
HETATM   21  H9          0      64.614  42.121 -22.326  1.00  0.00     0.218 HD
ENDBRANCH  17  20
BRANCH  18  22
HETATM   22  O11         0      67.312  41.773 -22.749  1.00  0.00    -0.357 OA
HETATM   23  H11         0      67.927  41.119 -22.436  1.00  0.00     0.218 HD
ENDBRANCH  18  22
ENDBRANCH   4  14
BRANCH   8  24
HETATM   24  O17         0      64.000  35.046 -28.943  1.00  0.00    -0.359 OA
HETATM   25  H17         0      63.836  34.148 -29.205  1.00  0.00     0.218 HD
ENDBRANCH   8  24
TORSDOF 5
ENDMDL
MODEL 8
REMARK VINA RESULT:      -0.0      7.144      9.764
REMARK  5 active torsions:
REMARK  status: ('A' for Active; 'I' for Inactive)
REMARK    1  A    between atoms: C4_4  and  C5_5 
REMARK    2  A    between atoms: C8_8  and  O9_9 
REMARK    3  A    between atoms: C10_11  and  O11_12 
REMARK    4  A    between atoms: C16_18  and  O17_19 
REMARK    5  A    between atoms: C19_22  and  O20_23 
ROOT
HETATM    1  O1          0      66.863  42.585 -28.337  1.00  0.00    -0.286 OA
HETATM    2  C2          0      67.736  43.390 -27.911  1.00  0.00     0.201 C 
HETATM    3  C3          0      67.417  44.612 -27.344  1.00  0.00     0.067 C 
HETATM    4  C4          0      68.400  45.524 -26.978  1.00  0.00     0.103 C 
HETATM    5  O13         0      69.667  45.199 -27.160  1.00  0.00    -0.307 OA
HETATM    6  C14         0      70.024  44.068 -27.728  1.00  0.00     0.107 C 
HETATM    7  C15         0      71.285  43.892 -28.280  1.00  0.00     0.049 C 
HETATM    8  C16         0      71.571  42.804 -29.095  1.00  0.00     0.093 C 
HETATM    9  C18         0      70.762  41.692 -28.895  1.00  0.00     0.048 C 
HETATM   10  C19         0      69.513  41.825 -28.303  1.00  0.00     0.096 C 
HETATM   11  C21         0      69.082  43.059 -27.898  1.00  0.00     0.084 C 
ENDROOT
BRANCH  10  12
HETATM   12  O20         0      68.559  40.832 -28.498  1.00  0.00    -0.359 OA
HETATM   13  H20         0      68.255  40.673 -29.384  1.00  0.00     0.218 HD
ENDBRANCH  10  12
BRANCH   4  14
HETATM   14  C5          0      68.030  46.941 -26.970  1.00  0.00     0.025 C 
HETATM   15  C6          0      68.952  47.960 -27.163  1.00  0.00     0.004 C 
HETATM   16  C7          0      68.548  49.061 -27.911  1.00  0.00     0.026 C 
HETATM   17  C8          0      67.234  49.210 -28.340  1.00  0.00     0.112 C 
HETATM   18  C10         0      66.297  48.511 -27.589  1.00  0.00     0.112 C 
HETATM   19  C12         0      66.708  47.365 -26.920  1.00  0.00     0.028 C 
BRANCH  17  20
HETATM   20  O9          0      66.946  49.832 -29.541  1.00  0.00    -0.357 OA
HETATM   21  H9          0      67.599  50.030 -30.203  1.00  0.00     0.218 HD
ENDBRANCH  17  20
BRANCH  18  22
HETATM   22  O11         0      64.960  48.772 -27.854  1.00  0.00    -0.357 OA
HETATM   23  H11         0      64.680  49.679 -27.805  1.00  0.00     0.218 HD
ENDBRANCH  18  22
ENDBRANCH   4  14
BRANCH   8  24
HETATM   24  O17         0      72.367  42.938 -30.238  1.00  0.00    -0.359 OA
HETATM   25  H17         0      72.798  42.191 -30.637  1.00  0.00     0.218 HD
ENDBRANCH   8  24
TORSDOF 5
ENDMDL
MODEL 9
REMARK VINA RESULT:      -0.0      7.105     10.898
REMARK  5 active torsions:
REMARK  status: ('A' for Active; 'I' for Inactive)
REMARK    1  A    between atoms: C4_4  and  C5_5 
REMARK    2  A    between atoms: C8_8  and  O9_9 
REMARK    3  A    between atoms: C10_11  and  O11_12 
REMARK    4  A    between atoms: C16_18  and  O17_19 
REMARK    5  A    between atoms: C19_22  and  O20_23 
ROOT
HETATM    1  O1          0      70.050  42.989 -32.700  1.00  0.00    -0.286 OA
HETATM    2  C2          0      69.784  42.740 -31.493  1.00  0.00     0.201 C 
HETATM    3  C3          0      68.657  42.038 -31.102  1.00  0.00     0.067 C 
HETATM    4  C4          0      68.334  41.866 -29.760  1.00  0.00     0.103 C 
HETATM    5  O13         0      69.140  42.373 -28.844  1.00  0.00    -0.307 OA
HETATM    6  C14         0      70.202  43.080 -29.161  1.00  0.00     0.107 C 
HETATM    7  C15         0      70.811  43.932 -28.251  1.00  0.00     0.049 C 
HETATM    8  C16         0      71.764  44.859 -28.657  1.00  0.00     0.093 C 
HETATM    9  C18         0      72.434  44.537 -29.831  1.00  0.00     0.048 C 
HETATM   10  C19         0      71.874  43.651 -30.742  1.00  0.00     0.096 C 
HETATM   11  C21         0      70.661  43.077 -30.473  1.00  0.00     0.084 C 
ENDROOT
BRANCH  10  12
HETATM   12  O20         0      72.310  43.668 -32.063  1.00  0.00    -0.359 OA
HETATM   13  H20         0      71.776  44.125 -32.702  1.00  0.00     0.218 HD
ENDBRANCH  10  12
BRANCH   4  14
HETATM   14  C5          0      66.920  41.680 -29.430  1.00  0.00     0.025 C 
HETATM   15  C6          0      66.383  42.028 -28.199  1.00  0.00     0.004 C 
HETATM   16  C7          0      65.108  42.585 -28.186  1.00  0.00     0.026 C 
HETATM   17  C8          0      64.337  42.670 -29.341  1.00  0.00     0.112 C 
HETATM   18  C10         0      64.676  41.759 -30.332  1.00  0.00     0.112 C 
HETATM   19  C12         0      65.981  41.283 -30.374  1.00  0.00     0.028 C 
BRANCH  17  20
HETATM   20  O9          0      63.461  43.724 -29.532  1.00  0.00    -0.357 OA
HETATM   21  H9          0      63.193  44.038 -30.388  1.00  0.00     0.218 HD
ENDBRANCH  17  20
BRANCH  18  22
HETATM   22  O11         0      63.824  41.672 -31.424  1.00  0.00    -0.357 OA
HETATM   23  H11         0      63.041  42.211 -31.402  1.00  0.00     0.218 HD
ENDBRANCH  18  22
ENDBRANCH   4  14
BRANCH   8  24
HETATM   24  O17         0      71.799  46.151 -28.120  1.00  0.00    -0.359 OA
HETATM   25  H17         0      72.373  46.376 -27.398  1.00  0.00     0.218 HD
ENDBRANCH   8  24
TORSDOF 5
ENDMDL
