MODEL 1
REMARK VINA RESULT:      -0.9      0.000      0.000
REMARK  5 active torsions:
REMARK  status: ('A' for Active; 'I' for Inactive)
REMARK    1  A    between atoms: C4_4  and  C5_5 
REMARK    2  A    between atoms: C8_8  and  O9_9 
REMARK    3  A    between atoms: C10_11  and  O11_12 
REMARK    4  A    between atoms: C16_18  and  O17_19 
REMARK    5  A    between atoms: C19_22  and  O20_23 
ROOT
HETATM    1  O1          0      36.141  13.980 -10.989  1.00  0.00    -0.286 OA
HETATM    2  C2          0      37.384  13.953 -10.779  1.00  0.00     0.201 C 
HETATM    3  C3          0      38.080  12.781 -10.536  1.00  0.00     0.067 C 
HETATM    4  C4          0      39.430  12.790 -10.206  1.00  0.00     0.103 C 
HETATM    5  O13         0      40.061  13.950 -10.147  1.00  0.00    -0.307 OA
HETATM    6  C14         0      39.440  15.094 -10.333  1.00  0.00     0.107 C 
HETATM    7  C15         0      39.974  16.296  -9.889  1.00  0.00     0.049 C 
HETATM    8  C16         0      39.210  17.456  -9.857  1.00  0.00     0.093 C 
HETATM    9  C18         0      38.141  17.480 -10.745  1.00  0.00     0.048 C 
HETATM   10  C19         0      37.613  16.298 -11.245  1.00  0.00     0.096 C 
HETATM   11  C21         0      38.159  15.099 -10.874  1.00  0.00     0.084 C 
ENDROOT
BRANCH  10  12
HETATM   12  O20         0      36.319  16.294 -11.757  1.00  0.00    -0.359 OA
HETATM   13  H20         0      36.003  15.495 -12.161  1.00  0.00     0.218 HD
ENDBRANCH  10  12
BRANCH   4  14
HETATM   14  C5          0      39.932  11.673  -9.403  1.00  0.00     0.025 C 
HETATM   15  C6          0      40.125  11.760  -8.032  1.00  0.00     0.004 C 
HETATM   16  C7          0      39.807  10.643  -7.265  1.00  0.00     0.026 C 
HETATM   17  C8          0      39.438   9.437  -7.850  1.00  0.00     0.112 C 
HETATM   18  C10         0      39.879   9.267  -9.156  1.00  0.00     0.112 C 
HETATM   19  C12         0      40.108  10.400  -9.929  1.00  0.00     0.028 C 
BRANCH  17  20
HETATM   20  O9          0      38.529   8.597  -7.231  1.00  0.00    -0.357 OA
HETATM   21  H9          0      38.778   7.872  -6.671  1.00  0.00     0.218 HD
ENDBRANCH  17  20
BRANCH  18  22
HETATM   22  O11         0      39.703   8.012  -9.720  1.00  0.00    -0.357 OA
HETATM   23  H11         0      39.575   7.285  -9.122  1.00  0.00     0.218 HD
ENDBRANCH  18  22
ENDBRANCH   4  14
BRANCH   8  24
HETATM   24  O17         0      39.305  18.363  -8.796  1.00  0.00    -0.359 OA
HETATM   25  H17         0      39.451  19.290  -8.942  1.00  0.00     0.218 HD
ENDBRANCH   8  24
TORSDOF 5
ENDMDL
MODEL 2
REMARK VINA RESULT:      -0.9      2.480      3.770
REMARK  5 active torsions:
REMARK  status: ('A' for Active; 'I' for Inactive)
REMARK    1  A    between atoms: C4_4  and  C5_5 
REMARK    2  A    between atoms: C8_8  and  O9_9 
REMARK    3  A    between atoms: C10_11  and  O11_12 
REMARK    4  A    between atoms: C16_18  and  O17_19 
REMARK    5  A    between atoms: C19_22  and  O20_23 
ROOT
HETATM    1  O1          0      40.117  12.848 -11.049  1.00  0.00    -0.286 OA
HETATM    2  C2          0      39.757  12.307  -9.968  1.00  0.00     0.201 C 
HETATM    3  C3          0      39.782  10.937  -9.770  1.00  0.00     0.067 C 
HETATM    4  C4          0      39.283  10.359  -8.607  1.00  0.00     0.103 C 
HETATM    5  O13         0      38.793  11.148  -7.667  1.00  0.00    -0.307 OA
HETATM    6  C14         0      38.711  12.451  -7.820  1.00  0.00     0.107 C 
HETATM    7  C15         0      37.860  13.226  -7.046  1.00  0.00     0.049 C 
HETATM    8  C16         0      37.586  14.548  -7.376  1.00  0.00     0.093 C 
HETATM    9  C18         0      38.564  15.177  -8.137  1.00  0.00     0.048 C 
HETATM   10  C19         0      39.462  14.430  -8.888  1.00  0.00     0.096 C 
HETATM   11  C21         0      39.396  13.064  -8.864  1.00  0.00     0.084 C 
ENDROOT
BRANCH  10  12
HETATM   12  O20         0      40.125  15.033  -9.953  1.00  0.00    -0.359 OA
HETATM   13  H20         0      40.422  15.928  -9.843  1.00  0.00     0.218 HD
ENDBRANCH  10  12
BRANCH   4  14
HETATM   14  C5          0      38.791   8.984  -8.701  1.00  0.00     0.025 C 
HETATM   15  C6          0      38.035   8.526  -9.770  1.00  0.00     0.004 C 
HETATM   16  C7          0      38.275   7.233 -10.223  1.00  0.00     0.026 C 
HETATM   17  C8          0      39.140   6.374  -9.553  1.00  0.00     0.112 C 
HETATM   18  C10         0      39.334   6.677  -8.212  1.00  0.00     0.112 C 
HETATM   19  C12         0      39.170   7.995  -7.802  1.00  0.00     0.028 C 
BRANCH  17  20
HETATM   20  O9          0      39.890   5.441 -10.246  1.00  0.00    -0.357 OA
HETATM   21  H9          0      39.572   4.577 -10.481  1.00  0.00     0.218 HD
ENDBRANCH  17  20
BRANCH  18  22
HETATM   22  O11         0      40.034   5.750  -7.453  1.00  0.00    -0.357 OA
HETATM   23  H11         0      39.529   5.048  -7.059  1.00  0.00     0.218 HD
ENDBRANCH  18  22
ENDBRANCH   4  14
BRANCH   8  24
HETATM   24  O17         0      36.299  15.081  -7.245  1.00  0.00    -0.359 OA
HETATM   25  H17         0      36.078  15.940  -7.585  1.00  0.00     0.218 HD
ENDBRANCH   8  24
TORSDOF 5
ENDMDL
MODEL 3
REMARK VINA RESULT:      -0.9      1.604      1.715
REMARK  5 active torsions:
REMARK  status: ('A' for Active; 'I' for Inactive)
REMARK    1  A    between atoms: C4_4  and  C5_5 
REMARK    2  A    between atoms: C8_8  and  O9_9 
REMARK    3  A    between atoms: C10_11  and  O11_12 
REMARK    4  A    between atoms: C16_18  and  O17_19 
REMARK    5  A    between atoms: C19_22  and  O20_23 
ROOT
HETATM    1  O1          0      37.431  12.641 -13.235  1.00  0.00    -0.286 OA
HETATM    2  C2          0      38.320  12.919 -12.385  1.00  0.00     0.201 C 
HETATM    3  C3          0      38.888  11.967 -11.555  1.00  0.00     0.067 C 
HETATM    4  C4          0      39.791  12.317 -10.557  1.00  0.00     0.103 C 
HETATM    5  O13         0      40.125  13.588 -10.419  1.00  0.00    -0.307 OA
HETATM    6  C14         0      39.587  14.535 -11.156  1.00  0.00     0.107 C 
HETATM    7  C15         0      39.617  15.867 -10.769  1.00  0.00     0.049 C 
HETATM    8  C16         0      38.837  16.822 -11.410  1.00  0.00     0.093 C 
HETATM    9  C18         0      38.478  16.507 -12.715  1.00  0.00     0.048 C 
HETATM   10  C19         0      38.483  15.189 -13.149  1.00  0.00     0.096 C 
HETATM   11  C21         0      38.860  14.193 -12.291  1.00  0.00     0.084 C 
ENDROOT
BRANCH  10  12
HETATM   12  O20         0      37.730  14.838 -14.266  1.00  0.00    -0.359 OA
HETATM   13  H20         0      38.104  15.000 -15.124  1.00  0.00     0.218 HD
ENDBRANCH  10  12
BRANCH   4  14
HETATM   14  C5          0      39.874  11.436  -9.390  1.00  0.00     0.025 C 
HETATM   15  C6          0      40.125  11.906  -8.110  1.00  0.00     0.004 C 
HETATM   16  C7          0      39.445  11.302  -7.057  1.00  0.00     0.026 C 
HETATM   17  C8          0      38.646  10.181  -7.252  1.00  0.00     0.112 C 
HETATM   18  C10         0      38.957   9.437  -8.382  1.00  0.00     0.112 C 
HETATM   19  C12         0      39.560  10.085  -9.454  1.00  0.00     0.028 C 
BRANCH  17  20
HETATM   20  O9          0      37.512   9.977  -6.486  1.00  0.00    -0.357 OA
HETATM   21  H9          0      36.806   9.390  -6.733  1.00  0.00     0.218 HD
ENDBRANCH  17  20
BRANCH  18  22
HETATM   22  O11         0      38.320   8.212  -8.523  1.00  0.00    -0.357 OA
HETATM   23  H11         0      38.386   7.606  -7.794  1.00  0.00     0.218 HD
ENDBRANCH  18  22
ENDBRANCH   4  14
BRANCH   8  24
HETATM   24  O17         0      38.192  17.837 -10.694  1.00  0.00    -0.359 OA
HETATM   25  H17         0      37.292  18.080 -10.874  1.00  0.00     0.218 HD
ENDBRANCH   8  24
TORSDOF 5
ENDMDL
MODEL 4
REMARK VINA RESULT:      -0.9      1.684      6.721
REMARK  5 active torsions:
REMARK  status: ('A' for Active; 'I' for Inactive)
REMARK    1  A    between atoms: C4_4  and  C5_5 
REMARK    2  A    between atoms: C8_8  and  O9_9 
REMARK    3  A    between atoms: C10_11  and  O11_12 
REMARK    4  A    between atoms: C16_18  and  O17_19 
REMARK    5  A    between atoms: C19_22  and  O20_23 
ROOT
HETATM    1  O1          0      38.766  13.891  -6.820  1.00  0.00    -0.286 OA
HETATM    2  C2          0      39.235  13.813  -7.988  1.00  0.00     0.201 C 
HETATM    3  C3          0      39.261  14.888  -8.860  1.00  0.00     0.067 C 
HETATM    4  C4          0      39.688  14.750 -10.176  1.00  0.00     0.103 C 
HETATM    5  O13         0      40.097  13.563 -10.589  1.00  0.00    -0.307 OA
HETATM    6  C14         0      40.058  12.501  -9.813  1.00  0.00     0.107 C 
HETATM    7  C15         0      40.096  11.215 -10.333  1.00  0.00     0.049 C 
HETATM    8  C16         0      39.801  10.110  -9.544  1.00  0.00     0.093 C 
HETATM    9  C18         0      39.996  10.292  -8.180  1.00  0.00     0.048 C 
HETATM   10  C19         0      40.011  11.569  -7.634  1.00  0.00     0.096 C 
HETATM   11  C21         0      39.848  12.657  -8.448  1.00  0.00     0.084 C 
ENDROOT
BRANCH  10  12
HETATM   12  O20         0      39.769  11.729  -6.274  1.00  0.00    -0.359 OA
HETATM   13  H20         0      38.904  12.017  -6.006  1.00  0.00     0.218 HD
ENDBRANCH  10  12
BRANCH   4  14
HETATM   14  C5          0      39.146  15.690 -11.159  1.00  0.00     0.025 C 
HETATM   15  C6          0      39.132  15.428 -12.521  1.00  0.00     0.004 C 
HETATM   16  C7          0      38.018  15.841 -13.245  1.00  0.00     0.026 C 
HETATM   17  C8          0      37.012  16.606 -12.664  1.00  0.00     0.112 C 
HETATM   18  C10         0      37.406  17.326 -11.544  1.00  0.00     0.112 C 
HETATM   19  C12         0      38.469  16.845 -10.789  1.00  0.00     0.028 C 
BRANCH  17  20
HETATM   20  O9          0      35.696  16.468 -13.065  1.00  0.00    -0.357 OA
HETATM   21  H9          0      35.128  17.201 -13.276  1.00  0.00     0.218 HD
ENDBRANCH  17  20
BRANCH  18  22
HETATM   22  O11         0      36.499  18.247 -11.039  1.00  0.00    -0.357 OA
HETATM   23  H11         0      36.449  18.328 -10.094  1.00  0.00     0.218 HD
ENDBRANCH  18  22
ENDBRANCH   4  14
BRANCH   8  24
HETATM   24  O17         0      39.054   9.037 -10.043  1.00  0.00    -0.359 OA
HETATM   25  H17         0      38.173   8.856  -9.736  1.00  0.00     0.218 HD
ENDBRANCH   8  24
TORSDOF 5
ENDMDL
MODEL 5
REMARK VINA RESULT:      -0.9      2.417      4.057
REMARK  5 active torsions:
REMARK  status: ('A' for Active; 'I' for Inactive)
REMARK    1  A    between atoms: C4_4  and  C5_5 
REMARK    2  A    between atoms: C8_8  and  O9_9 
REMARK    3  A    between atoms: C10_11  and  O11_12 
REMARK    4  A    between atoms: C16_18  and  O17_19 
REMARK    5  A    between atoms: C19_22  and  O20_23 
ROOT
HETATM    1  O1          0      39.677   9.879 -11.295  1.00  0.00    -0.286 OA
HETATM    2  C2          0      39.822  11.002 -10.740  1.00  0.00     0.201 C 
HETATM    3  C3          0      40.063  11.144  -9.384  1.00  0.00     0.067 C 
HETATM    4  C4          0      40.117  12.395  -8.780  1.00  0.00     0.103 C 
HETATM    5  O13         0      39.953  13.470  -9.531  1.00  0.00    -0.307 OA
HETATM    6  C14         0      39.684  13.391 -10.816  1.00  0.00     0.107 C 
HETATM    7  C15         0      39.126  14.452 -11.513  1.00  0.00     0.049 C 
HETATM    8  C16         0      38.612  14.284 -12.793  1.00  0.00     0.093 C 
HETATM    9  C18         0      39.147  13.218 -13.505  1.00  0.00     0.048 C 
HETATM   10  C19         0      39.755  12.161 -12.842  1.00  0.00     0.096 C 
HETATM   11  C21         0      39.843  12.177 -11.476  1.00  0.00     0.084 C 
ENDROOT
BRANCH  10  12
HETATM   12  O20         0      39.886  10.936 -13.489  1.00  0.00    -0.359 OA
HETATM   13  H20         0      39.134  10.357 -13.503  1.00  0.00     0.218 HD
ENDBRANCH  10  12
BRANCH   4  14
HETATM   14  C5          0      39.771  12.469  -7.359  1.00  0.00     0.025 C 
HETATM   15  C6          0      39.288  13.624  -6.762  1.00  0.00     0.004 C 
HETATM   16  C7          0      38.296  13.484  -5.797  1.00  0.00     0.026 C 
HETATM   17  C8          0      37.891  12.233  -5.343  1.00  0.00     0.112 C 
HETATM   18  C10         0      38.830  11.224  -5.511  1.00  0.00     0.112 C 
HETATM   19  C12         0      39.758  11.349  -6.538  1.00  0.00     0.028 C 
BRANCH  17  20
HETATM   20  O9          0      36.581  12.007  -4.961  1.00  0.00    -0.357 OA
HETATM   21  H9          0      36.296  11.956  -4.055  1.00  0.00     0.218 HD
ENDBRANCH  17  20
BRANCH  18  22
HETATM   22  O11         0      38.556  10.004  -4.908  1.00  0.00    -0.357 OA
HETATM   23  H11         0      38.901   9.227  -5.333  1.00  0.00     0.218 HD
ENDBRANCH  18  22
ENDBRANCH   4  14
BRANCH   8  24
HETATM   24  O17         0      37.429  14.917 -13.193  1.00  0.00    -0.359 OA
HETATM   25  H17         0      36.965  15.516 -12.620  1.00  0.00     0.218 HD
ENDBRANCH   8  24
TORSDOF 5
ENDMDL
MODEL 6
REMARK VINA RESULT:      -0.8     13.324     14.629
REMARK  5 active torsions:
REMARK  status: ('A' for Active; 'I' for Inactive)
REMARK    1  A    between atoms: C4_4  and  C5_5 
REMARK    2  A    between atoms: C8_8  and  O9_9 
REMARK    3  A    between atoms: C10_11  and  O11_12 
REMARK    4  A    between atoms: C16_18  and  O17_19 
REMARK    5  A    between atoms: C19_22  and  O20_23 
ROOT
HETATM    1  O1          0      25.789  16.627  -4.228  1.00  0.00    -0.286 OA
HETATM    2  C2          0      26.506  17.467  -3.618  1.00  0.00     0.201 C 
HETATM    3  C3          0      27.881  17.343  -3.509  1.00  0.00     0.067 C 
HETATM    4  C4          0      28.634  18.227  -2.745  1.00  0.00     0.103 C 
HETATM    5  O13         0      28.017  19.219  -2.129  1.00  0.00    -0.307 OA
HETATM    6  C14         0      26.710  19.361  -2.169  1.00  0.00     0.107 C 
HETATM    7  C15         0      26.029  20.125  -1.232  1.00  0.00     0.049 C 
HETATM    8  C16         0      24.645  20.068  -1.123  1.00  0.00     0.093 C 
HETATM    9  C18         0      23.981  19.666  -2.275  1.00  0.00     0.048 C 
HETATM   10  C19         0      24.645  18.940  -3.255  1.00  0.00     0.096 C 
HETATM   11  C21         0      25.968  18.632  -3.092  1.00  0.00     0.084 C 
ENDROOT
BRANCH  10  12
HETATM   12  O20         0      23.906  18.185  -4.161  1.00  0.00    -0.359 OA
HETATM   13  H20         0      24.222  18.128  -5.054  1.00  0.00     0.218 HD
ENDBRANCH  10  12
BRANCH   4  14
HETATM   14  C5          0      29.893  17.727  -2.190  1.00  0.00     0.025 C 
HETATM   15  C6          0      30.588  16.660  -2.742  1.00  0.00     0.004 C 
HETATM   16  C7          0      31.977  16.734  -2.757  1.00  0.00     0.026 C 
HETATM   17  C8          0      32.659  17.769  -2.126  1.00  0.00     0.112 C 
HETATM   18  C10         0      31.952  18.392  -1.107  1.00  0.00     0.112 C 
HETATM   19  C12         0      30.563  18.376  -1.161  1.00  0.00     0.028 C 
BRANCH  17  20
HETATM   20  O9          0      33.853  18.247  -2.637  1.00  0.00    -0.357 OA
HETATM   21  H9          0      33.909  18.862  -3.359  1.00  0.00     0.218 HD
ENDBRANCH  17  20
BRANCH  18  22
HETATM   22  O11         0      32.649  19.299  -0.321  1.00  0.00    -0.357 OA
HETATM   23  H11         0      33.556  19.091  -0.126  1.00  0.00     0.218 HD
ENDBRANCH  18  22
ENDBRANCH   4  14
BRANCH   8  24
HETATM   24  O17         0      24.010  20.081   0.125  1.00  0.00    -0.359 OA
HETATM   25  H17         0      23.615  19.299   0.492  1.00  0.00     0.218 HD
ENDBRANCH   8  24
TORSDOF 5
ENDMDL
MODEL 7
REMARK VINA RESULT:      -0.8      3.446      5.911
REMARK  5 active torsions:
REMARK  status: ('A' for Active; 'I' for Inactive)
REMARK    1  A    between atoms: C4_4  and  C5_5 
REMARK    2  A    between atoms: C8_8  and  O9_9 
REMARK    3  A    between atoms: C10_11  and  O11_12 
REMARK    4  A    between atoms: C16_18  and  O17_19 
REMARK    5  A    between atoms: C19_22  and  O20_23 
ROOT
HETATM    1  O1          0      38.913  14.421 -10.739  1.00  0.00    -0.286 OA
HETATM    2  C2          0      39.345  13.280 -11.059  1.00  0.00     0.201 C 
HETATM    3  C3          0      39.347  12.817 -12.363  1.00  0.00     0.067 C 
HETATM    4  C4          0      39.733  11.518 -12.675  1.00  0.00     0.103 C 
HETATM    5  O13         0      40.125  10.720 -11.697  1.00  0.00    -0.307 OA
HETATM    6  C14         0      40.107  11.098 -10.437  1.00  0.00     0.107 C 
HETATM    7  C15         0      40.125  10.178  -9.398  1.00  0.00     0.049 C 
HETATM    8  C16         0      39.850  10.561  -8.091  1.00  0.00     0.093 C 
HETATM    9  C18         0      40.088  11.901  -7.809  1.00  0.00     0.048 C 
HETATM   10  C19         0      40.124  12.841  -8.830  1.00  0.00     0.096 C 
HETATM   11  C21         0      39.939  12.443 -10.126  1.00  0.00     0.084 C 
ENDROOT
BRANCH  10  12
HETATM   12  O20         0      39.925  14.184  -8.526  1.00  0.00    -0.359 OA
HETATM   13  H20         0      39.068  14.556  -8.695  1.00  0.00     0.218 HD
ENDBRANCH  10  12
BRANCH   4  14
HETATM   14  C5          0      39.163  10.922 -13.885  1.00  0.00     0.025 C 
HETATM   15  C6          0      39.076   9.551 -14.078  1.00  0.00     0.004 C 
HETATM   16  C7          0      37.937   9.061 -14.709  1.00  0.00     0.026 C 
HETATM   17  C8          0      36.979   9.911 -15.249  1.00  0.00     0.112 C 
HETATM   18  C10         0      37.443  11.181 -15.567  1.00  0.00     0.112 C 
HETATM   19  C12         0      38.532  11.681 -14.862  1.00  0.00     0.028 C 
BRANCH  17  20
HETATM   20  O9          0      35.641   9.559 -15.256  1.00  0.00    -0.357 OA
HETATM   21  H9          0      35.013   9.881 -15.893  1.00  0.00     0.218 HD
ENDBRANCH  17  20
BRANCH  18  22
HETATM   22  O11         0      36.584  12.004 -16.280  1.00  0.00    -0.357 OA
HETATM   23  H11         0      36.949  12.811 -16.625  1.00  0.00     0.218 HD
ENDBRANCH  18  22
ENDBRANCH   4  14
BRANCH   8  24
HETATM   24  O17         0      39.085   9.755  -7.241  1.00  0.00    -0.359 OA
HETATM   25  H17         0      39.143   9.830  -6.296  1.00  0.00     0.218 HD
ENDBRANCH   8  24
TORSDOF 5
ENDMDL
MODEL 8
REMARK VINA RESULT:      -0.8     15.714     17.190
REMARK  5 active torsions:
REMARK  status: ('A' for Active; 'I' for Inactive)
REMARK    1  A    between atoms: C4_4  and  C5_5 
REMARK    2  A    between atoms: C8_8  and  O9_9 
REMARK    3  A    between atoms: C10_11  and  O11_12 
REMARK    4  A    between atoms: C16_18  and  O17_19 
REMARK    5  A    between atoms: C19_22  and  O20_23 
ROOT
HETATM    1  O1          0      24.140  16.521  -3.769  1.00  0.00    -0.286 OA
HETATM    2  C2          0      24.320  17.677  -3.297  1.00  0.00     0.201 C 
HETATM    3  C3          0      25.573  18.253  -3.177  1.00  0.00     0.067 C 
HETATM    4  C4          0      25.753  19.485  -2.559  1.00  0.00     0.103 C 
HETATM    5  O13         0      24.693  20.124  -2.097  1.00  0.00    -0.307 OA
HETATM    6  C14         0      23.485  19.606  -2.152  1.00  0.00     0.107 C 
HETATM    7  C15         0      22.457  20.061  -1.339  1.00  0.00     0.049 C 
HETATM    8  C16         0      21.268  19.352  -1.215  1.00  0.00     0.093 C 
HETATM    9  C18         0      20.962  18.528  -2.291  1.00  0.00     0.048 C 
HETATM   10  C19         0      21.959  18.092  -3.153  1.00  0.00     0.096 C 
HETATM   11  C21         0      23.252  18.492  -2.951  1.00  0.00     0.084 C 
ENDROOT
BRANCH  10  12
HETATM   12  O20         0      21.741  16.959  -3.930  1.00  0.00    -0.359 OA
HETATM   13  H20         0      21.432  17.082  -4.819  1.00  0.00     0.218 HD
ENDBRANCH  10  12
BRANCH   4  14
HETATM   14  C5          0      27.055  19.741  -1.941  1.00  0.00     0.025 C 
HETATM   15  C6          0      27.203  20.026  -0.591  1.00  0.00     0.004 C 
HETATM   16  C7          0      28.306  19.488   0.064  1.00  0.00     0.026 C 
HETATM   17  C8          0      29.301  18.802  -0.625  1.00  0.00     0.112 C 
HETATM   18  C10         0      29.392  19.114  -1.975  1.00  0.00     0.112 C 
HETATM   19  C12         0      28.251  19.570  -2.626  1.00  0.00     0.028 C 
BRANCH  17  20
HETATM   20  O9          0      29.978  17.751  -0.033  1.00  0.00    -0.357 OA
HETATM   21  H9          0      29.600  16.890   0.105  1.00  0.00     0.218 HD
ENDBRANCH  17  20
BRANCH  18  22
HETATM   22  O11         0      30.481  18.604  -2.666  1.00  0.00    -0.357 OA
HETATM   23  H11         0      31.344  18.829  -2.337  1.00  0.00     0.218 HD
ENDBRANCH  18  22
ENDBRANCH   4  14
BRANCH   8  24
HETATM   24  O17         0      20.621  19.223   0.019  1.00  0.00    -0.359 OA
HETATM   25  H17         0      20.463  18.374   0.413  1.00  0.00     0.218 HD
ENDBRANCH   8  24
TORSDOF 5
ENDMDL
MODEL 9
REMARK VINA RESULT:      -0.8      2.707      5.679
REMARK  5 active torsions:
REMARK  status: ('A' for Active; 'I' for Inactive)
REMARK    1  A    between atoms: C4_4  and  C5_5 
REMARK    2  A    between atoms: C8_8  and  O9_9 
REMARK    3  A    between atoms: C10_11  and  O11_12 
REMARK    4  A    between atoms: C16_18  and  O17_19 
REMARK    5  A    between atoms: C19_22  and  O20_23 
ROOT
HETATM    1  O1          0      38.577  10.055  -9.939  1.00  0.00    -0.286 OA
HETATM    2  C2          0      39.115  11.187 -10.092  1.00  0.00     0.201 C 
HETATM    3  C3          0      39.268  12.091  -9.055  1.00  0.00     0.067 C 
HETATM    4  C4          0      39.769  13.369  -9.271  1.00  0.00     0.103 C 
HETATM    5  O13         0      40.125  13.713 -10.496  1.00  0.00    -0.307 OA
HETATM    6  C14         0      39.966  12.906 -11.522  1.00  0.00     0.107 C 
HETATM    7  C15         0      39.952  13.377 -12.827  1.00  0.00     0.049 C 
HETATM    8  C16         0      39.534  12.573 -13.881  1.00  0.00     0.093 C 
HETATM    9  C18         0      39.652  11.207 -13.659  1.00  0.00     0.048 C 
HETATM   10  C19         0      39.715  10.705 -12.366  1.00  0.00     0.096 C 
HETATM   11  C21         0      39.678  11.564 -11.302  1.00  0.00     0.084 C 
ENDROOT
BRANCH  10  12
HETATM   12  O20         0      39.397   9.369 -12.138  1.00  0.00    -0.359 OA
HETATM   13  H20         0      40.077   8.721 -12.269  1.00  0.00     0.218 HD
ENDBRANCH  10  12
BRANCH   4  14
HETATM   14  C5          0      39.355  14.418  -8.337  1.00  0.00     0.025 C 
HETATM   15  C6          0      39.979  15.656  -8.271  1.00  0.00     0.004 C 
HETATM   16  C7          0      39.176  16.771  -8.056  1.00  0.00     0.026 C 
HETATM   17  C8          0      37.818  16.650  -7.780  1.00  0.00     0.112 C 
HETATM   18  C10         0      37.441  15.423  -7.251  1.00  0.00     0.112 C 
HETATM   19  C12         0      38.214  14.308  -7.553  1.00  0.00     0.028 C 
BRANCH  17  20
HETATM   20  O9          0      36.920  17.611  -8.208  1.00  0.00    -0.357 OA
HETATM   21  H9          0      36.930  17.993  -9.079  1.00  0.00     0.218 HD
ENDBRANCH  17  20
BRANCH  18  22
HETATM   22  O11         0      36.139  15.314  -6.783  1.00  0.00    -0.357 OA
HETATM   23  H11         0      35.981  15.581  -5.885  1.00  0.00     0.218 HD
ENDBRANCH  18  22
ENDBRANCH   4  14
BRANCH   8  24
HETATM   24  O17         0      38.752  13.085 -14.922  1.00  0.00    -0.359 OA
HETATM   25  H17         0      37.826  12.885 -14.996  1.00  0.00     0.218 HD
ENDBRANCH   8  24
TORSDOF 5
ENDMDL
