MODEL 1
REMARK VINA RESULT:      -6.2      0.000      0.000
REMARK  5 active torsions:
REMARK  status: ('A' for Active; 'I' for Inactive)
REMARK    1  A    between atoms: C4_4  and  C5_5 
REMARK    2  A    between atoms: C8_8  and  O9_9 
REMARK    3  A    between atoms: C10_11  and  O11_12 
REMARK    4  A    between atoms: C16_18  and  O17_19 
REMARK    5  A    between atoms: C19_22  and  O20_23 
ROOT
HETATM    1  O1          0      24.007  56.598 -19.787  1.00  0.00    -0.286 OA
HETATM    2  C2          0      25.088  56.504 -20.431  1.00  0.00     0.201 C 
HETATM    3  C3          0      25.557  57.509 -21.260  1.00  0.00     0.067 C 
HETATM    4  C4          0      26.697  57.339 -22.037  1.00  0.00     0.103 C 
HETATM    5  O13         0      27.353  56.195 -21.960  1.00  0.00    -0.307 OA
HETATM    6  C14         0      26.930  55.195 -21.218  1.00  0.00     0.107 C 
HETATM    7  C15         0      27.361  53.893 -21.430  1.00  0.00     0.049 C 
HETATM    8  C16         0      26.729  52.816 -20.822  1.00  0.00     0.093 C 
HETATM    9  C18         0      26.053  53.118 -19.646  1.00  0.00     0.048 C 
HETATM   10  C19         0      25.648  54.419 -19.381  1.00  0.00     0.096 C 
HETATM   11  C21         0      25.931  55.415 -20.276  1.00  0.00     0.084 C 
ENDROOT
BRANCH  10  12
HETATM   12  O20         0      24.627  54.640 -18.461  1.00  0.00    -0.359 OA
HETATM   13  H20         0      24.394  53.929 -17.876  1.00  0.00     0.218 HD
ENDBRANCH  10  12
BRANCH   4  14
HETATM   14  C5          0      26.791  58.123 -23.270  1.00  0.00     0.025 C 
HETATM   15  C6          0      25.734  58.873 -23.766  1.00  0.00     0.004 C 
HETATM   16  C7          0      26.031  60.103 -24.343  1.00  0.00     0.026 C 
HETATM   17  C8          0      27.343  60.518 -24.542  1.00  0.00     0.112 C 
HETATM   18  C10         0      28.273  59.488 -24.610  1.00  0.00     0.112 C 
HETATM   19  C12         0      27.988  58.297 -23.953  1.00  0.00     0.028 C 
BRANCH  17  20
HETATM   20  O9          0      27.684  61.856 -24.459  1.00  0.00    -0.357 OA
HETATM   21  H9          0      27.811  62.319 -23.639  1.00  0.00     0.218 HD
ENDBRANCH  17  20
BRANCH  18  22
HETATM   22  O11         0      29.562  59.829 -24.994  1.00  0.00    -0.357 OA
HETATM   23  H11         0      30.274  59.367 -24.567  1.00  0.00     0.218 HD
ENDBRANCH  18  22
ENDBRANCH   4  14
BRANCH   8  24
HETATM   24  O17         0      26.508  51.617 -21.510  1.00  0.00    -0.359 OA
HETATM   25  H17         0      26.684  50.773 -21.111  1.00  0.00     0.218 HD
ENDBRANCH   8  24
TORSDOF 5
ENDMDL
MODEL 2
REMARK VINA RESULT:      -5.9      1.647      6.470
REMARK  5 active torsions:
REMARK  status: ('A' for Active; 'I' for Inactive)
REMARK    1  A    between atoms: C4_4  and  C5_5 
REMARK    2  A    between atoms: C8_8  and  O9_9 
REMARK    3  A    between atoms: C10_11  and  O11_12 
REMARK    4  A    between atoms: C16_18  and  O17_19 
REMARK    5  A    between atoms: C19_22  and  O20_23 
ROOT
HETATM    1  O1          0      26.338  60.753 -21.250  1.00  0.00    -0.286 OA
HETATM    2  C2          0      26.375  59.627 -21.819  1.00  0.00     0.201 C 
HETATM    3  C3          0      26.000  58.454 -21.186  1.00  0.00     0.067 C 
HETATM    4  C4          0      26.147  57.216 -21.801  1.00  0.00     0.103 C 
HETATM    5  O13         0      26.638  57.170 -23.027  1.00  0.00    -0.307 OA
HETATM    6  C14         0      27.043  58.250 -23.658  1.00  0.00     0.107 C 
HETATM    7  C15         0      27.906  58.182 -24.743  1.00  0.00     0.049 C 
HETATM    8  C16         0      28.529  59.320 -25.242  1.00  0.00     0.093 C 
HETATM    9  C18         0      27.867  60.514 -24.981  1.00  0.00     0.048 C 
HETATM   10  C19         0      26.962  60.604 -23.932  1.00  0.00     0.096 C 
HETATM   11  C21         0      26.707  59.504 -23.159  1.00  0.00     0.084 C 
ENDROOT
BRANCH  10  12
HETATM   12  O20         0      26.648  61.855 -23.410  1.00  0.00    -0.359 OA
HETATM   13  H20         0      27.239  62.231 -22.769  1.00  0.00     0.218 HD
ENDBRANCH  10  12
BRANCH   4  14
HETATM   14  C5          0      26.317  56.052 -20.930  1.00  0.00     0.025 C 
HETATM   15  C6          0      25.259  55.242 -20.542  1.00  0.00     0.004 C 
HETATM   16  C7          0      25.492  53.873 -20.462  1.00  0.00     0.026 C 
HETATM   17  C8          0      26.764  53.338 -20.630  1.00  0.00     0.112 C 
HETATM   18  C10         0      27.803  54.224 -20.379  1.00  0.00     0.112 C 
HETATM   19  C12         0      27.568  55.583 -20.549  1.00  0.00     0.028 C 
BRANCH  17  20
HETATM   20  O9          0      26.939  52.092 -21.205  1.00  0.00    -0.357 OA
HETATM   21  H9          0      26.231  51.477 -21.360  1.00  0.00     0.218 HD
ENDBRANCH  17  20
BRANCH  18  22
HETATM   22  O11         0      29.086  53.695 -20.347  1.00  0.00    -0.357 OA
HETATM   23  H11         0      29.771  54.204 -20.764  1.00  0.00     0.218 HD
ENDBRANCH  18  22
ENDBRANCH   4  14
BRANCH   8  24
HETATM   24  O17         0      29.863  59.295 -25.665  1.00  0.00    -0.359 OA
HETATM   25  H17         0      30.509  58.739 -25.245  1.00  0.00     0.218 HD
ENDBRANCH   8  24
TORSDOF 5
ENDMDL
MODEL 3
REMARK VINA RESULT:      -5.9      3.438      6.147
REMARK  5 active torsions:
REMARK  status: ('A' for Active; 'I' for Inactive)
REMARK    1  A    between atoms: C4_4  and  C5_5 
REMARK    2  A    between atoms: C8_8  and  O9_9 
REMARK    3  A    between atoms: C10_11  and  O11_12 
REMARK    4  A    between atoms: C16_18  and  O17_19 
REMARK    5  A    between atoms: C19_22  and  O20_23 
ROOT
HETATM    1  O1          0      27.705  56.876 -21.648  1.00  0.00    -0.286 OA
HETATM    2  C2          0      26.918  57.123 -22.603  1.00  0.00     0.201 C 
HETATM    3  C3          0      26.573  56.178 -23.554  1.00  0.00     0.067 C 
HETATM    4  C4          0      25.786  56.504 -24.653  1.00  0.00     0.103 C 
HETATM    5  O13         0      25.345  57.744 -24.772  1.00  0.00    -0.307 OA
HETATM    6  C14         0      25.674  58.688 -23.918  1.00  0.00     0.107 C 
HETATM    7  C15         0      25.562  60.034 -24.237  1.00  0.00     0.049 C 
HETATM    8  C16         0      26.143  61.015 -23.442  1.00  0.00     0.093 C 
HETATM    9  C18         0      26.348  60.651 -22.117  1.00  0.00     0.048 C 
HETATM   10  C19         0      26.418  59.313 -21.755  1.00  0.00     0.096 C 
HETATM   11  C21         0      26.268  58.343 -22.709  1.00  0.00     0.084 C 
ENDROOT
BRANCH  10  12
HETATM   12  O20         0      27.041  58.962 -20.561  1.00  0.00    -0.359 OA
HETATM   13  H20         0      26.507  58.573 -19.879  1.00  0.00     0.218 HD
ENDBRANCH  10  12
BRANCH   4  14
HETATM   14  C5          0      25.957  55.697 -25.862  1.00  0.00     0.025 C 
HETATM   15  C6          0      26.499  56.205 -27.034  1.00  0.00     0.004 C 
HETATM   16  C7          0      27.338  55.373 -27.769  1.00  0.00     0.026 C 
HETATM   17  C8          0      27.525  54.038 -27.425  1.00  0.00     0.112 C 
HETATM   18  C10         0      26.498  53.483 -26.674  1.00  0.00     0.112 C 
HETATM   19  C12         0      25.729  54.327 -25.882  1.00  0.00     0.028 C 
BRANCH  17  20
HETATM   20  O9          0      28.740  53.413 -27.647  1.00  0.00    -0.357 OA
HETATM   21  H9          0      28.952  52.544 -27.328  1.00  0.00     0.218 HD
ENDBRANCH  17  20
BRANCH  18  22
HETATM   22  O11         0      26.543  52.112 -26.465  1.00  0.00    -0.357 OA
HETATM   23  H11         0      27.403  51.716 -26.389  1.00  0.00     0.218 HD
ENDBRANCH  18  22
ENDBRANCH   4  14
BRANCH   8  24
HETATM   24  O17         0      26.772  62.131 -24.004  1.00  0.00    -0.359 OA
HETATM   25  H17         0      27.151  62.815 -23.465  1.00  0.00     0.218 HD
ENDBRANCH   8  24
TORSDOF 5
ENDMDL
MODEL 4
REMARK VINA RESULT:      -5.8      2.239      7.067
REMARK  5 active torsions:
REMARK  status: ('A' for Active; 'I' for Inactive)
REMARK    1  A    between atoms: C4_4  and  C5_5 
REMARK    2  A    between atoms: C8_8  and  O9_9 
REMARK    3  A    between atoms: C10_11  and  O11_12 
REMARK    4  A    between atoms: C16_18  and  O17_19 
REMARK    5  A    between atoms: C19_22  and  O20_23 
ROOT
HETATM    1  O1          0      26.212  56.681 -25.564  1.00  0.00    -0.286 OA
HETATM    2  C2          0      26.188  57.125 -24.383  1.00  0.00     0.201 C 
HETATM    3  C3          0      25.590  56.443 -23.337  1.00  0.00     0.067 C 
HETATM    4  C4          0      25.487  57.001 -22.068  1.00  0.00     0.103 C 
HETATM    5  O13         0      25.994  58.203 -21.860  1.00  0.00    -0.307 OA
HETATM    6  C14         0      26.539  58.908 -22.826  1.00  0.00     0.107 C 
HETATM    7  C15         0      26.703  60.282 -22.725  1.00  0.00     0.049 C 
HETATM    8  C16         0      27.038  61.053 -23.832  1.00  0.00     0.093 C 
HETATM    9  C18         0      27.698  60.368 -24.846  1.00  0.00     0.048 C 
HETATM   10  C19         0      27.594  58.987 -24.948  1.00  0.00     0.096 C 
HETATM   11  C21         0      26.849  58.293 -24.035  1.00  0.00     0.084 C 
ENDROOT
BRANCH  10  12
HETATM   12  O20         0      27.872  58.373 -26.165  1.00  0.00    -0.359 OA
HETATM   13  H20         0      27.635  57.459 -26.267  1.00  0.00     0.218 HD
ENDBRANCH  10  12
BRANCH   4  14
HETATM   14  C5          0      24.379  56.547 -21.225  1.00  0.00     0.025 C 
HETATM   15  C6          0      23.269  55.888 -21.733  1.00  0.00     0.004 C 
HETATM   16  C7          0      22.731  54.853 -20.975  1.00  0.00     0.026 C 
HETATM   17  C8          0      23.196  54.569 -19.695  1.00  0.00     0.112 C 
HETATM   18  C10         0      23.822  55.631 -19.056  1.00  0.00     0.112 C 
HETATM   19  C12         0      24.425  56.609 -19.838  1.00  0.00     0.028 C 
BRANCH  17  20
HETATM   20  O9          0      23.207  53.270 -19.217  1.00  0.00    -0.357 OA
HETATM   21  H9          0      22.631  52.585 -19.536  1.00  0.00     0.218 HD
ENDBRANCH  17  20
BRANCH  18  22
HETATM   22  O11         0      24.135  55.462 -17.715  1.00  0.00    -0.357 OA
HETATM   23  H11         0      23.415  55.263 -17.127  1.00  0.00     0.218 HD
ENDBRANCH  18  22
ENDBRANCH   4  14
BRANCH   8  24
HETATM   24  O17         0      26.462  62.309 -24.048  1.00  0.00    -0.359 OA
HETATM   25  H17         0      26.540  62.758 -24.882  1.00  0.00     0.218 HD
ENDBRANCH   8  24
TORSDOF 5
ENDMDL
MODEL 5
REMARK VINA RESULT:      -5.7      2.548      6.406
REMARK  5 active torsions:
REMARK  status: ('A' for Active; 'I' for Inactive)
REMARK    1  A    between atoms: C4_4  and  C5_5 
REMARK    2  A    between atoms: C8_8  and  O9_9 
REMARK    3  A    between atoms: C10_11  and  O11_12 
REMARK    4  A    between atoms: C16_18  and  O17_19 
REMARK    5  A    between atoms: C19_22  and  O20_23 
ROOT
HETATM    1  O1          0      27.096  57.659 -20.258  1.00  0.00    -0.286 OA
HETATM    2  C2          0      26.478  57.617 -21.357  1.00  0.00     0.201 C 
HETATM    3  C3          0      26.026  56.435 -21.919  1.00  0.00     0.067 C 
HETATM    4  C4          0      25.439  56.406 -23.179  1.00  0.00     0.103 C 
HETATM    5  O13         0      25.296  57.541 -23.839  1.00  0.00    -0.307 OA
HETATM    6  C14         0      25.741  58.685 -23.367  1.00  0.00     0.107 C 
HETATM    7  C15         0      25.958  59.781 -24.191  1.00  0.00     0.049 C 
HETATM    8  C16         0      26.661  60.892 -23.742  1.00  0.00     0.093 C 
HETATM    9  C18         0      26.652  61.076 -22.365  1.00  0.00     0.048 C 
HETATM   10  C19         0      26.392  60.011 -21.513  1.00  0.00     0.096 C 
HETATM   11  C21         0      26.125  58.774 -22.034  1.00  0.00     0.084 C 
ENDROOT
BRANCH  10  12
HETATM   12  O20         0      26.804  60.085 -20.186  1.00  0.00    -0.359 OA
HETATM   13  H20         0      26.369  60.710 -19.619  1.00  0.00     0.218 HD
ENDBRANCH  10  12
BRANCH   4  14
HETATM   14  C5          0      25.545  55.158 -23.938  1.00  0.00     0.025 C 
HETATM   15  C6          0      26.625  54.865 -24.758  1.00  0.00     0.004 C 
HETATM   16  C7          0      27.081  53.551 -24.778  1.00  0.00     0.026 C 
HETATM   17  C8          0      26.404  52.534 -24.113  1.00  0.00     0.112 C 
HETATM   18  C10         0      25.060  52.788 -23.879  1.00  0.00     0.112 C 
HETATM   19  C12         0      24.646  54.111 -23.778  1.00  0.00     0.028 C 
BRANCH  17  20
HETATM   20  O9          0      27.093  51.469 -23.558  1.00  0.00    -0.357 OA
HETATM   21  H9          0      26.925  50.560 -23.778  1.00  0.00     0.218 HD
ENDBRANCH  17  20
BRANCH  18  22
HETATM   22  O11         0      24.297  51.737 -23.391  1.00  0.00    -0.357 OA
HETATM   23  H11         0      23.523  51.500 -23.889  1.00  0.00     0.218 HD
ENDBRANCH  18  22
ENDBRANCH   4  14
BRANCH   8  24
HETATM   24  O17         0      27.571  61.562 -24.568  1.00  0.00    -0.359 OA
HETATM   25  H17         0      28.467  61.721 -24.296  1.00  0.00     0.218 HD
ENDBRANCH   8  24
TORSDOF 5
ENDMDL
MODEL 6
REMARK VINA RESULT:      -5.7      3.639      4.656
REMARK  5 active torsions:
REMARK  status: ('A' for Active; 'I' for Inactive)
REMARK    1  A    between atoms: C4_4  and  C5_5 
REMARK    2  A    between atoms: C8_8  and  O9_9 
REMARK    3  A    between atoms: C10_11  and  O11_12 
REMARK    4  A    between atoms: C16_18  and  O17_19 
REMARK    5  A    between atoms: C19_22  and  O20_23 
ROOT
HETATM    1  O1          0      22.775  55.522 -20.563  1.00  0.00    -0.286 OA
HETATM    2  C2          0      23.140  55.842 -21.728  1.00  0.00     0.201 C 
HETATM    3  C3          0      24.404  56.330 -22.011  1.00  0.00     0.067 C 
HETATM    4  C4          0      24.747  56.771 -23.284  1.00  0.00     0.103 C 
HETATM    5  O13         0      23.843  56.700 -24.245  1.00  0.00    -0.307 OA
HETATM    6  C14         0      22.617  56.280 -24.022  1.00  0.00     0.107 C 
HETATM    7  C15         0      21.575  56.570 -24.891  1.00  0.00     0.049 C 
HETATM    8  C16         0      20.251  56.349 -24.530  1.00  0.00     0.093 C 
HETATM    9  C18         0      20.063  55.379 -23.553  1.00  0.00     0.048 C 
HETATM   10  C19         0      21.099  55.030 -22.697  1.00  0.00     0.096 C 
HETATM   11  C21         0      22.320  55.634 -22.826  1.00  0.00     0.084 C 
ENDROOT
BRANCH  10  12
HETATM   12  O20         0      20.801  54.413 -21.486  1.00  0.00    -0.359 OA
HETATM   13  H20         0      20.367  54.929 -20.818  1.00  0.00     0.218 HD
ENDBRANCH  10  12
BRANCH   4  14
HETATM   14  C5          0      25.800  57.783 -23.381  1.00  0.00     0.025 C 
HETATM   15  C6          0      26.271  58.264 -24.594  1.00  0.00     0.004 C 
HETATM   16  C7          0      26.580  59.618 -24.674  1.00  0.00     0.026 C 
HETATM   17  C8          0      26.552  60.440 -23.552  1.00  0.00     0.112 C 
HETATM   18  C10         0      26.698  59.775 -22.342  1.00  0.00     0.112 C 
HETATM   19  C12         0      26.302  58.445 -22.268  1.00  0.00     0.028 C 
BRANCH  17  20
HETATM   20  O9          0      26.193  61.772 -23.658  1.00  0.00    -0.357 OA
HETATM   21  H9          0      25.357  62.068 -23.997  1.00  0.00     0.218 HD
ENDBRANCH  17  20
BRANCH  18  22
HETATM   22  O11         0      26.867  60.559 -21.210  1.00  0.00    -0.357 OA
HETATM   23  H11         0      27.446  60.223 -20.536  1.00  0.00     0.218 HD
ENDBRANCH  18  22
ENDBRANCH   4  14
BRANCH   8  24
HETATM   24  O17         0      19.242  57.257 -24.870  1.00  0.00    -0.359 OA
HETATM   25  H17         0      19.167  58.102 -24.443  1.00  0.00     0.218 HD
ENDBRANCH   8  24
TORSDOF 5
ENDMDL
MODEL 7
REMARK VINA RESULT:      -5.6      1.781      6.601
REMARK  5 active torsions:
REMARK  status: ('A' for Active; 'I' for Inactive)
REMARK    1  A    between atoms: C4_4  and  C5_5 
REMARK    2  A    between atoms: C8_8  and  O9_9 
REMARK    3  A    between atoms: C10_11  and  O11_12 
REMARK    4  A    between atoms: C16_18  and  O17_19 
REMARK    5  A    between atoms: C19_22  and  O20_23 
ROOT
HETATM    1  O1          0      25.257  58.423 -21.005  1.00  0.00    -0.286 OA
HETATM    2  C2          0      25.692  57.676 -21.924  1.00  0.00     0.201 C 
HETATM    3  C3          0      25.596  56.296 -21.878  1.00  0.00     0.067 C 
HETATM    4  C4          0      26.174  55.492 -22.855  1.00  0.00     0.103 C 
HETATM    5  O13         0      26.810  56.071 -23.858  1.00  0.00    -0.307 OA
HETATM    6  C14         0      26.963  57.375 -23.930  1.00  0.00     0.107 C 
HETATM    7  C15         0      27.940  57.954 -24.727  1.00  0.00     0.049 C 
HETATM    8  C16         0      28.265  59.300 -24.607  1.00  0.00     0.093 C 
HETATM    9  C18         0      27.257  60.102 -24.086  1.00  0.00     0.048 C 
HETATM   10  C19         0      26.238  59.549 -23.324  1.00  0.00     0.096 C 
HETATM   11  C21         0      26.215  58.200 -23.097  1.00  0.00     0.084 C 
ENDROOT
BRANCH  10  12
HETATM   12  O20         0      25.509  60.367 -22.465  1.00  0.00    -0.359 OA
HETATM   13  H20         0      25.972  61.063 -22.015  1.00  0.00     0.218 HD
ENDBRANCH  10  12
BRANCH   4  14
HETATM   14  C5          0      26.561  54.136 -22.463  1.00  0.00     0.025 C 
HETATM   15  C6          0      26.401  53.651 -21.173  1.00  0.00     0.004 C 
HETATM   16  C7          0      26.006  52.325 -21.027  1.00  0.00     0.026 C 
HETATM   17  C8          0      25.905  51.470 -22.119  1.00  0.00     0.112 C 
HETATM   18  C10         0      26.668  51.840 -23.218  1.00  0.00     0.112 C 
HETATM   19  C12         0      26.976  53.184 -23.386  1.00  0.00     0.028 C 
BRANCH  17  20
HETATM   20  O9          0      24.951  50.467 -22.149  1.00  0.00    -0.357 OA
HETATM   21  H9          0      24.863  49.803 -21.475  1.00  0.00     0.218 HD
ENDBRANCH  17  20
BRANCH  18  22
HETATM   22  O11         0      26.752  50.928 -24.261  1.00  0.00    -0.357 OA
HETATM   23  H11         0      26.293  50.104 -24.149  1.00  0.00     0.218 HD
ENDBRANCH  18  22
ENDBRANCH   4  14
BRANCH   8  24
HETATM   24  O17         0      29.591  59.739 -24.683  1.00  0.00    -0.359 OA
HETATM   25  H17         0      30.205  59.595 -23.973  1.00  0.00     0.218 HD
ENDBRANCH   8  24
TORSDOF 5
ENDMDL
MODEL 8
REMARK VINA RESULT:      -5.6      3.246      7.298
REMARK  5 active torsions:
REMARK  status: ('A' for Active; 'I' for Inactive)
REMARK    1  A    between atoms: C4_4  and  C5_5 
REMARK    2  A    between atoms: C8_8  and  O9_9 
REMARK    3  A    between atoms: C10_11  and  O11_12 
REMARK    4  A    between atoms: C16_18  and  O17_19 
REMARK    5  A    between atoms: C19_22  and  O20_23 
ROOT
HETATM    1  O1          0      26.783  57.059 -26.552  1.00  0.00    -0.286 OA
HETATM    2  C2          0      26.260  57.323 -25.435  1.00  0.00     0.201 C 
HETATM    3  C3          0      25.256  56.551 -24.875  1.00  0.00     0.067 C 
HETATM    4  C4          0      24.626  56.922 -23.692  1.00  0.00     0.103 C 
HETATM    5  O13         0      25.016  58.029 -23.085  1.00  0.00    -0.307 OA
HETATM    6  C14         0      25.938  58.817 -23.593  1.00  0.00     0.107 C 
HETATM    7  C15         0      26.069  60.140 -23.196  1.00  0.00     0.049 C 
HETATM    8  C16         0      26.863  61.031 -23.907  1.00  0.00     0.093 C 
HETATM    9  C18         0      27.883  60.447 -24.648  1.00  0.00     0.048 C 
HETATM   10  C19         0      27.807  59.112 -25.022  1.00  0.00     0.096 C 
HETATM   11  C21         0      26.727  58.361 -24.644  1.00  0.00     0.084 C 
ENDROOT
BRANCH  10  12
HETATM   12  O20         0      28.571  58.661 -26.094  1.00  0.00    -0.359 OA
HETATM   13  H20         0      29.515  58.755 -26.039  1.00  0.00     0.218 HD
ENDBRANCH  10  12
BRANCH   4  14
HETATM   14  C5          0      23.254  56.452 -23.488  1.00  0.00     0.025 C 
HETATM   15  C6          0      22.311  56.422 -24.505  1.00  0.00     0.004 C 
HETATM   16  C7          0      21.434  55.342 -24.538  1.00  0.00     0.026 C 
HETATM   17  C8          0      21.404  54.395 -23.520  1.00  0.00     0.112 C 
HETATM   18  C10         0      21.898  54.839 -22.300  1.00  0.00     0.112 C 
HETATM   19  C12         0      22.838  55.862 -22.302  1.00  0.00     0.028 C 
BRANCH  17  20
HETATM   20  O9          0      21.103  53.072 -23.791  1.00  0.00    -0.357 OA
HETATM   21  H9          0      21.599  52.337 -23.451  1.00  0.00     0.218 HD
ENDBRANCH  17  20
BRANCH  18  22
HETATM   22  O11         0      21.719  54.002 -21.208  1.00  0.00    -0.357 OA
HETATM   23  H11         0      22.074  53.123 -21.277  1.00  0.00     0.218 HD
ENDBRANCH  18  22
ENDBRANCH   4  14
BRANCH   8  24
HETATM   24  O17         0      26.460  62.354 -24.124  1.00  0.00    -0.359 OA
HETATM   25  H17         0      25.731  62.566 -24.694  1.00  0.00     0.218 HD
ENDBRANCH   8  24
TORSDOF 5
ENDMDL
MODEL 9
REMARK VINA RESULT:      -5.5      2.213      3.035
REMARK  5 active torsions:
REMARK  status: ('A' for Active; 'I' for Inactive)
REMARK    1  A    between atoms: C4_4  and  C5_5 
REMARK    2  A    between atoms: C8_8  and  O9_9 
REMARK    3  A    between atoms: C10_11  and  O11_12 
REMARK    4  A    between atoms: C16_18  and  O17_19 
REMARK    5  A    between atoms: C19_22  and  O20_23 
ROOT
HETATM    1  O1          0      23.316  55.309 -23.726  1.00  0.00    -0.286 OA
HETATM    2  C2          0      23.907  56.118 -22.960  1.00  0.00     0.201 C 
HETATM    3  C3          0      24.753  57.111 -23.425  1.00  0.00     0.067 C 
HETATM    4  C4          0      25.472  57.922 -22.555  1.00  0.00     0.103 C 
HETATM    5  O13         0      25.322  57.747 -21.254  1.00  0.00    -0.307 OA
HETATM    6  C14         0      24.562  56.795 -20.760  1.00  0.00     0.107 C 
HETATM    7  C15         0      24.705  56.350 -19.454  1.00  0.00     0.049 C 
HETATM    8  C16         0      24.085  55.185 -19.016  1.00  0.00     0.093 C 
HETATM    9  C18         0      22.952  54.819 -19.733  1.00  0.00     0.048 C 
HETATM   10  C19         0      22.754  55.284 -21.026  1.00  0.00     0.096 C 
HETATM   11  C21         0      23.673  56.124 -21.593  1.00  0.00     0.084 C 
ENDROOT
BRANCH  10  12
HETATM   12  O20         0      21.890  54.596 -21.872  1.00  0.00    -0.359 OA
HETATM   13  H20         0      20.969  54.572 -21.643  1.00  0.00     0.218 HD
ENDBRANCH  10  12
BRANCH   4  14
HETATM   14  C5          0      26.728  58.487 -23.051  1.00  0.00     0.025 C 
HETATM   15  C6          0      27.762  57.705 -23.545  1.00  0.00     0.004 C 
HETATM   16  C7          0      28.468  58.187 -24.642  1.00  0.00     0.026 C 
HETATM   17  C8          0      28.246  59.463 -25.149  1.00  0.00     0.112 C 
HETATM   18  C10         0      27.693  60.359 -24.243  1.00  0.00     0.112 C 
HETATM   19  C12         0      26.921  59.855 -23.203  1.00  0.00     0.028 C 
BRANCH  17  20
HETATM   20  O9          0      28.376  59.721 -26.502  1.00  0.00    -0.357 OA
HETATM   21  H9          0      28.751  59.107 -27.123  1.00  0.00     0.218 HD
ENDBRANCH  17  20
BRANCH  18  22
HETATM   22  O11         0      27.626  61.688 -24.635  1.00  0.00    -0.357 OA
HETATM   23  H11         0      26.775  62.015 -24.903  1.00  0.00     0.218 HD
ENDBRANCH  18  22
ENDBRANCH   4  14
BRANCH   8  24
HETATM   24  O17         0      24.735  54.290 -18.160  1.00  0.00    -0.359 OA
HETATM   25  H17         0      24.460  54.172 -17.259  1.00  0.00     0.218 HD
ENDBRANCH   8  24
TORSDOF 5
ENDMDL
