MODEL 1
REMARK VINA RESULT:      -0.5      0.000      0.000
REMARK  5 active torsions:
REMARK  status: ('A' for Active; 'I' for Inactive)
REMARK    1  A    between atoms: C4_4  and  C5_5 
REMARK    2  A    between atoms: C8_8  and  O9_9 
REMARK    3  A    between atoms: C10_11  and  O11_12 
REMARK    4  A    between atoms: C16_18  and  O17_19 
REMARK    5  A    between atoms: C19_22  and  O20_23 
ROOT
HETATM    1  O1          0      38.643  13.424 -15.286  1.00  0.00    -0.286 OA
HETATM    2  C2          0      39.162  13.199 -14.159  1.00  0.00     0.201 C 
HETATM    3  C3          0      39.548  11.933 -13.750  1.00  0.00     0.067 C 
HETATM    4  C4          0      40.023  11.696 -12.465  1.00  0.00     0.103 C 
HETATM    5  O13         0      40.123  12.713 -11.628  1.00  0.00    -0.307 OA
HETATM    6  C14         0      39.736  13.927 -11.952  1.00  0.00     0.107 C 
HETATM    7  C15         0      39.462  14.888 -10.991  1.00  0.00     0.049 C 
HETATM    8  C16         0      38.815  16.074 -11.319  1.00  0.00     0.093 C 
HETATM    9  C18         0      38.946  16.466 -12.646  1.00  0.00     0.048 C 
HETATM   10  C19         0      39.265  15.537 -13.627  1.00  0.00     0.096 C 
HETATM   11  C21         0      39.470  14.229 -13.284  1.00  0.00     0.084 C 
ENDROOT
BRANCH  10  12
HETATM   12  O20         0      38.971  15.824 -14.957  1.00  0.00    -0.359 OA
HETATM   13  H20         0      39.697  15.944 -15.558  1.00  0.00     0.218 HD
ENDBRANCH  10  12
BRANCH   4  14
HETATM   14  C5          0      39.836  10.350 -11.920  1.00  0.00     0.025 C 
HETATM   15  C6          0      40.022  10.049 -10.579  1.00  0.00     0.004 C 
HETATM   16  C7          0      39.145   9.142  -9.994  1.00  0.00     0.026 C 
HETATM   17  C8          0      38.198   8.454 -10.745  1.00  0.00     0.112 C 
HETATM   18  C10         0      38.501   8.339 -12.095  1.00  0.00     0.112 C 
HETATM   19  C12         0      39.312   9.307 -12.675  1.00  0.00     0.028 C 
BRANCH  17  20
HETATM   20  O9          0      36.971   8.117 -10.202  1.00  0.00    -0.357 OA
HETATM   21  H9          0      36.831   7.948  -9.277  1.00  0.00     0.218 HD
ENDBRANCH  17  20
BRANCH  18  22
HETATM   22  O11         0      37.691   7.505 -12.853  1.00  0.00    -0.357 OA
HETATM   23  H11         0      38.119   6.975 -13.515  1.00  0.00     0.218 HD
ENDBRANCH  18  22
ENDBRANCH   4  14
BRANCH   8  24
HETATM   24  O17         0      37.845  16.632 -10.479  1.00  0.00    -0.359 OA
HETATM   25  H17         0      37.730  17.572 -10.406  1.00  0.00     0.218 HD
ENDBRANCH   8  24
TORSDOF 5
ENDMDL
MODEL 2
REMARK VINA RESULT:      -0.5      1.949      2.307
REMARK  5 active torsions:
REMARK  status: ('A' for Active; 'I' for Inactive)
REMARK    1  A    between atoms: C4_4  and  C5_5 
REMARK    2  A    between atoms: C8_8  and  O9_9 
REMARK    3  A    between atoms: C10_11  and  O11_12 
REMARK    4  A    between atoms: C16_18  and  O17_19 
REMARK    5  A    between atoms: C19_22  and  O20_23 
ROOT
HETATM    1  O1          0      35.490  14.055 -13.471  1.00  0.00    -0.286 OA
HETATM    2  C2          0      36.739  14.150 -13.320  1.00  0.00     0.201 C 
HETATM    3  C3          0      37.571  13.046 -13.240  1.00  0.00     0.067 C 
HETATM    4  C4          0      38.929  13.174 -12.971  1.00  0.00     0.103 C 
HETATM    5  O13         0      39.432  14.385 -12.810  1.00  0.00    -0.307 OA
HETATM    6  C14         0      38.680  15.464 -12.838  1.00  0.00     0.107 C 
HETATM    7  C15         0      39.104  16.665 -12.286  1.00  0.00     0.049 C 
HETATM    8  C16         0      38.221  17.720 -12.090  1.00  0.00     0.093 C 
HETATM    9  C18         0      37.108  17.716 -12.922  1.00  0.00     0.048 C 
HETATM   10  C19         0      36.684  16.541 -13.528  1.00  0.00     0.096 C 
HETATM   11  C21         0      37.378  15.380 -13.318  1.00  0.00     0.084 C 
ENDROOT
BRANCH  10  12
HETATM   12  O20         0      35.372  16.443 -13.980  1.00  0.00    -0.359 OA
HETATM   13  H20         0      34.770  15.898 -13.488  1.00  0.00     0.218 HD
ENDBRANCH  10  12
BRANCH   4  14
HETATM   14  C5          0      39.593  12.043 -12.322  1.00  0.00     0.025 C 
HETATM   15  C6          0      40.125  12.115 -11.043  1.00  0.00     0.004 C 
HETATM   16  C7          0      39.988  10.999 -10.224  1.00  0.00     0.026 C 
HETATM   17  C8          0      39.461   9.804 -10.701  1.00  0.00     0.112 C 
HETATM   18  C10         0      39.559   9.636 -12.076  1.00  0.00     0.112 C 
HETATM   19  C12         0      39.609  10.770 -12.878  1.00  0.00     0.028 C 
BRANCH  17  20
HETATM   20  O9          0      38.720   8.976  -9.877  1.00  0.00    -0.357 OA
HETATM   21  H9          0      37.821   9.150  -9.625  1.00  0.00     0.218 HD
ENDBRANCH  17  20
BRANCH  18  22
HETATM   22  O11         0      39.224   8.388 -12.582  1.00  0.00    -0.357 OA
HETATM   23  H11         0      38.364   8.301 -12.977  1.00  0.00     0.218 HD
ENDBRANCH  18  22
ENDBRANCH   4  14
BRANCH   8  24
HETATM   24  O17         0      38.276  18.512 -10.938  1.00  0.00    -0.359 OA
HETATM   25  H17         0      38.581  19.412 -10.965  1.00  0.00     0.218 HD
ENDBRANCH   8  24
TORSDOF 5
ENDMDL
MODEL 3
REMARK VINA RESULT:      -0.5      3.222      6.172
REMARK  5 active torsions:
REMARK  status: ('A' for Active; 'I' for Inactive)
REMARK    1  A    between atoms: C4_4  and  C5_5 
REMARK    2  A    between atoms: C8_8  and  O9_9 
REMARK    3  A    between atoms: C10_11  and  O11_12 
REMARK    4  A    between atoms: C16_18  and  O17_19 
REMARK    5  A    between atoms: C19_22  and  O20_23 
ROOT
HETATM    1  O1          0      36.021  11.799 -16.088  1.00  0.00    -0.286 OA
HETATM    2  C2          0      36.576  11.042 -15.245  1.00  0.00     0.201 C 
HETATM    3  C3          0      36.718  11.382 -13.910  1.00  0.00     0.067 C 
HETATM    4  C4          0      37.424  10.576 -13.024  1.00  0.00     0.103 C 
HETATM    5  O13         0      37.951   9.450 -13.473  1.00  0.00    -0.307 OA
HETATM    6  C14         0      37.878   9.099 -14.738  1.00  0.00     0.107 C 
HETATM    7  C15         0      38.741   8.162 -15.287  1.00  0.00     0.049 C 
HETATM    8  C16         0      38.830   7.982 -16.662  1.00  0.00     0.093 C 
HETATM    9  C18         0      37.701   8.360 -17.378  1.00  0.00     0.048 C 
HETATM   10  C19         0      36.792   9.260 -16.839  1.00  0.00     0.096 C 
HETATM   11  C21         0      37.001   9.767 -15.585  1.00  0.00     0.084 C 
ENDROOT
BRANCH  10  12
HETATM   12  O20         0      35.935   9.953 -17.689  1.00  0.00    -0.359 OA
HETATM   13  H20         0      35.520  10.740 -17.357  1.00  0.00     0.218 HD
ENDBRANCH  10  12
BRANCH   4  14
HETATM   14  C5          0      38.037  11.230 -11.867  1.00  0.00     0.025 C 
HETATM   15  C6          0      39.363  11.035 -11.509  1.00  0.00     0.004 C 
HETATM   16  C7          0      40.070  12.135 -11.033  1.00  0.00     0.026 C 
HETATM   17  C8          0      39.447  13.355 -10.793  1.00  0.00     0.112 C 
HETATM   18  C10         0      38.079  13.273 -10.572  1.00  0.00     0.112 C 
HETATM   19  C12         0      37.382  12.208 -11.131  1.00  0.00     0.028 C 
BRANCH  17  20
HETATM   20  O9          0      40.125  14.546 -10.980  1.00  0.00    -0.357 OA
HETATM   21  H9          0      40.217  14.975 -11.823  1.00  0.00     0.218 HD
ENDBRANCH  17  20
BRANCH  18  22
HETATM   22  O11         0      37.441  14.428 -10.142  1.00  0.00    -0.357 OA
HETATM   23  H11         0      37.639  14.727  -9.262  1.00  0.00     0.218 HD
ENDBRANCH  18  22
ENDBRANCH   4  14
BRANCH   8  24
HETATM   24  O17         0      40.062   7.766 -17.291  1.00  0.00    -0.359 OA
HETATM   25  H17         0      40.775   8.389 -17.218  1.00  0.00     0.218 HD
ENDBRANCH   8  24
TORSDOF 5
ENDMDL
MODEL 4
REMARK VINA RESULT:      -0.5      2.879      3.802
REMARK  5 active torsions:
REMARK  status: ('A' for Active; 'I' for Inactive)
REMARK    1  A    between atoms: C4_4  and  C5_5 
REMARK    2  A    between atoms: C8_8  and  O9_9 
REMARK    3  A    between atoms: C10_11  and  O11_12 
REMARK    4  A    between atoms: C16_18  and  O17_19 
REMARK    5  A    between atoms: C19_22  and  O20_23 
ROOT
HETATM    1  O1          0      37.039  12.553 -15.034  1.00  0.00    -0.286 OA
HETATM    2  C2          0      37.401  11.652 -14.228  1.00  0.00     0.201 C 
HETATM    3  C3          0      36.728  10.450 -14.095  1.00  0.00     0.067 C 
HETATM    4  C4          0      37.086   9.517 -13.128  1.00  0.00     0.103 C 
HETATM    5  O13         0      38.107   9.786 -12.334  1.00  0.00    -0.307 OA
HETATM    6  C14         0      38.757  10.928 -12.393  1.00  0.00     0.107 C 
HETATM    7  C15         0      39.538  11.380 -11.340  1.00  0.00     0.049 C 
HETATM    8  C16         0      40.011  12.686 -11.300  1.00  0.00     0.093 C 
HETATM    9  C18         0      40.124  13.307 -12.538  1.00  0.00     0.048 C 
HETATM   10  C19         0      39.392  12.852 -13.625  1.00  0.00     0.096 C 
HETATM   11  C21         0      38.564  11.772 -13.482  1.00  0.00     0.084 C 
ENDROOT
BRANCH  10  12
HETATM   12  O20         0      39.170  13.705 -14.702  1.00  0.00    -0.359 OA
HETATM   13  H20         0      38.890  13.321 -15.524  1.00  0.00     0.218 HD
ENDBRANCH  10  12
BRANCH   4  14
HETATM   14  C5          0      36.037   8.616 -12.646  1.00  0.00     0.025 C 
HETATM   15  C6          0      35.944   8.210 -11.323  1.00  0.00     0.004 C 
HETATM   16  C7          0      34.672   8.094 -10.773  1.00  0.00     0.026 C 
HETATM   17  C8          0      33.526   8.245 -11.546  1.00  0.00     0.112 C 
HETATM   18  C10         0      33.708   8.015 -12.903  1.00  0.00     0.112 C 
HETATM   19  C12         0      34.971   8.221 -13.444  1.00  0.00     0.028 C 
BRANCH  17  20
HETATM   20  O9          0      32.373   8.787 -11.006  1.00  0.00    -0.357 OA
HETATM   21  H9          0      32.261   8.975 -10.082  1.00  0.00     0.218 HD
ENDBRANCH  17  20
BRANCH  18  22
HETATM   22  O11         0      32.566   7.966 -13.691  1.00  0.00    -0.357 OA
HETATM   23  H11         0      31.930   7.292 -13.484  1.00  0.00     0.218 HD
ENDBRANCH  18  22
ENDBRANCH   4  14
BRANCH   8  24
HETATM   24  O17         0      40.041  13.414 -10.105  1.00  0.00    -0.359 OA
HETATM   25  H17         0      40.278  13.009  -9.279  1.00  0.00     0.218 HD
ENDBRANCH   8  24
TORSDOF 5
ENDMDL
MODEL 5
REMARK VINA RESULT:      -0.5      4.054      5.954
REMARK  5 active torsions:
REMARK  status: ('A' for Active; 'I' for Inactive)
REMARK    1  A    between atoms: C4_4  and  C5_5 
REMARK    2  A    between atoms: C8_8  and  O9_9 
REMARK    3  A    between atoms: C10_11  and  O11_12 
REMARK    4  A    between atoms: C16_18  and  O17_19 
REMARK    5  A    between atoms: C19_22  and  O20_23 
ROOT
HETATM    1  O1          0      38.712   8.259 -12.692  1.00  0.00    -0.286 OA
HETATM    2  C2          0      37.904   9.201 -12.463  1.00  0.00     0.201 C 
HETATM    3  C3          0      36.709   9.349 -13.146  1.00  0.00     0.067 C 
HETATM    4  C4          0      35.887  10.451 -12.946  1.00  0.00     0.103 C 
HETATM    5  O13         0      36.254  11.365 -12.066  1.00  0.00    -0.307 OA
HETATM    6  C14         0      37.395  11.293 -11.417  1.00  0.00     0.107 C 
HETATM    7  C15         0      37.966  12.405 -10.816  1.00  0.00     0.049 C 
HETATM    8  C16         0      39.278  12.385 -10.358  1.00  0.00     0.093 C 
HETATM    9  C18         0      39.772  11.124 -10.049  1.00  0.00     0.048 C 
HETATM   10  C19         0      39.195   9.986 -10.597  1.00  0.00     0.096 C 
HETATM   11  C21         0      38.120  10.106 -11.435  1.00  0.00     0.084 C 
ENDROOT
BRANCH  10  12
HETATM   12  O20         0      39.930   8.806 -10.644  1.00  0.00    -0.359 OA
HETATM   13  H20         0      39.502   8.028 -10.980  1.00  0.00     0.218 HD
ENDBRANCH  10  12
BRANCH   4  14
HETATM   14  C5          0      35.020  10.850 -14.057  1.00  0.00     0.025 C 
HETATM   15  C6          0      34.155   9.969 -14.689  1.00  0.00     0.004 C 
HETATM   16  C7          0      32.910  10.455 -15.077  1.00  0.00     0.026 C 
HETATM   17  C8          0      32.585  11.802 -14.963  1.00  0.00     0.112 C 
HETATM   18  C10         0      33.676  12.661 -14.933  1.00  0.00     0.112 C 
HETATM   19  C12         0      34.888  12.173 -14.460  1.00  0.00     0.028 C 
BRANCH  17  20
HETATM   20  O9          0      31.288  12.198 -14.690  1.00  0.00    -0.357 OA
HETATM   21  H9          0      31.064  12.887 -14.075  1.00  0.00     0.218 HD
ENDBRANCH  17  20
BRANCH  18  22
HETATM   22  O11         0      33.407  14.020 -15.011  1.00  0.00    -0.357 OA
HETATM   23  H11         0      33.278  14.481 -14.190  1.00  0.00     0.218 HD
ENDBRANCH  18  22
ENDBRANCH   4  14
BRANCH   8  24
HETATM   24  O17         0      40.125  13.487 -10.522  1.00  0.00    -0.359 OA
HETATM   25  H17         0      41.047  13.382 -10.723  1.00  0.00     0.218 HD
ENDBRANCH   8  24
TORSDOF 5
ENDMDL
MODEL 6
REMARK VINA RESULT:      -0.5      2.037      3.017
REMARK  5 active torsions:
REMARK  status: ('A' for Active; 'I' for Inactive)
REMARK    1  A    between atoms: C4_4  and  C5_5 
REMARK    2  A    between atoms: C8_8  and  O9_9 
REMARK    3  A    between atoms: C10_11  and  O11_12 
REMARK    4  A    between atoms: C16_18  and  O17_19 
REMARK    5  A    between atoms: C19_22  and  O20_23 
ROOT
HETATM    1  O1          0      38.788  12.405 -15.870  1.00  0.00    -0.286 OA
HETATM    2  C2          0      39.242  11.765 -14.882  1.00  0.00     0.201 C 
HETATM    3  C3          0      39.241  10.382 -14.821  1.00  0.00     0.067 C 
HETATM    4  C4          0      39.652   9.703 -13.679  1.00  0.00     0.103 C 
HETATM    5  O13         0      40.071  10.405 -12.640  1.00  0.00    -0.307 OA
HETATM    6  C14         0      40.056  11.719 -12.632  1.00  0.00     0.107 C 
HETATM    7  C15         0      40.103  12.444 -11.450  1.00  0.00     0.049 C 
HETATM    8  C16         0      39.832  13.807 -11.428  1.00  0.00     0.093 C 
HETATM    9  C18         0      40.044  14.467 -12.632  1.00  0.00     0.048 C 
HETATM   10  C19         0      40.050  13.766 -13.830  1.00  0.00     0.096 C 
HETATM   11  C21         0      39.862  12.410 -13.824  1.00  0.00     0.084 C 
ENDROOT
BRANCH  10  12
HETATM   12  O20         0      39.825  14.450 -15.020  1.00  0.00    -0.359 OA
HETATM   13  H20         0      39.468  13.963 -15.753  1.00  0.00     0.218 HD
ENDBRANCH  10  12
BRANCH   4  14
HETATM   14  C5          0      39.085   8.373 -13.449  1.00  0.00     0.025 C 
HETATM   15  C6          0      38.409   7.664 -14.432  1.00  0.00     0.004 C 
HETATM   16  C7          0      38.609   6.289 -14.486  1.00  0.00     0.026 C 
HETATM   17  C8          0      39.348   5.620 -13.517  1.00  0.00     0.112 C 
HETATM   18  C10         0      39.429   6.275 -12.295  1.00  0.00     0.112 C 
HETATM   19  C12         0      39.311   7.660 -12.279  1.00  0.00     0.028 C 
BRANCH  17  20
HETATM   20  O9          0      40.101   4.506 -13.842  1.00  0.00    -0.357 OA
HETATM   21  H9          0      39.735   3.635 -13.952  1.00  0.00     0.218 HD
ENDBRANCH  17  20
BRANCH  18  22
HETATM   22  O11         0      39.990   5.570 -11.240  1.00  0.00    -0.357 OA
HETATM   23  H11         0      40.699   5.993 -10.768  1.00  0.00     0.218 HD
ENDBRANCH  18  22
ENDBRANCH   4  14
BRANCH   8  24
HETATM   24  O17         0      39.092  14.387 -10.391  1.00  0.00    -0.359 OA
HETATM   25  H17         0      38.906  15.318 -10.371  1.00  0.00     0.218 HD
ENDBRANCH   8  24
TORSDOF 5
ENDMDL
MODEL 7
REMARK VINA RESULT:      -0.5      2.956      3.353
REMARK  5 active torsions:
REMARK  status: ('A' for Active; 'I' for Inactive)
REMARK    1  A    between atoms: C4_4  and  C5_5 
REMARK    2  A    between atoms: C8_8  and  O9_9 
REMARK    3  A    between atoms: C10_11  and  O11_12 
REMARK    4  A    between atoms: C16_18  and  O17_19 
REMARK    5  A    between atoms: C19_22  and  O20_23 
ROOT
HETATM    1  O1          0      35.237  13.119 -14.695  1.00  0.00    -0.286 OA
HETATM    2  C2          0      36.086  13.602 -13.897  1.00  0.00     0.201 C 
HETATM    3  C3          0      37.353  13.068 -13.735  1.00  0.00     0.067 C 
HETATM    4  C4          0      38.233  13.557 -12.776  1.00  0.00     0.103 C 
HETATM    5  O13         0      37.847  14.569 -12.018  1.00  0.00    -0.307 OA
HETATM    6  C14         0      36.642  15.088 -12.105  1.00  0.00     0.107 C 
HETATM    7  C15         0      36.099  15.850 -11.081  1.00  0.00     0.049 C 
HETATM    8  C16         0      34.749  16.179 -11.064  1.00  0.00     0.093 C 
HETATM    9  C18         0      34.131  16.184 -12.308  1.00  0.00     0.048 C 
HETATM   10  C19         0      34.673  15.469 -13.368  1.00  0.00     0.096 C 
HETATM   11  C21         0      35.835  14.769 -13.191  1.00  0.00     0.084 C 
ENDROOT
BRANCH  10  12
HETATM   12  O20         0      33.858  15.121 -14.441  1.00  0.00    -0.359 OA
HETATM   13  H20         0      34.022  14.292 -14.875  1.00  0.00     0.218 HD
ENDBRANCH  10  12
BRANCH   4  14
HETATM   14  C5          0      39.238  12.629 -12.254  1.00  0.00     0.025 C 
HETATM   15  C6          0      39.869  12.813 -11.032  1.00  0.00     0.004 C 
HETATM   16  C7          0      40.121  11.683 -10.261  1.00  0.00     0.026 C 
HETATM   17  C8          0      39.877  10.402 -10.742  1.00  0.00     0.112 C 
HETATM   18  C10         0      39.864  10.295 -12.127  1.00  0.00     0.112 C 
HETATM   19  C12         0      39.525  11.419 -12.872  1.00  0.00     0.028 C 
BRANCH  17  20
HETATM   20  O9          0      39.475   9.389  -9.890  1.00  0.00    -0.357 OA
HETATM   21  H9          0      38.913   9.525  -9.136  1.00  0.00     0.218 HD
ENDBRANCH  17  20
BRANCH  18  22
HETATM   22  O11         0      39.814   9.015 -12.658  1.00  0.00    -0.357 OA
HETATM   23  H11         0      40.099   8.911 -13.559  1.00  0.00     0.218 HD
ENDBRANCH  18  22
ENDBRANCH   4  14
BRANCH   8  24
HETATM   24  O17         0      34.011  16.169  -9.875  1.00  0.00    -0.359 OA
HETATM   25  H17         0      34.423  16.013  -9.034  1.00  0.00     0.218 HD
ENDBRANCH   8  24
TORSDOF 5
ENDMDL
MODEL 8
REMARK VINA RESULT:      -0.4      3.449      5.394
REMARK  5 active torsions:
REMARK  status: ('A' for Active; 'I' for Inactive)
REMARK    1  A    between atoms: C4_4  and  C5_5 
REMARK    2  A    between atoms: C8_8  and  O9_9 
REMARK    3  A    between atoms: C10_11  and  O11_12 
REMARK    4  A    between atoms: C16_18  and  O17_19 
REMARK    5  A    between atoms: C19_22  and  O20_23 
ROOT
HETATM    1  O1          0      39.096   7.909 -14.939  1.00  0.00    -0.286 OA
HETATM    2  C2          0      39.473   7.789 -13.741  1.00  0.00     0.201 C 
HETATM    3  C3          0      39.688   6.560 -13.141  1.00  0.00     0.067 C 
HETATM    4  C4          0      40.002   6.453 -11.792  1.00  0.00     0.103 C 
HETATM    5  O13         0      40.117   7.558 -11.077  1.00  0.00    -0.307 OA
HETATM    6  C14         0      39.887   8.748 -11.587  1.00  0.00     0.107 C 
HETATM    7  C15         0      39.612   9.847 -10.786  1.00  0.00     0.049 C 
HETATM    8  C16         0      39.123  11.030 -11.326  1.00  0.00     0.093 C 
HETATM    9  C18         0      39.427  11.232 -12.667  1.00  0.00     0.048 C 
HETATM   10  C19         0      39.752  10.160 -13.487  1.00  0.00     0.096 C 
HETATM   11  C21         0      39.789   8.895 -12.967  1.00  0.00     0.084 C 
ENDROOT
BRANCH  10  12
HETATM   12  O20         0      39.625  10.295 -14.866  1.00  0.00    -0.359 OA
HETATM   13  H20         0      39.948  11.093 -15.267  1.00  0.00     0.218 HD
ENDBRANCH  10  12
BRANCH   4  14
HETATM   14  C5          0      39.629   5.210 -11.113  1.00  0.00     0.025 C 
HETATM   15  C6          0      38.644   5.153 -10.138  1.00  0.00     0.004 C 
HETATM   16  C7          0      37.811   4.038 -10.127  1.00  0.00     0.026 C 
HETATM   17  C8          0      38.033   2.954 -10.969  1.00  0.00     0.112 C 
HETATM   18  C10         0      39.341   2.827 -11.419  1.00  0.00     0.112 C 
HETATM   19  C12         0      40.125   3.972 -11.501  1.00  0.00     0.028 C 
BRANCH  17  20
HETATM   20  O9          0      36.975   2.213 -11.465  1.00  0.00    -0.357 OA
HETATM   21  H9          0      36.817   2.074 -12.392  1.00  0.00     0.218 HD
ENDBRANCH  17  20
BRANCH  18  22
HETATM   22  O11         0      39.660   1.664 -12.105  1.00  0.00    -0.357 OA
HETATM   23  H11         0      39.313   1.575 -12.985  1.00  0.00     0.218 HD
ENDBRANCH  18  22
ENDBRANCH   4  14
BRANCH   8  24
HETATM   24  O17         0      38.132  11.774 -10.676  1.00  0.00    -0.359 OA
HETATM   25  H17         0      37.281  11.923 -11.070  1.00  0.00     0.218 HD
ENDBRANCH   8  24
TORSDOF 5
ENDMDL
MODEL 9
REMARK VINA RESULT:      -0.4      3.654      4.745
REMARK  5 active torsions:
REMARK  status: ('A' for Active; 'I' for Inactive)
REMARK    1  A    between atoms: C4_4  and  C5_5 
REMARK    2  A    between atoms: C8_8  and  O9_9 
REMARK    3  A    between atoms: C10_11  and  O11_12 
REMARK    4  A    between atoms: C16_18  and  O17_19 
REMARK    5  A    between atoms: C19_22  and  O20_23 
ROOT
HETATM    1  O1          0      39.010  11.473 -11.067  1.00  0.00    -0.286 OA
HETATM    2  C2          0      37.992  12.187 -11.278  1.00  0.00     0.201 C 
HETATM    3  C3          0      36.774  11.659 -11.672  1.00  0.00     0.067 C 
HETATM    4  C4          0      35.697  12.476 -11.998  1.00  0.00     0.103 C 
HETATM    5  O13         0      35.844  13.786 -11.907  1.00  0.00    -0.307 OA
HETATM    6  C14         0      36.989  14.340 -11.574  1.00  0.00     0.107 C 
HETATM    7  C15         0      37.268  15.669 -11.858  1.00  0.00     0.049 C 
HETATM    8  C16         0      38.556  16.177 -11.739  1.00  0.00     0.093 C 
HETATM    9  C18         0      39.379  15.490 -10.855  1.00  0.00     0.048 C 
HETATM   10  C19         0      39.103  14.173 -10.513  1.00  0.00     0.096 C 
HETATM   11  C21         0      38.001  13.552 -11.037  1.00  0.00     0.084 C 
ENDROOT
BRANCH  10  12
HETATM   12  O20         0      40.122  13.374 -10.005  1.00  0.00    -0.359 OA
HETATM   13  H20         0      40.413  12.636 -10.528  1.00  0.00     0.218 HD
ENDBRANCH  10  12
BRANCH   4  14
HETATM   14  C5          0      34.711  11.941 -12.939  1.00  0.00     0.025 C 
HETATM   15  C6          0      34.055  12.731 -13.871  1.00  0.00     0.004 C 
HETATM   16  C7          0      33.824  12.186 -15.130  1.00  0.00     0.026 C 
HETATM   17  C8          0      34.114  10.856 -15.413  1.00  0.00     0.112 C 
HETATM   18  C10         0      34.153  10.022 -14.303  1.00  0.00     0.112 C 
HETATM   19  C12         0      34.470  10.579 -13.070  1.00  0.00     0.028 C 
BRANCH  17  20
HETATM   20  O9          0      34.532  10.475 -16.676  1.00  0.00    -0.357 OA
HETATM   21  H9          0      35.050   9.697 -16.848  1.00  0.00     0.218 HD
ENDBRANCH  17  20
BRANCH  18  22
HETATM   22  O11         0      34.250   8.659 -14.545  1.00  0.00    -0.357 OA
HETATM   23  H11         0      35.100   8.329 -14.810  1.00  0.00     0.218 HD
ENDBRANCH  18  22
ENDBRANCH   4  14
BRANCH   8  24
HETATM   24  O17         0      39.072  17.081 -12.674  1.00  0.00    -0.359 OA
HETATM   25  H17         0      39.005  18.020 -12.550  1.00  0.00     0.218 HD
ENDBRANCH   8  24
TORSDOF 5
ENDMDL
