MODEL 1
REMARK VINA RESULT:      -5.7      0.000      0.000
REMARK  5 active torsions:
REMARK  status: ('A' for Active; 'I' for Inactive)
REMARK    1  A    between atoms: C4_4  and  C5_5 
REMARK    2  A    between atoms: C8_8  and  O9_9 
REMARK    3  A    between atoms: C10_11  and  O11_12 
REMARK    4  A    between atoms: C16_18  and  O17_19 
REMARK    5  A    between atoms: C19_22  and  O20_23 
ROOT
HETATM    1  O1          0      21.745  96.464   5.234  1.00  0.00    -0.286 OA
HETATM    2  C2          0      22.127  97.086   6.263  1.00  0.00     0.201 C 
HETATM    3  C3          0      21.564  98.285   6.667  1.00  0.00     0.067 C 
HETATM    4  C4          0      22.071  99.001   7.745  1.00  0.00     0.103 C 
HETATM    5  O13         0      23.103  98.508   8.406  1.00  0.00    -0.307 OA
HETATM    6  C14         0      23.699  97.394   8.042  1.00  0.00     0.107 C 
HETATM    7  C15         0      24.986  97.083   8.457  1.00  0.00     0.049 C 
HETATM    8  C16         0      25.701  96.045   7.873  1.00  0.00     0.093 C 
HETATM    9  C18         0      24.924  95.052   7.288  1.00  0.00     0.048 C 
HETATM   10  C19         0      23.616  95.316   6.904  1.00  0.00     0.096 C 
HETATM   11  C21         0      23.083  96.557   7.117  1.00  0.00     0.084 C 
ENDROOT
BRANCH  10  12
HETATM   12  O20         0      23.009  94.499   5.955  1.00  0.00    -0.359 OA
HETATM   13  H20         0      23.536  93.823   5.547  1.00  0.00     0.218 HD
ENDBRANCH  10  12
BRANCH   4  14
HETATM   14  C5          0      21.862 100.450   7.744  1.00  0.00     0.025 C 
HETATM   15  C6          0      21.861 101.211   8.904  1.00  0.00     0.004 C 
HETATM   16  C7          0      22.447 102.471   8.849  1.00  0.00     0.026 C 
HETATM   17  C8          0      22.900 103.014   7.652  1.00  0.00     0.112 C 
HETATM   18  C10         0      22.302 102.487   6.514  1.00  0.00     0.112 C 
HETATM   19  C12         0      21.800 101.193   6.572  1.00  0.00     0.028 C 
BRANCH  17  20
HETATM   20  O9          0      24.003 103.848   7.623  1.00  0.00    -0.357 OA
HETATM   21  H9          0      24.490 104.054   6.833  1.00  0.00     0.218 HD
ENDBRANCH  17  20
BRANCH  18  22
HETATM   22  O11         0      22.577 103.120   5.310  1.00  0.00    -0.357 OA
HETATM   23  H11         0      22.149 103.954   5.155  1.00  0.00     0.218 HD
ENDBRANCH  18  22
ENDBRANCH   4  14
BRANCH   8  24
HETATM   24  O17         0      27.069  96.164   7.602  1.00  0.00    -0.359 OA
HETATM   25  H17         0      27.510  97.005   7.619  1.00  0.00     0.218 HD
ENDBRANCH   8  24
TORSDOF 5
ENDMDL
MODEL 2
REMARK VINA RESULT:      -5.6      3.934      5.747
REMARK  5 active torsions:
REMARK  status: ('A' for Active; 'I' for Inactive)
REMARK    1  A    between atoms: C4_4  and  C5_5 
REMARK    2  A    between atoms: C8_8  and  O9_9 
REMARK    3  A    between atoms: C10_11  and  O11_12 
REMARK    4  A    between atoms: C16_18  and  O17_19 
REMARK    5  A    between atoms: C19_22  and  O20_23 
ROOT
HETATM    1  O1          0      21.531  92.863   8.851  1.00  0.00    -0.286 OA
HETATM    2  C2          0      21.987  94.018   9.072  1.00  0.00     0.201 C 
HETATM    3  C3          0      22.627  94.771   8.102  1.00  0.00     0.067 C 
HETATM    4  C4          0      23.210  95.998   8.399  1.00  0.00     0.103 C 
HETATM    5  O13         0      23.129  96.456   9.636  1.00  0.00    -0.307 OA
HETATM    6  C14         0      22.566  95.765  10.602  1.00  0.00     0.107 C 
HETATM    7  C15         0      22.822  96.036  11.939  1.00  0.00     0.049 C 
HETATM    8  C16         0      22.434  95.154  12.941  1.00  0.00     0.093 C 
HETATM    9  C18         0      21.367  94.326  12.613  1.00  0.00     0.048 C 
HETATM   10  C19         0      21.055  94.071  11.284  1.00  0.00     0.096 C 
HETATM   11  C21         0      21.792  94.653  10.289  1.00  0.00     0.084 C 
ENDROOT
BRANCH  10  12
HETATM   12  O20         0      20.307  92.941  10.966  1.00  0.00    -0.359 OA
HETATM   13  H20         0      19.369  92.972  11.114  1.00  0.00     0.218 HD
ENDBRANCH  10  12
BRANCH   4  14
HETATM   14  C5          0      24.331  96.427   7.560  1.00  0.00     0.025 C 
HETATM   15  C6          0      25.611  95.909   7.693  1.00  0.00     0.004 C 
HETATM   16  C7          0      26.343  95.694   6.530  1.00  0.00     0.026 C 
HETATM   17  C8          0      25.873  96.103   5.286  1.00  0.00     0.112 C 
HETATM   18  C10         0      24.942  97.132   5.328  1.00  0.00     0.112 C 
HETATM   19  C12         0      24.164  97.272   6.471  1.00  0.00     0.028 C 
BRANCH  17  20
HETATM   20  O9          0      26.169  95.380   4.144  1.00  0.00    -0.357 OA
HETATM   21  H9          0      25.878  95.627   3.273  1.00  0.00     0.218 HD
ENDBRANCH  17  20
BRANCH  18  22
HETATM   22  O11         0      24.584  97.705   4.116  1.00  0.00    -0.357 OA
HETATM   23  H11         0      23.828  97.337   3.673  1.00  0.00     0.218 HD
ENDBRANCH  18  22
ENDBRANCH   4  14
BRANCH   8  24
HETATM   24  O17         0      23.257  94.892  14.041  1.00  0.00    -0.359 OA
HETATM   25  H17         0      22.959  95.030  14.932  1.00  0.00     0.218 HD
ENDBRANCH   8  24
TORSDOF 5
ENDMDL
MODEL 3
REMARK VINA RESULT:      -5.5      1.665      6.604
REMARK  5 active torsions:
REMARK  status: ('A' for Active; 'I' for Inactive)
REMARK    1  A    between atoms: C4_4  and  C5_5 
REMARK    2  A    between atoms: C8_8  and  O9_9 
REMARK    3  A    between atoms: C10_11  and  O11_12 
REMARK    4  A    between atoms: C16_18  and  O17_19 
REMARK    5  A    between atoms: C19_22  and  O20_23 
ROOT
HETATM    1  O1          0      24.228 100.376  11.164  1.00  0.00    -0.286 OA
HETATM    2  C2          0      23.649  99.771  10.221  1.00  0.00     0.201 C 
HETATM    3  C3          0      23.822  98.419   9.977  1.00  0.00     0.067 C 
HETATM    4  C4          0      23.254  97.799   8.870  1.00  0.00     0.103 C 
HETATM    5  O13         0      22.515  98.522   8.048  1.00  0.00    -0.307 OA
HETATM    6  C14         0      22.349  99.816   8.212  1.00  0.00     0.107 C 
HETATM    7  C15         0      21.931 100.637   7.174  1.00  0.00     0.049 C 
HETATM    8  C16         0      22.001 102.021   7.275  1.00  0.00     0.093 C 
HETATM    9  C18         0      21.987 102.516   8.574  1.00  0.00     0.048 C 
HETATM   10  C19         0      22.354 101.708   9.641  1.00  0.00     0.096 C 
HETATM   11  C21         0      22.718 100.408   9.415  1.00  0.00     0.084 C 
ENDROOT
BRANCH  10  12
HETATM   12  O20         0      22.755 102.299  10.836  1.00  0.00    -0.359 OA
HETATM   13  H20         0      22.096 102.441  11.505  1.00  0.00     0.218 HD
ENDBRANCH  10  12
BRANCH   4  14
HETATM   14  C5          0      23.928  96.608   8.350  1.00  0.00     0.025 C 
HETATM   15  C6          0      23.289  95.672   7.549  1.00  0.00     0.004 C 
HETATM   16  C7          0      24.019  95.110   6.507  1.00  0.00     0.026 C 
HETATM   17  C8          0      25.376  95.367   6.346  1.00  0.00     0.112 C 
HETATM   18  C10         0      26.032  95.767   7.502  1.00  0.00     0.112 C 
HETATM   19  C12         0      25.294  96.404   8.493  1.00  0.00     0.028 C 
BRANCH  17  20
HETATM   20  O9          0      25.944  95.417   5.085  1.00  0.00    -0.357 OA
HETATM   21  H9          0      26.881  95.436   4.928  1.00  0.00     0.218 HD
ENDBRANCH  17  20
BRANCH  18  22
HETATM   22  O11         0      27.416  95.854   7.443  1.00  0.00    -0.357 OA
HETATM   23  H11         0      27.866  95.190   6.933  1.00  0.00     0.218 HD
ENDBRANCH  18  22
ENDBRANCH   4  14
BRANCH   8  24
HETATM   24  O17         0      22.395 102.813   6.191  1.00  0.00    -0.359 OA
HETATM   25  H17         0      22.934 102.466   5.490  1.00  0.00     0.218 HD
ENDBRANCH   8  24
TORSDOF 5
ENDMDL
MODEL 4
REMARK VINA RESULT:      -5.4      2.527      3.322
REMARK  5 active torsions:
REMARK  status: ('A' for Active; 'I' for Inactive)
REMARK    1  A    between atoms: C4_4  and  C5_5 
REMARK    2  A    between atoms: C8_8  and  O9_9 
REMARK    3  A    between atoms: C10_11  and  O11_12 
REMARK    4  A    between atoms: C16_18  and  O17_19 
REMARK    5  A    between atoms: C19_22  and  O20_23 
ROOT
HETATM    1  O1          0      24.867  97.085   3.026  1.00  0.00    -0.286 OA
HETATM    2  C2          0      24.126  97.185   4.042  1.00  0.00     0.201 C 
HETATM    3  C3          0      22.883  97.795   4.007  1.00  0.00     0.067 C 
HETATM    4  C4          0      22.132  97.983   5.162  1.00  0.00     0.103 C 
HETATM    5  O13         0      22.616  97.548   6.312  1.00  0.00    -0.307 OA
HETATM    6  C14         0      23.806  96.996   6.406  1.00  0.00     0.107 C 
HETATM    7  C15         0      24.476  96.907   7.617  1.00  0.00     0.049 C 
HETATM    8  C16         0      25.821  96.562   7.674  1.00  0.00     0.093 C 
HETATM    9  C18         0      26.283  95.823   6.591  1.00  0.00     0.048 C 
HETATM   10  C19         0      25.610  95.852   5.378  1.00  0.00     0.096 C 
HETATM   11  C21         0      24.472  96.601   5.251  1.00  0.00     0.084 C 
ENDROOT
BRANCH  10  12
HETATM   12  O20         0      26.284  95.488   4.216  1.00  0.00    -0.359 OA
HETATM   13  H20         0      26.504  94.572   4.099  1.00  0.00     0.218 HD
ENDBRANCH  10  12
BRANCH   4  14
HETATM   14  C5          0      21.190  99.104   5.172  1.00  0.00     0.025 C 
HETATM   15  C6          0      19.903  99.009   4.662  1.00  0.00     0.004 C 
HETATM   16  C7          0      18.888  99.669   5.346  1.00  0.00     0.026 C 
HETATM   17  C8          0      19.159 100.505   6.424  1.00  0.00     0.112 C 
HETATM   18  C10         0      20.448 101.021   6.448  1.00  0.00     0.112 C 
HETATM   19  C12         0      21.460 100.297   5.829  1.00  0.00     0.028 C 
BRANCH  17  20
HETATM   20  O9          0      18.266 100.619   7.475  1.00  0.00    -0.357 OA
HETATM   21  H9          0      18.483 101.013   8.312  1.00  0.00     0.218 HD
ENDBRANCH  17  20
BRANCH  18  22
HETATM   22  O11         0      20.714 102.004   7.391  1.00  0.00    -0.357 OA
HETATM   23  H11         0      21.112 101.722   8.206  1.00  0.00     0.218 HD
ENDBRANCH  18  22
ENDBRANCH   4  14
BRANCH   8  24
HETATM   24  O17         0      26.699  97.191   8.563  1.00  0.00    -0.359 OA
HETATM   25  H17         0      26.453  97.979   9.034  1.00  0.00     0.218 HD
ENDBRANCH   8  24
TORSDOF 5
ENDMDL
MODEL 5
REMARK VINA RESULT:      -5.3      2.691      5.497
REMARK  5 active torsions:
REMARK  status: ('A' for Active; 'I' for Inactive)
REMARK    1  A    between atoms: C4_4  and  C5_5 
REMARK    2  A    between atoms: C8_8  and  O9_9 
REMARK    3  A    between atoms: C10_11  and  O11_12 
REMARK    4  A    between atoms: C16_18  and  O17_19 
REMARK    5  A    between atoms: C19_22  and  O20_23 
ROOT
HETATM    1  O1          0      26.238  96.824   9.268  1.00  0.00    -0.286 OA
HETATM    2  C2          0      25.100  97.126   8.815  1.00  0.00     0.201 C 
HETATM    3  C3          0      24.612  96.627   7.619  1.00  0.00     0.067 C 
HETATM    4  C4          0      23.399  97.056   7.092  1.00  0.00     0.103 C 
HETATM    5  O13         0      22.693  97.947   7.766  1.00  0.00    -0.307 OA
HETATM    6  C14         0      23.128  98.480   8.886  1.00  0.00     0.107 C 
HETATM    7  C15         0      22.611  99.670   9.378  1.00  0.00     0.049 C 
HETATM    8  C16         0      23.238 100.357  10.411  1.00  0.00     0.093 C 
HETATM    9  C18         0      24.032  99.573  11.240  1.00  0.00     0.048 C 
HETATM   10  C19         0      24.527  98.355  10.796  1.00  0.00     0.096 C 
HETATM   11  C21         0      24.218  97.913   9.539  1.00  0.00     0.084 C 
ENDROOT
BRANCH  10  12
HETATM   12  O20         0      25.637  97.801  11.427  1.00  0.00    -0.359 OA
HETATM   13  H20         0      25.967  96.973  11.101  1.00  0.00     0.218 HD
ENDBRANCH  10  12
BRANCH   4  14
HETATM   14  C5          0      23.237  96.982   5.639  1.00  0.00     0.025 C 
HETATM   15  C6          0      22.411  97.842   4.929  1.00  0.00     0.004 C 
HETATM   16  C7          0      22.854  98.280   3.685  1.00  0.00     0.026 C 
HETATM   17  C8          0      24.013  97.777   3.104  1.00  0.00     0.112 C 
HETATM   18  C10         0      24.395  96.524   3.564  1.00  0.00     0.112 C 
HETATM   19  C12         0      24.011  96.145   4.845  1.00  0.00     0.028 C 
BRANCH  17  20
HETATM   20  O9          0      24.807  98.575   2.301  1.00  0.00    -0.357 OA
HETATM   21  H9          0      24.537  98.904   1.451  1.00  0.00     0.218 HD
ENDBRANCH  17  20
BRANCH  18  22
HETATM   22  O11         0      25.431  95.895   2.888  1.00  0.00    -0.357 OA
HETATM   23  H11         0      25.434  95.970   1.941  1.00  0.00     0.218 HD
ENDBRANCH  18  22
ENDBRANCH   4  14
BRANCH   8  24
HETATM   24  O17         0      23.332 101.753  10.407  1.00  0.00    -0.359 OA
HETATM   25  H17         0      24.093 102.201  10.056  1.00  0.00     0.218 HD
ENDBRANCH   8  24
TORSDOF 5
ENDMDL
MODEL 6
REMARK VINA RESULT:      -5.2      3.805      6.387
REMARK  5 active torsions:
REMARK  status: ('A' for Active; 'I' for Inactive)
REMARK    1  A    between atoms: C4_4  and  C5_5 
REMARK    2  A    between atoms: C8_8  and  O9_9 
REMARK    3  A    between atoms: C10_11  and  O11_12 
REMARK    4  A    between atoms: C16_18  and  O17_19 
REMARK    5  A    between atoms: C19_22  and  O20_23 
ROOT
HETATM    1  O1          0      20.731  98.262   4.033  1.00  0.00    -0.286 OA
HETATM    2  C2          0      21.940  97.946   3.860  1.00  0.00     0.201 C 
HETATM    3  C3          0      22.552  96.914   4.551  1.00  0.00     0.067 C 
HETATM    4  C4          0      23.910  96.653   4.416  1.00  0.00     0.103 C 
HETATM    5  O13         0      24.622  97.401   3.592  1.00  0.00    -0.307 OA
HETATM    6  C14         0      24.099  98.417   2.942  1.00  0.00     0.107 C 
HETATM    7  C15         0      24.886  99.427   2.408  1.00  0.00     0.049 C 
HETATM    8  C16         0      24.326 100.613   1.951  1.00  0.00     0.093 C 
HETATM    9  C18         0      22.993 100.523   1.567  1.00  0.00     0.048 C 
HETATM   10  C19         0      22.189  99.498   2.045  1.00  0.00     0.096 C 
HETATM   11  C21         0      22.716  98.558   2.889  1.00  0.00     0.084 C 
ENDROOT
BRANCH  10  12
HETATM   12  O20         0      20.806  99.651   2.023  1.00  0.00    -0.359 OA
HETATM   13  H20         0      20.389  99.806   1.184  1.00  0.00     0.218 HD
ENDBRANCH  10  12
BRANCH   4  14
HETATM   14  C5          0      24.584  96.013   5.548  1.00  0.00     0.025 C 
HETATM   15  C6          0      25.960  95.845   5.606  1.00  0.00     0.004 C 
HETATM   16  C7          0      26.579  96.017   6.841  1.00  0.00     0.026 C 
HETATM   17  C8          0      25.843  96.216   8.004  1.00  0.00     0.112 C 
HETATM   18  C10         0      24.538  95.745   7.952  1.00  0.00     0.112 C 
HETATM   19  C12         0      23.914  95.664   6.713  1.00  0.00     0.028 C 
BRANCH  17  20
HETATM   20  O9          0      26.334  97.010   9.025  1.00  0.00    -0.357 OA
HETATM   21  H9          0      25.979  97.015   9.907  1.00  0.00     0.218 HD
ENDBRANCH  17  20
BRANCH  18  22
HETATM   22  O11         0      23.822  95.747   9.141  1.00  0.00    -0.357 OA
HETATM   23  H11         0      23.948  96.492   9.718  1.00  0.00     0.218 HD
ENDBRANCH  18  22
ENDBRANCH   4  14
BRANCH   8  24
HETATM   24  O17         0      24.943 101.848   2.181  1.00  0.00    -0.359 OA
HETATM   25  H17         0      24.683 102.631   1.710  1.00  0.00     0.218 HD
ENDBRANCH   8  24
TORSDOF 5
ENDMDL
MODEL 7
REMARK VINA RESULT:      -5.2      4.086      6.594
REMARK  5 active torsions:
REMARK  status: ('A' for Active; 'I' for Inactive)
REMARK    1  A    between atoms: C4_4  and  C5_5 
REMARK    2  A    between atoms: C8_8  and  O9_9 
REMARK    3  A    between atoms: C10_11  and  O11_12 
REMARK    4  A    between atoms: C16_18  and  O17_19 
REMARK    5  A    between atoms: C19_22  and  O20_23 
ROOT
HETATM    1  O1          0      20.398  92.653   9.452  1.00  0.00    -0.286 OA
HETATM    2  C2          0      21.180  92.785   8.470  1.00  0.00     0.201 C 
HETATM    3  C3          0      22.319  93.571   8.518  1.00  0.00     0.067 C 
HETATM    4  C4          0      23.107  93.782   7.393  1.00  0.00     0.103 C 
HETATM    5  O13         0      22.763  93.197   6.259  1.00  0.00    -0.307 OA
HETATM    6  C14         0      21.671  92.472   6.149  1.00  0.00     0.107 C 
HETATM    7  C15         0      21.097  92.197   4.916  1.00  0.00     0.049 C 
HETATM    8  C16         0      19.821  91.656   4.819  1.00  0.00     0.093 C 
HETATM    9  C18         0      19.401  90.939   5.933  1.00  0.00     0.048 C 
HETATM   10  C19         0      19.986  91.155   7.173  1.00  0.00     0.096 C 
HETATM   11  C21         0      20.996  92.070   7.296  1.00  0.00     0.084 C 
ENDROOT
BRANCH  10  12
HETATM   12  O20         0      19.299  90.783   8.324  1.00  0.00    -0.359 OA
HETATM   13  H20         0      18.452  90.366   8.221  1.00  0.00     0.218 HD
ENDBRANCH  10  12
BRANCH   4  14
HETATM   14  C5          0      23.880  95.024   7.339  1.00  0.00     0.025 C 
HETATM   15  C6          0      23.386  96.237   7.797  1.00  0.00     0.004 C 
HETATM   16  C7          0      24.271  97.086   8.454  1.00  0.00     0.026 C 
HETATM   17  C8          0      25.630  96.802   8.536  1.00  0.00     0.112 C 
HETATM   18  C10         0      26.105  95.951   7.547  1.00  0.00     0.112 C 
HETATM   19  C12         0      25.217  95.053   6.966  1.00  0.00     0.028 C 
BRANCH  17  20
HETATM   20  O9          0      26.367  97.179   9.644  1.00  0.00    -0.357 OA
HETATM   21  H9          0      26.000  97.635  10.392  1.00  0.00     0.218 HD
ENDBRANCH  17  20
BRANCH  18  22
HETATM   22  O11         0      27.480  95.785   7.468  1.00  0.00    -0.357 OA
HETATM   23  H11         0      28.003  96.572   7.367  1.00  0.00     0.218 HD
ENDBRANCH  18  22
ENDBRANCH   4  14
BRANCH   8  24
HETATM   24  O17         0      18.920  92.083   3.837  1.00  0.00    -0.359 OA
HETATM   25  H17         0      19.128  92.028   2.911  1.00  0.00     0.218 HD
ENDBRANCH   8  24
TORSDOF 5
ENDMDL
MODEL 8
REMARK VINA RESULT:      -5.1      1.993      6.739
REMARK  5 active torsions:
REMARK  status: ('A' for Active; 'I' for Inactive)
REMARK    1  A    between atoms: C4_4  and  C5_5 
REMARK    2  A    between atoms: C8_8  and  O9_9 
REMARK    3  A    between atoms: C10_11  and  O11_12 
REMARK    4  A    between atoms: C16_18  and  O17_19 
REMARK    5  A    between atoms: C19_22  and  O20_23 
ROOT
HETATM    1  O1          0      24.988 100.024  11.294  1.00  0.00    -0.286 OA
HETATM    2  C2          0      24.133  99.446  10.569  1.00  0.00     0.201 C 
HETATM    3  C3          0      24.075  98.069  10.430  1.00  0.00     0.067 C 
HETATM    4  C4          0      23.189  97.463   9.546  1.00  0.00     0.103 C 
HETATM    5  O13         0      22.373  98.227   8.841  1.00  0.00    -0.307 OA
HETATM    6  C14         0      22.413  99.539   8.907  1.00  0.00     0.107 C 
HETATM    7  C15         0      21.868 100.338   7.912  1.00  0.00     0.049 C 
HETATM    8  C16         0      22.132 101.701   7.856  1.00  0.00     0.093 C 
HETATM    9  C18         0      22.485 102.282   9.068  1.00  0.00     0.048 C 
HETATM   10  C19         0      22.990 101.504  10.102  1.00  0.00     0.096 C 
HETATM   11  C21         0      23.125 100.154   9.932  1.00  0.00     0.084 C 
ENDROOT
BRANCH  10  12
HETATM   12  O20         0      23.730 102.112  11.111  1.00  0.00    -0.359 OA
HETATM   13  H20         0      24.316 102.819  10.869  1.00  0.00     0.218 HD
ENDBRANCH  10  12
BRANCH   4  14
HETATM   14  C5          0      23.569  96.154   9.011  1.00  0.00     0.025 C 
HETATM   15  C6          0      22.857  94.995   9.283  1.00  0.00     0.004 C 
HETATM   16  C7          0      22.709  94.072   8.253  1.00  0.00     0.026 C 
HETATM   17  C8          0      23.358  94.230   7.033  1.00  0.00     0.112 C 
HETATM   18  C10         0      24.494  95.027   7.081  1.00  0.00     0.112 C 
HETATM   19  C12         0      24.578  95.999   8.070  1.00  0.00     0.028 C 
BRANCH  17  20
HETATM   20  O9          0      22.774  93.794   5.858  1.00  0.00    -0.357 OA
HETATM   21  H9          0      22.111  94.283   5.384  1.00  0.00     0.218 HD
ENDBRANCH  17  20
BRANCH  18  22
HETATM   22  O11         0      25.283  95.064   5.940  1.00  0.00    -0.357 OA
HETATM   23  H11         0      25.384  95.908   5.514  1.00  0.00     0.218 HD
ENDBRANCH  18  22
ENDBRANCH   4  14
BRANCH   8  24
HETATM   24  O17         0      22.355 102.351   6.637  1.00  0.00    -0.359 OA
HETATM   25  H17         0      21.802 102.195   5.880  1.00  0.00     0.218 HD
ENDBRANCH   8  24
TORSDOF 5
ENDMDL
MODEL 9
REMARK VINA RESULT:      -5.1      4.352      7.595
REMARK  5 active torsions:
REMARK  status: ('A' for Active; 'I' for Inactive)
REMARK    1  A    between atoms: C4_4  and  C5_5 
REMARK    2  A    between atoms: C8_8  and  O9_9 
REMARK    3  A    between atoms: C10_11  and  O11_12 
REMARK    4  A    between atoms: C16_18  and  O17_19 
REMARK    5  A    between atoms: C19_22  and  O20_23 
ROOT
HETATM    1  O1          0      22.469  94.755   9.932  1.00  0.00    -0.286 OA
HETATM    2  C2          0      22.676  94.712   8.688  1.00  0.00     0.201 C 
HETATM    3  C3          0      21.918  93.936   7.828  1.00  0.00     0.067 C 
HETATM    4  C4          0      22.231  93.827   6.478  1.00  0.00     0.103 C 
HETATM    5  O13         0      23.267  94.500   6.010  1.00  0.00    -0.307 OA
HETATM    6  C14         0      24.042  95.222   6.791  1.00  0.00     0.107 C 
HETATM    7  C15         0      25.323  95.593   6.408  1.00  0.00     0.049 C 
HETATM    8  C16         0      26.222  96.128   7.322  1.00  0.00     0.093 C 
HETATM    9  C18         0      25.642  96.746   8.423  1.00  0.00     0.048 C 
HETATM   10  C19         0      24.345  96.433   8.806  1.00  0.00     0.096 C 
HETATM   11  C21         0      23.626  95.521   8.083  1.00  0.00     0.084 C 
ENDROOT
BRANCH  10  12
HETATM   12  O20         0      23.937  96.702  10.109  1.00  0.00    -0.359 OA
HETATM   13  H20         0      24.282  96.156  10.805  1.00  0.00     0.218 HD
ENDBRANCH  10  12
BRANCH   4  14
HETATM   14  C5          0      21.820  92.600   5.792  1.00  0.00     0.025 C 
HETATM   15  C6          0      21.881  91.349   6.388  1.00  0.00     0.004 C 
HETATM   16  C7          0      20.849  90.456   6.119  1.00  0.00     0.026 C 
HETATM   17  C8          0      19.858  90.745   5.186  1.00  0.00     0.112 C 
HETATM   18  C10         0      20.222  91.680   4.226  1.00  0.00     0.112 C 
HETATM   19  C12         0      21.197  92.615   4.550  1.00  0.00     0.028 C 
BRANCH  17  20
HETATM   20  O9          0      18.566  90.283   5.358  1.00  0.00    -0.357 OA
HETATM   21  H9          0      18.119  90.266   6.197  1.00  0.00     0.218 HD
ENDBRANCH  17  20
BRANCH  18  22
HETATM   22  O11         0      19.346  91.864   3.166  1.00  0.00    -0.357 OA
HETATM   23  H11         0      19.536  92.581   2.571  1.00  0.00     0.218 HD
ENDBRANCH  18  22
ENDBRANCH   4  14
BRANCH   8  24
HETATM   24  O17         0      27.576  95.776   7.304  1.00  0.00    -0.359 OA
HETATM   25  H17         0      28.208  96.194   7.877  1.00  0.00     0.218 HD
ENDBRANCH   8  24
TORSDOF 5
ENDMDL
