MODEL 1
REMARK VINA RESULT:      -6.1      0.000      0.000
REMARK  5 active torsions:
REMARK  status: ('A' for Active; 'I' for Inactive)
REMARK    1  A    between atoms: C4_4  and  C5_5 
REMARK    2  A    between atoms: C8_8  and  O9_9 
REMARK    3  A    between atoms: C10_11  and  O11_12 
REMARK    4  A    between atoms: C16_18  and  O17_19 
REMARK    5  A    between atoms: C19_22  and  O20_23 
ROOT
HETATM    1  O1          0      33.027  92.027 -26.853  1.00  0.00    -0.286 OA
HETATM    2  C2          0      32.993  92.774 -25.837  1.00  0.00     0.201 C 
HETATM    3  C3          0      34.112  93.425 -25.346  1.00  0.00     0.067 C 
HETATM    4  C4          0      34.068  94.160 -24.167  1.00  0.00     0.103 C 
HETATM    5  O13         0      32.921  94.250 -23.517  1.00  0.00    -0.307 OA
HETATM    6  C14         0      31.839  93.621 -23.919  1.00  0.00     0.107 C 
HETATM    7  C15         0      30.773  93.380 -23.064  1.00  0.00     0.049 C 
HETATM    8  C16         0      29.752  92.503 -23.412  1.00  0.00     0.093 C 
HETATM    9  C18         0      29.574  92.324 -24.779  1.00  0.00     0.048 C 
HETATM   10  C19         0      30.604  92.601 -25.667  1.00  0.00     0.096 C 
HETATM   11  C21         0      31.800  93.070 -25.195  1.00  0.00     0.084 C 
ENDROOT
BRANCH  10  12
HETATM   12  O20         0      30.583  92.025 -26.934  1.00  0.00    -0.359 OA
HETATM   13  H20         0      30.318  91.116 -27.005  1.00  0.00     0.218 HD
ENDBRANCH  10  12
BRANCH   4  14
HETATM   14  C5          0      35.317  94.293 -23.414  1.00  0.00     0.025 C 
HETATM   15  C6          0      35.461  93.841 -22.110  1.00  0.00     0.004 C 
HETATM   16  C7          0      36.676  93.261 -21.759  1.00  0.00     0.026 C 
HETATM   17  C8          0      37.758  93.249 -22.632  1.00  0.00     0.112 C 
HETATM   18  C10         0      37.728  94.240 -23.605  1.00  0.00     0.112 C 
HETATM   19  C12         0      36.494  94.743 -23.998  1.00  0.00     0.028 C 
BRANCH  17  20
HETATM   20  O9          0      38.656  92.197 -22.635  1.00  0.00    -0.357 OA
HETATM   21  H9          0      38.878  91.690 -21.862  1.00  0.00     0.218 HD
ENDBRANCH  17  20
BRANCH  18  22
HETATM   22  O11         0      38.869  94.393 -24.380  1.00  0.00    -0.357 OA
HETATM   23  H11         0      39.560  93.752 -24.261  1.00  0.00     0.218 HD
ENDBRANCH  18  22
ENDBRANCH   4  14
BRANCH   8  24
HETATM   24  O17         0      29.191  91.629 -22.476  1.00  0.00    -0.359 OA
HETATM   25  H17         0      29.700  90.937 -22.071  1.00  0.00     0.218 HD
ENDBRANCH   8  24
TORSDOF 5
ENDMDL
MODEL 2
REMARK VINA RESULT:      -5.5      2.136      7.145
REMARK  5 active torsions:
REMARK  status: ('A' for Active; 'I' for Inactive)
REMARK    1  A    between atoms: C4_4  and  C5_5 
REMARK    2  A    between atoms: C8_8  and  O9_9 
REMARK    3  A    between atoms: C10_11  and  O11_12 
REMARK    4  A    between atoms: C16_18  and  O17_19 
REMARK    5  A    between atoms: C19_22  and  O20_23 
ROOT
HETATM    1  O1          0      37.928  92.485 -22.665  1.00  0.00    -0.286 OA
HETATM    2  C2          0      37.226  93.480 -22.993  1.00  0.00     0.201 C 
HETATM    3  C3          0      35.955  93.359 -23.529  1.00  0.00     0.067 C 
HETATM    4  C4          0      35.245  94.466 -23.978  1.00  0.00     0.103 C 
HETATM    5  O13         0      35.796  95.662 -23.868  1.00  0.00    -0.307 OA
HETATM    6  C14         0      37.015  95.829 -23.402  1.00  0.00     0.107 C 
HETATM    7  C15         0      37.739  96.986 -23.648  1.00  0.00     0.049 C 
HETATM    8  C16         0      39.100  97.057 -23.378  1.00  0.00     0.093 C 
HETATM    9  C18         0      39.552  96.174 -22.405  1.00  0.00     0.048 C 
HETATM   10  C19         0      38.827  95.030 -22.099  1.00  0.00     0.096 C 
HETATM   11  C21         0      37.650  94.778 -22.750  1.00  0.00     0.084 C 
ENDROOT
BRANCH  10  12
HETATM   12  O20         0      39.469  93.964 -21.476  1.00  0.00    -0.359 OA
HETATM   13  H20         0      39.577  94.000 -20.533  1.00  0.00     0.218 HD
ENDBRANCH  10  12
BRANCH   4  14
HETATM   14  C5          0      34.250  94.243 -25.029  1.00  0.00     0.025 C 
HETATM   15  C6          0      34.370  94.779 -26.303  1.00  0.00     0.004 C 
HETATM   16  C7          0      33.967  93.989 -27.375  1.00  0.00     0.026 C 
HETATM   17  C8          0      33.343  92.761 -27.183  1.00  0.00     0.112 C 
HETATM   18  C10         0      32.715  92.617 -25.953  1.00  0.00     0.112 C 
HETATM   19  C12         0      33.193  93.356 -24.877  1.00  0.00     0.028 C 
BRANCH  17  20
HETATM   20  O9          0      33.534  91.721 -28.075  1.00  0.00    -0.357 OA
HETATM   21  H9          0      34.106  90.981 -27.907  1.00  0.00     0.218 HD
ENDBRANCH  17  20
BRANCH  18  22
HETATM   22  O11         0      31.920  91.492 -25.781  1.00  0.00    -0.357 OA
HETATM   23  H11         0      31.014  91.560 -26.060  1.00  0.00     0.218 HD
ENDBRANCH  18  22
ENDBRANCH   4  14
BRANCH   8  24
HETATM   24  O17         0      39.983  97.712 -24.244  1.00  0.00    -0.359 OA
HETATM   25  H17         0      40.385  97.264 -24.979  1.00  0.00     0.218 HD
ENDBRANCH   8  24
TORSDOF 5
ENDMDL
MODEL 3
REMARK VINA RESULT:      -5.5      1.988      6.754
REMARK  5 active torsions:
REMARK  status: ('A' for Active; 'I' for Inactive)
REMARK    1  A    between atoms: C4_4  and  C5_5 
REMARK    2  A    between atoms: C8_8  and  O9_9 
REMARK    3  A    between atoms: C10_11  and  O11_12 
REMARK    4  A    between atoms: C16_18  and  O17_19 
REMARK    5  A    between atoms: C19_22  and  O20_23 
ROOT
HETATM    1  O1          0      34.398  95.174 -20.720  1.00  0.00    -0.286 OA
HETATM    2  C2          0      34.683  94.770 -21.881  1.00  0.00     0.201 C 
HETATM    3  C3          0      33.725  94.545 -22.854  1.00  0.00     0.067 C 
HETATM    4  C4          0      34.055  94.003 -24.090  1.00  0.00     0.103 C 
HETATM    5  O13         0      35.321  93.717 -24.340  1.00  0.00    -0.307 OA
HETATM    6  C14         0      36.265  93.876 -23.439  1.00  0.00     0.107 C 
HETATM    7  C15         0      37.486  93.225 -23.536  1.00  0.00     0.049 C 
HETATM    8  C16         0      38.373  93.192 -22.467  1.00  0.00     0.093 C 
HETATM    9  C18         0      38.235  94.233 -21.557  1.00  0.00     0.048 C 
HETATM   10  C19         0      37.042  94.936 -21.466  1.00  0.00     0.096 C 
HETATM   11  C21         0      35.999  94.613 -22.290  1.00  0.00     0.084 C 
ENDROOT
BRANCH  10  12
HETATM   12  O20         0      36.760  95.649 -20.304  1.00  0.00    -0.359 OA
HETATM   13  H20         0      35.965  95.433 -19.832  1.00  0.00     0.218 HD
ENDBRANCH  10  12
BRANCH   4  14
HETATM   14  C5          0      33.012  93.255 -24.794  1.00  0.00     0.025 C 
HETATM   15  C6          0      31.659  93.439 -24.548  1.00  0.00     0.004 C 
HETATM   16  C7          0      30.793  93.393 -25.636  1.00  0.00     0.026 C 
HETATM   17  C8          0      31.237  93.043 -26.907  1.00  0.00     0.112 C 
HETATM   18  C10         0      32.402  92.288 -26.927  1.00  0.00     0.112 C 
HETATM   19  C12         0      33.291  92.417 -25.866  1.00  0.00     0.028 C 
BRANCH  17  20
HETATM   20  O9          0      30.662  93.598 -28.036  1.00  0.00    -0.357 OA
HETATM   21  H9          0      30.638  93.167 -28.883  1.00  0.00     0.218 HD
ENDBRANCH  17  20
BRANCH  18  22
HETATM   22  O11         0      32.784  91.754 -28.149  1.00  0.00    -0.357 OA
HETATM   23  H11         0      33.710  91.781 -28.360  1.00  0.00     0.218 HD
ENDBRANCH  18  22
ENDBRANCH   4  14
BRANCH   8  24
HETATM   24  O17         0      39.101  92.037 -22.159  1.00  0.00    -0.359 OA
HETATM   25  H17         0      39.951  91.864 -22.547  1.00  0.00     0.218 HD
ENDBRANCH   8  24
TORSDOF 5
ENDMDL
MODEL 4
REMARK VINA RESULT:      -5.4      1.681      3.192
REMARK  5 active torsions:
REMARK  status: ('A' for Active; 'I' for Inactive)
REMARK    1  A    between atoms: C4_4  and  C5_5 
REMARK    2  A    between atoms: C8_8  and  O9_9 
REMARK    3  A    between atoms: C10_11  and  O11_12 
REMARK    4  A    between atoms: C16_18  and  O17_19 
REMARK    5  A    between atoms: C19_22  and  O20_23 
ROOT
HETATM    1  O1          0      32.651  95.884 -23.188  1.00  0.00    -0.286 OA
HETATM    2  C2          0      33.344  94.881 -23.513  1.00  0.00     0.201 C 
HETATM    3  C3          0      34.667  94.728 -23.135  1.00  0.00     0.067 C 
HETATM    4  C4          0      35.437  93.665 -23.591  1.00  0.00     0.103 C 
HETATM    5  O13         0      34.878  92.772 -24.389  1.00  0.00    -0.307 OA
HETATM    6  C14         0      33.637  92.890 -24.808  1.00  0.00     0.107 C 
HETATM    7  C15         0      33.176  92.211 -25.927  1.00  0.00     0.049 C 
HETATM    8  C16         0      31.956  92.530 -26.512  1.00  0.00     0.093 C 
HETATM    9  C18         0      31.036  93.130 -25.662  1.00  0.00     0.048 C 
HETATM   10  C19         0      31.459  93.778 -24.509  1.00  0.00     0.096 C 
HETATM   11  C21         0      32.791  93.810 -24.198  1.00  0.00     0.084 C 
ENDROOT
BRANCH  10  12
HETATM   12  O20         0      30.627  94.722 -23.915  1.00  0.00    -0.359 OA
HETATM   13  H20         0      30.500  95.549 -24.364  1.00  0.00     0.218 HD
ENDBRANCH  10  12
BRANCH   4  14
HETATM   14  C5          0      36.885  93.871 -23.670  1.00  0.00     0.025 C 
HETATM   15  C6          0      37.452  95.037 -24.162  1.00  0.00     0.004 C 
HETATM   16  C7          0      38.596  95.514 -23.529  1.00  0.00     0.026 C 
HETATM   17  C8          0      39.232  94.788 -22.528  1.00  0.00     0.112 C 
HETATM   18  C10         0      38.985  93.422 -22.557  1.00  0.00     0.112 C 
HETATM   19  C12         0      37.795  92.978 -23.120  1.00  0.00     0.028 C 
BRANCH  17  20
HETATM   20  O9          0      39.874  95.431 -21.485  1.00  0.00    -0.357 OA
HETATM   21  H9          0      40.013  96.370 -21.449  1.00  0.00     0.218 HD
ENDBRANCH  17  20
BRANCH  18  22
HETATM   22  O11         0      39.740  92.629 -21.704  1.00  0.00    -0.357 OA
HETATM   23  H11         0      40.455  93.052 -21.244  1.00  0.00     0.218 HD
ENDBRANCH  18  22
ENDBRANCH   4  14
BRANCH   8  24
HETATM   24  O17         0      31.799  92.555 -27.903  1.00  0.00    -0.359 OA
HETATM   25  H17         0      31.131  93.086 -28.320  1.00  0.00     0.218 HD
ENDBRANCH   8  24
TORSDOF 5
ENDMDL
MODEL 5
REMARK VINA RESULT:      -5.3      2.523      3.278
REMARK  5 active torsions:
REMARK  status: ('A' for Active; 'I' for Inactive)
REMARK    1  A    between atoms: C4_4  and  C5_5 
REMARK    2  A    between atoms: C8_8  and  O9_9 
REMARK    3  A    between atoms: C10_11  and  O11_12 
REMARK    4  A    between atoms: C16_18  and  O17_19 
REMARK    5  A    between atoms: C19_22  and  O20_23 
ROOT
HETATM    1  O1          0      34.004  96.757 -25.869  1.00  0.00    -0.286 OA
HETATM    2  C2          0      34.086  95.672 -25.230  1.00  0.00     0.201 C 
HETATM    3  C3          0      34.781  95.554 -24.038  1.00  0.00     0.067 C 
HETATM    4  C4          0      34.943  94.325 -23.408  1.00  0.00     0.103 C 
HETATM    5  O13         0      34.399  93.253 -23.958  1.00  0.00    -0.307 OA
HETATM    6  C14         0      33.761  93.304 -25.107  1.00  0.00     0.107 C 
HETATM    7  C15         0      33.544  92.168 -25.873  1.00  0.00     0.049 C 
HETATM    8  C16         0      33.104  92.258 -27.188  1.00  0.00     0.093 C 
HETATM    9  C18         0      32.409  93.422 -27.496  1.00  0.00     0.048 C 
HETATM   10  C19         0      32.567  94.563 -26.722  1.00  0.00     0.096 C 
HETATM   11  C21         0      33.400  94.538 -25.637  1.00  0.00     0.084 C 
ENDROOT
BRANCH  10  12
HETATM   12  O20         0      32.236  95.803 -27.262  1.00  0.00    -0.359 OA
HETATM   13  H20         0      31.530  95.838 -27.896  1.00  0.00     0.218 HD
ENDBRANCH  10  12
BRANCH   4  14
HETATM   14  C5          0      36.123  94.158 -22.557  1.00  0.00     0.025 C 
HETATM   15  C6          0      36.703  92.923 -22.310  1.00  0.00     0.004 C 
HETATM   16  C7          0      38.092  92.865 -22.244  1.00  0.00     0.026 C 
HETATM   17  C8          0      38.873  94.015 -22.288  1.00  0.00     0.112 C 
HETATM   18  C10         0      38.217  95.176 -21.900  1.00  0.00     0.112 C 
HETATM   19  C12         0      36.837  95.239 -22.056  1.00  0.00     0.028 C 
BRANCH  17  20
HETATM   20  O9          0      40.125  94.000 -22.876  1.00  0.00    -0.357 OA
HETATM   21  H9          0      40.829  93.422 -22.604  1.00  0.00     0.218 HD
ENDBRANCH  17  20
BRANCH  18  22
HETATM   22  O11         0      38.995  96.315 -21.744  1.00  0.00    -0.357 OA
HETATM   23  H11         0      39.004  96.932 -22.466  1.00  0.00     0.218 HD
ENDBRANCH  18  22
ENDBRANCH   4  14
BRANCH   8  24
HETATM   24  O17         0      33.609  91.417 -28.186  1.00  0.00    -0.359 OA
HETATM   25  H17         0      33.051  91.055 -28.863  1.00  0.00     0.218 HD
ENDBRANCH   8  24
TORSDOF 5
ENDMDL
MODEL 6
REMARK VINA RESULT:      -5.1      1.642      6.534
REMARK  5 active torsions:
REMARK  status: ('A' for Active; 'I' for Inactive)
REMARK    1  A    between atoms: C4_4  and  C5_5 
REMARK    2  A    between atoms: C8_8  and  O9_9 
REMARK    3  A    between atoms: C10_11  and  O11_12 
REMARK    4  A    between atoms: C16_18  and  O17_19 
REMARK    5  A    between atoms: C19_22  and  O20_23 
ROOT
HETATM    1  O1          0      36.455  96.286 -25.847  1.00  0.00    -0.286 OA
HETATM    2  C2          0      35.912  95.308 -25.264  1.00  0.00     0.201 C 
HETATM    3  C3          0      34.724  94.743 -25.696  1.00  0.00     0.067 C 
HETATM    4  C4          0      34.094  93.733 -24.977  1.00  0.00     0.103 C 
HETATM    5  O13         0      34.662  93.295 -23.867  1.00  0.00    -0.307 OA
HETATM    6  C14         0      35.770  93.822 -23.394  1.00  0.00     0.107 C 
HETATM    7  C15         0      36.149  93.660 -22.069  1.00  0.00     0.049 C 
HETATM    8  C16         0      37.171  94.419 -21.512  1.00  0.00     0.093 C 
HETATM    9  C18         0      38.098  94.912 -22.423  1.00  0.00     0.048 C 
HETATM   10  C19         0      37.768  95.044 -23.765  1.00  0.00     0.096 C 
HETATM   11  C21         0      36.526  94.668 -24.198  1.00  0.00     0.084 C 
ENDROOT
BRANCH  10  12
HETATM   12  O20         0      38.503  95.914 -24.564  1.00  0.00    -0.359 OA
HETATM   13  H20         0      38.905  96.667 -24.149  1.00  0.00     0.218 HD
ENDBRANCH  10  12
BRANCH   4  14
HETATM   14  C5          0      32.642  93.615 -25.119  1.00  0.00     0.025 C 
HETATM   15  C6          0      32.033  93.194 -26.293  1.00  0.00     0.004 C 
HETATM   16  C7          0      30.916  92.373 -26.180  1.00  0.00     0.026 C 
HETATM   17  C8          0      30.341  92.088 -24.946  1.00  0.00     0.112 C 
HETATM   18  C10         0      30.606  93.022 -23.954  1.00  0.00     0.112 C 
HETATM   19  C12         0      31.774  93.770 -24.046  1.00  0.00     0.028 C 
BRANCH  17  20
HETATM   20  O9          0      29.743  90.863 -24.709  1.00  0.00    -0.357 OA
HETATM   21  H9          0      28.832  90.761 -24.457  1.00  0.00     0.218 HD
ENDBRANCH  17  20
BRANCH  18  22
HETATM   22  O11         0      29.907  92.889 -22.763  1.00  0.00    -0.357 OA
HETATM   23  H11         0      30.318  92.373 -22.078  1.00  0.00     0.218 HD
ENDBRANCH  18  22
ENDBRANCH   4  14
BRANCH   8  24
HETATM   24  O17         0      37.080  94.922 -20.209  1.00  0.00    -0.359 OA
HETATM   25  H17         0      37.744  95.498 -19.849  1.00  0.00     0.218 HD
ENDBRANCH   8  24
TORSDOF 5
ENDMDL
MODEL 7
REMARK VINA RESULT:      -5.0      2.799      5.589
REMARK  5 active torsions:
REMARK  status: ('A' for Active; 'I' for Inactive)
REMARK    1  A    between atoms: C4_4  and  C5_5 
REMARK    2  A    between atoms: C8_8  and  O9_9 
REMARK    3  A    between atoms: C10_11  and  O11_12 
REMARK    4  A    between atoms: C16_18  and  O17_19 
REMARK    5  A    between atoms: C19_22  and  O20_23 
ROOT
HETATM    1  O1          0      28.427  92.657 -20.270  1.00  0.00    -0.286 OA
HETATM    2  C2          0      28.472  92.448 -21.514  1.00  0.00     0.201 C 
HETATM    3  C3          0      29.651  92.481 -22.239  1.00  0.00     0.067 C 
HETATM    4  C4          0      29.659  92.349 -23.623  1.00  0.00     0.103 C 
HETATM    5  O13         0      28.510  92.169 -24.250  1.00  0.00    -0.307 OA
HETATM    6  C14         0      27.359  92.167 -23.614  1.00  0.00     0.107 C 
HETATM    7  C15         0      26.158  92.379 -24.275  1.00  0.00     0.049 C 
HETATM    8  C16         0      24.983  92.629 -23.576  1.00  0.00     0.093 C 
HETATM    9  C18         0      24.959  92.141 -22.275  1.00  0.00     0.048 C 
HETATM   10  C19         0      26.142  91.873 -21.600  1.00  0.00     0.096 C 
HETATM   11  C21         0      27.342  92.075 -22.226  1.00  0.00     0.084 C 
ENDROOT
BRANCH  10  12
HETATM   12  O20         0      26.134  91.812 -20.210  1.00  0.00    -0.359 OA
HETATM   13  H20         0      25.503  92.348 -19.745  1.00  0.00     0.218 HD
ENDBRANCH  10  12
BRANCH   4  14
HETATM   14  C5          0      30.767  92.972 -24.348  1.00  0.00     0.025 C 
HETATM   15  C6          0      31.380  94.143 -23.925  1.00  0.00     0.004 C 
HETATM   16  C7          0      32.759  94.242 -24.081  1.00  0.00     0.026 C 
HETATM   17  C8          0      33.488  93.269 -24.757  1.00  0.00     0.112 C 
HETATM   18  C10         0      32.750  92.512 -25.657  1.00  0.00     0.112 C 
HETATM   19  C12         0      31.387  92.359 -25.430  1.00  0.00     0.028 C 
BRANCH  17  20
HETATM   20  O9          0      34.785  92.968 -24.383  1.00  0.00    -0.357 OA
HETATM   21  H9          0      35.517  93.566 -24.487  1.00  0.00     0.218 HD
ENDBRANCH  17  20
BRANCH  18  22
HETATM   22  O11         0      33.459  91.660 -26.492  1.00  0.00    -0.357 OA
HETATM   23  H11         0      33.713  92.003 -27.341  1.00  0.00     0.218 HD
ENDBRANCH  18  22
ENDBRANCH   4  14
BRANCH   8  24
HETATM   24  O17         0      24.056  93.577 -24.023  1.00  0.00    -0.359 OA
HETATM   25  H17         0      23.950  93.775 -24.946  1.00  0.00     0.218 HD
ENDBRANCH   8  24
TORSDOF 5
ENDMDL
MODEL 8
REMARK VINA RESULT:      -4.9      6.348      8.289
REMARK  5 active torsions:
REMARK  status: ('A' for Active; 'I' for Inactive)
REMARK    1  A    between atoms: C4_4  and  C5_5 
REMARK    2  A    between atoms: C8_8  and  O9_9 
REMARK    3  A    between atoms: C10_11  and  O11_12 
REMARK    4  A    between atoms: C16_18  and  O17_19 
REMARK    5  A    between atoms: C19_22  and  O20_23 
ROOT
HETATM    1  O1          0      24.042  92.034 -24.207  1.00  0.00    -0.286 OA
HETATM    2  C2          0      25.235  92.241 -24.560  1.00  0.00     0.201 C 
HETATM    3  C3          0      25.609  92.414 -25.882  1.00  0.00     0.067 C 
HETATM    4  C4          0      26.943  92.537 -26.252  1.00  0.00     0.103 C 
HETATM    5  O13         0      27.868  92.508 -25.309  1.00  0.00    -0.307 OA
HETATM    6  C14         0      27.571  92.309 -24.044  1.00  0.00     0.107 C 
HETATM    7  C15         0      28.523  91.884 -23.128  1.00  0.00     0.049 C 
HETATM    8  C16         0      28.158  91.433 -21.865  1.00  0.00     0.093 C 
HETATM    9  C18         0      26.941  91.916 -21.398  1.00  0.00     0.048 C 
HETATM   10  C19         0      25.985  92.393 -22.284  1.00  0.00     0.096 C 
HETATM   11  C21         0      26.248  92.403 -23.627  1.00  0.00     0.084 C 
ENDROOT
BRANCH  10  12
HETATM   12  O20         0      24.655  92.458 -21.879  1.00  0.00    -0.359 OA
HETATM   13  H20         0      23.983  92.370 -22.544  1.00  0.00     0.218 HD
ENDBRANCH  10  12
BRANCH   4  14
HETATM   14  C5          0      27.304  92.117 -27.607  1.00  0.00     0.025 C 
HETATM   15  C6          0      26.670  92.607 -28.740  1.00  0.00     0.004 C 
HETATM   16  C7          0      27.455  92.849 -29.863  1.00  0.00     0.026 C 
HETATM   17  C8          0      28.798  92.491 -29.906  1.00  0.00     0.112 C 
HETATM   18  C10         0      29.156  91.478 -29.026  1.00  0.00     0.112 C 
HETATM   19  C12         0      28.405  91.313 -27.868  1.00  0.00     0.028 C 
BRANCH  17  20
HETATM   20  O9          0      29.711  93.247 -30.620  1.00  0.00    -0.357 OA
HETATM   21  H9          0      30.394  93.769 -30.216  1.00  0.00     0.218 HD
ENDBRANCH  17  20
BRANCH  18  22
HETATM   22  O11         0      30.434  90.953 -29.159  1.00  0.00    -0.357 OA
HETATM   23  H11         0      30.614  90.139 -28.702  1.00  0.00     0.218 HD
ENDBRANCH  18  22
ENDBRANCH   4  14
BRANCH   8  24
HETATM   24  O17         0      28.789  90.333 -21.273  1.00  0.00    -0.359 OA
HETATM   25  H17         0      28.295  89.590 -20.947  1.00  0.00     0.218 HD
ENDBRANCH   8  24
TORSDOF 5
ENDMDL
MODEL 9
REMARK VINA RESULT:      -4.8      1.811      6.416
REMARK  5 active torsions:
REMARK  status: ('A' for Active; 'I' for Inactive)
REMARK    1  A    between atoms: C4_4  and  C5_5 
REMARK    2  A    between atoms: C8_8  and  O9_9 
REMARK    3  A    between atoms: C10_11  and  O11_12 
REMARK    4  A    between atoms: C16_18  and  O17_19 
REMARK    5  A    between atoms: C19_22  and  O20_23 
ROOT
HETATM    1  O1          0      35.042  97.137 -24.561  1.00  0.00    -0.286 OA
HETATM    2  C2          0      34.651  95.946 -24.420  1.00  0.00     0.201 C 
HETATM    3  C3          0      33.313  95.591 -24.412  1.00  0.00     0.067 C 
HETATM    4  C4          0      32.906  94.287 -24.152  1.00  0.00     0.103 C 
HETATM    5  O13         0      33.828  93.368 -23.928  1.00  0.00    -0.307 OA
HETATM    6  C14         0      35.109  93.658 -23.887  1.00  0.00     0.107 C 
HETATM    7  C15         0      36.029  92.820 -23.273  1.00  0.00     0.049 C 
HETATM    8  C16         0      37.326  93.244 -23.007  1.00  0.00     0.093 C 
HETATM    9  C18         0      37.788  94.268 -23.825  1.00  0.00     0.048 C 
HETATM   10  C19         0      36.895  95.096 -24.492  1.00  0.00     0.096 C 
HETATM   11  C21         0      35.549  94.891 -24.356  1.00  0.00     0.084 C 
ENDROOT
BRANCH  10  12
HETATM   12  O20         0      37.324  96.343 -24.934  1.00  0.00    -0.359 OA
HETATM   13  H20         0      36.978  97.113 -24.499  1.00  0.00     0.218 HD
ENDBRANCH  10  12
BRANCH   4  14
HETATM   14  C5          0      31.573  94.104 -23.575  1.00  0.00     0.025 C 
HETATM   15  C6          0      30.573  93.380 -24.208  1.00  0.00     0.004 C 
HETATM   16  C7          0      29.747  92.591 -23.414  1.00  0.00     0.026 C 
HETATM   17  C8          0      29.823  92.623 -22.026  1.00  0.00     0.112 C 
HETATM   18  C10         0      30.367  93.788 -21.501  1.00  0.00     0.112 C 
HETATM   19  C12         0      31.257  94.513 -22.286  1.00  0.00     0.028 C 
BRANCH  17  20
HETATM   20  O9          0      29.568  91.489 -21.276  1.00  0.00    -0.357 OA
HETATM   21  H9          0      28.892  90.856 -21.488  1.00  0.00     0.218 HD
ENDBRANCH  17  20
BRANCH  18  22
HETATM   22  O11         0      30.294  93.952 -20.125  1.00  0.00    -0.357 OA
HETATM   23  H11         0      29.886  93.251 -19.630  1.00  0.00     0.218 HD
ENDBRANCH  18  22
ENDBRANCH   4  14
BRANCH   8  24
HETATM   24  O17         0      37.974  92.907 -21.813  1.00  0.00    -0.359 OA
HETATM   25  H17         0      38.904  93.053 -21.692  1.00  0.00     0.218 HD
ENDBRANCH   8  24
TORSDOF 5
ENDMDL
