MODEL 1
REMARK VINA RESULT:      -5.3      0.000      0.000
REMARK  5 active torsions:
REMARK  status: ('A' for Active; 'I' for Inactive)
REMARK    1  A    between atoms: C4_4  and  C5_5 
REMARK    2  A    between atoms: C8_8  and  O9_9 
REMARK    3  A    between atoms: C10_11  and  O11_12 
REMARK    4  A    between atoms: C16_18  and  O17_19 
REMARK    5  A    between atoms: C19_22  and  O20_23 
ROOT
HETATM    1  O1          0      60.772  63.665   2.954  1.00  0.00    -0.286 OA
HETATM    2  C2          0      61.659  63.553   3.844  1.00  0.00     0.201 C 
HETATM    3  C3          0      61.361  63.462   5.193  1.00  0.00     0.067 C 
HETATM    4  C4          0      62.359  63.443   6.160  1.00  0.00     0.103 C 
HETATM    5  O13         0      63.621  63.493   5.771  1.00  0.00    -0.307 OA
HETATM    6  C14         0      63.958  63.618   4.506  1.00  0.00     0.107 C 
HETATM    7  C15         0      65.214  64.067   4.125  1.00  0.00     0.049 C 
HETATM    8  C16         0      65.481  64.439   2.813  1.00  0.00     0.093 C 
HETATM    9  C18         0      64.655  63.856   1.859  1.00  0.00     0.048 C 
HETATM   10  C19         0      63.411  63.354   2.214  1.00  0.00     0.096 C 
HETATM   11  C21         0      63.000  63.419   3.518  1.00  0.00     0.084 C 
ENDROOT
BRANCH  10  12
HETATM   12  O20         0      62.440  63.183   1.232  1.00  0.00    -0.359 OA
HETATM   13  H20         0      62.692  62.746   0.428  1.00  0.00     0.218 HD
ENDBRANCH  10  12
BRANCH   4  14
HETATM   14  C5          0      62.012  63.943   7.491  1.00  0.00     0.025 C 
HETATM   15  C6          0      60.908  64.750   7.727  1.00  0.00     0.004 C 
HETATM   16  C7          0      60.192  64.536   8.900  1.00  0.00     0.026 C 
HETATM   17  C8          0      60.632  63.644   9.871  1.00  0.00     0.112 C 
HETATM   18  C10         0      61.996  63.386   9.846  1.00  0.00     0.112 C 
HETATM   19  C12         0      62.672  63.526   8.639  1.00  0.00     0.028 C 
BRANCH  17  20
HETATM   20  O9          0      59.730  62.930  10.639  1.00  0.00    -0.357 OA
HETATM   21  H9          0      58.807  62.847  10.429  1.00  0.00     0.218 HD
ENDBRANCH  17  20
BRANCH  18  22
HETATM   22  O11         0      62.517  62.654  10.904  1.00  0.00    -0.357 OA
HETATM   23  H11         0      61.966  61.971  11.267  1.00  0.00     0.218 HD
ENDBRANCH  18  22
ENDBRANCH   4  14
BRANCH   8  24
HETATM   24  O17         0      66.275  65.552   2.517  1.00  0.00    -0.359 OA
HETATM   25  H17         0      67.221  65.525   2.598  1.00  0.00     0.218 HD
ENDBRANCH   8  24
TORSDOF 5
ENDMDL
MODEL 2
REMARK VINA RESULT:      -5.2      2.467      4.824
REMARK  5 active torsions:
REMARK  status: ('A' for Active; 'I' for Inactive)
REMARK    1  A    between atoms: C4_4  and  C5_5 
REMARK    2  A    between atoms: C8_8  and  O9_9 
REMARK    3  A    between atoms: C10_11  and  O11_12 
REMARK    4  A    between atoms: C16_18  and  O17_19 
REMARK    5  A    between atoms: C19_22  and  O20_23 
ROOT
HETATM    1  O1          0      64.830  63.247   9.099  1.00  0.00    -0.286 OA
HETATM    2  C2          0      63.700  63.802   9.025  1.00  0.00     0.201 C 
HETATM    3  C3          0      62.994  64.219  10.141  1.00  0.00     0.067 C 
HETATM    4  C4          0      61.706  64.734  10.038  1.00  0.00     0.103 C 
HETATM    5  O13         0      61.160  64.842   8.839  1.00  0.00    -0.307 OA
HETATM    6  C14         0      61.772  64.426   7.752  1.00  0.00     0.107 C 
HETATM    7  C15         0      61.080  64.165   6.578  1.00  0.00     0.049 C 
HETATM    8  C16         0      61.679  63.491   5.522  1.00  0.00     0.093 C 
HETATM    9  C18         0      63.066  63.577   5.481  1.00  0.00     0.048 C 
HETATM   10  C19         0      63.787  63.883   6.627  1.00  0.00     0.096 C 
HETATM   11  C21         0      63.127  64.118   7.803  1.00  0.00     0.084 C 
ENDROOT
BRANCH  10  12
HETATM   12  O20         0      65.136  63.547   6.692  1.00  0.00    -0.359 OA
HETATM   13  H20         0      65.677  63.729   5.934  1.00  0.00     0.218 HD
ENDBRANCH  10  12
BRANCH   4  14
HETATM   14  C5          0      60.830  64.584  11.201  1.00  0.00     0.025 C 
HETATM   15  C6          0      60.882  65.433  12.296  1.00  0.00     0.004 C 
HETATM   16  C7          0      59.678  65.783  12.899  1.00  0.00     0.026 C 
HETATM   17  C8          0      58.474  65.204  12.513  1.00  0.00     0.112 C 
HETATM   18  C10         0      58.597  63.965  11.898  1.00  0.00     0.112 C 
HETATM   19  C12         0      59.781  63.674  11.230  1.00  0.00     0.028 C 
BRANCH  17  20
HETATM   20  O9          0      57.294  65.925  12.559  1.00  0.00    -0.357 OA
HETATM   21  H9          0      56.773  66.035  13.346  1.00  0.00     0.218 HD
ENDBRANCH  17  20
BRANCH  18  22
HETATM   22  O11         0      57.425  63.260  11.664  1.00  0.00    -0.357 OA
HETATM   23  H11         0      56.611  63.686  11.907  1.00  0.00     0.218 HD
ENDBRANCH  18  22
ENDBRANCH   4  14
BRANCH   8  24
HETATM   24  O17         0      60.980  62.536   4.775  1.00  0.00    -0.359 OA
HETATM   25  H17         0      60.154  62.741   4.352  1.00  0.00     0.218 HD
ENDBRANCH   8  24
TORSDOF 5
ENDMDL
MODEL 3
REMARK VINA RESULT:      -5.1      2.426      7.484
REMARK  5 active torsions:
REMARK  status: ('A' for Active; 'I' for Inactive)
REMARK    1  A    between atoms: C4_4  and  C5_5 
REMARK    2  A    between atoms: C8_8  and  O9_9 
REMARK    3  A    between atoms: C10_11  and  O11_12 
REMARK    4  A    between atoms: C16_18  and  O17_19 
REMARK    5  A    between atoms: C19_22  and  O20_23 
ROOT
HETATM    1  O1          0      58.503  67.230   8.457  1.00  0.00    -0.286 OA
HETATM    2  C2          0      59.375  66.321   8.532  1.00  0.00     0.201 C 
HETATM    3  C3          0      60.343  66.128   7.562  1.00  0.00     0.067 C 
HETATM    4  C4          0      61.227  65.057   7.617  1.00  0.00     0.103 C 
HETATM    5  O13         0      61.146  64.219   8.636  1.00  0.00    -0.307 OA
HETATM    6  C14         0      60.222  64.334   9.564  1.00  0.00     0.107 C 
HETATM    7  C15         0      59.875  63.273  10.387  1.00  0.00     0.049 C 
HETATM    8  C16         0      58.737  63.318  11.183  1.00  0.00     0.093 C 
HETATM    9  C18         0      58.302  64.596  11.513  1.00  0.00     0.048 C 
HETATM   10  C19         0      58.668  65.687  10.737  1.00  0.00     0.096 C 
HETATM   11  C21         0      59.478  65.507   9.650  1.00  0.00     0.084 C 
ENDROOT
BRANCH  10  12
HETATM   12  O20         0      57.907  66.851  10.798  1.00  0.00    -0.359 OA
HETATM   13  H20         0      57.589  67.217   9.982  1.00  0.00     0.218 HD
ENDBRANCH  10  12
BRANCH   4  14
HETATM   14  C5          0      61.773  64.572   6.348  1.00  0.00     0.025 C 
HETATM   15  C6          0      61.878  63.224   6.040  1.00  0.00     0.004 C 
HETATM   16  C7          0      61.611  62.839   4.730  1.00  0.00     0.026 C 
HETATM   17  C8          0      61.381  63.775   3.728  1.00  0.00     0.112 C 
HETATM   18  C10         0      61.911  65.034   3.977  1.00  0.00     0.112 C 
HETATM   19  C12         0      62.087  65.426   5.299  1.00  0.00     0.028 C 
BRANCH  17  20
HETATM   20  O9          0      60.511  63.500   2.687  1.00  0.00    -0.357 OA
HETATM   21  H9          0      60.230  62.623   2.452  1.00  0.00     0.218 HD
ENDBRANCH  17  20
BRANCH  18  22
HETATM   22  O11         0      61.875  65.949   2.934  1.00  0.00    -0.357 OA
HETATM   23  H11         0      61.237  65.793   2.247  1.00  0.00     0.218 HD
ENDBRANCH  18  22
ENDBRANCH   4  14
BRANCH   8  24
HETATM   24  O17         0      57.917  62.196  11.347  1.00  0.00    -0.359 OA
HETATM   25  H17         0      58.008  61.616  12.095  1.00  0.00     0.218 HD
ENDBRANCH   8  24
TORSDOF 5
ENDMDL
MODEL 4
REMARK VINA RESULT:      -4.9      1.754      7.414
REMARK  5 active torsions:
REMARK  status: ('A' for Active; 'I' for Inactive)
REMARK    1  A    between atoms: C4_4  and  C5_5 
REMARK    2  A    between atoms: C8_8  and  O9_9 
REMARK    3  A    between atoms: C10_11  and  O11_12 
REMARK    4  A    between atoms: C16_18  and  O17_19 
REMARK    5  A    between atoms: C19_22  and  O20_23 
ROOT
HETATM    1  O1          0      63.872  64.443  10.628  1.00  0.00    -0.286 OA
HETATM    2  C2          0      62.988  64.148   9.779  1.00  0.00     0.201 C 
HETATM    3  C3          0      63.262  63.999   8.430  1.00  0.00     0.067 C 
HETATM    4  C4          0      62.252  63.775   7.501  1.00  0.00     0.103 C 
HETATM    5  O13         0      61.006  63.684   7.929  1.00  0.00    -0.307 OA
HETATM    6  C14         0      60.686  63.855   9.193  1.00  0.00     0.107 C 
HETATM    7  C15         0      59.390  64.157   9.585  1.00  0.00     0.049 C 
HETATM    8  C16         0      59.107  64.585  10.877  1.00  0.00     0.093 C 
HETATM    9  C18         0      60.028  64.190  11.840  1.00  0.00     0.048 C 
HETATM   10  C19         0      61.320  63.835  11.477  1.00  0.00     0.096 C 
HETATM   11  C21         0      61.686  63.859  10.159  1.00  0.00     0.084 C 
ENDROOT
BRANCH  10  12
HETATM   12  O20         0      62.329  63.870  12.435  1.00  0.00    -0.359 OA
HETATM   13  H20         0      62.108  64.184  13.304  1.00  0.00     0.218 HD
ENDBRANCH  10  12
BRANCH   4  14
HETATM   14  C5          0      62.496  64.219   6.127  1.00  0.00     0.025 C 
HETATM   15  C6          0      63.767  64.472   5.633  1.00  0.00     0.004 C 
HETATM   16  C7          0      64.033  64.098   4.319  1.00  0.00     0.026 C 
HETATM   17  C8          0      63.034  63.614   3.482  1.00  0.00     0.112 C 
HETATM   18  C10         0      61.746  63.990   3.838  1.00  0.00     0.112 C 
HETATM   19  C12         0      61.487  64.275   5.174  1.00  0.00     0.028 C 
BRANCH  17  20
HETATM   20  O9          0      63.318  62.668   2.513  1.00  0.00    -0.357 OA
HETATM   21  H9          0      63.252  62.832   1.579  1.00  0.00     0.218 HD
ENDBRANCH  17  20
BRANCH  18  22
HETATM   22  O11         0      60.733  63.695   2.937  1.00  0.00    -0.357 OA
HETATM   23  H11         0      60.990  63.546   2.035  1.00  0.00     0.218 HD
ENDBRANCH  18  22
ENDBRANCH   4  14
BRANCH   8  24
HETATM   24  O17         0      58.175  65.599  11.121  1.00  0.00    -0.359 OA
HETATM   25  H17         0      57.240  65.434  11.099  1.00  0.00     0.218 HD
ENDBRANCH   8  24
TORSDOF 5
ENDMDL
MODEL 5
REMARK VINA RESULT:      -4.9      2.255      7.365
REMARK  5 active torsions:
REMARK  status: ('A' for Active; 'I' for Inactive)
REMARK    1  A    between atoms: C4_4  and  C5_5 
REMARK    2  A    between atoms: C8_8  and  O9_9 
REMARK    3  A    between atoms: C10_11  and  O11_12 
REMARK    4  A    between atoms: C16_18  and  O17_19 
REMARK    5  A    between atoms: C19_22  and  O20_23 
ROOT
HETATM    1  O1          0      63.744  64.412  10.669  1.00  0.00    -0.286 OA
HETATM    2  C2          0      62.846  64.128   9.830  1.00  0.00     0.201 C 
HETATM    3  C3          0      63.119  63.867   8.498  1.00  0.00     0.067 C 
HETATM    4  C4          0      62.102  63.657   7.574  1.00  0.00     0.103 C 
HETATM    5  O13         0      60.848  63.689   7.991  1.00  0.00    -0.307 OA
HETATM    6  C14         0      60.533  63.970   9.236  1.00  0.00     0.107 C 
HETATM    7  C15         0      59.261  64.395   9.590  1.00  0.00     0.049 C 
HETATM    8  C16         0      59.002  64.930  10.846  1.00  0.00     0.093 C 
HETATM    9  C18         0      59.882  64.534  11.846  1.00  0.00     0.048 C 
HETATM   10  C19         0      61.146  64.059  11.524  1.00  0.00     0.096 C 
HETATM   11  C21         0      61.523  63.964  10.213  1.00  0.00     0.084 C 
ENDROOT
BRANCH  10  12
HETATM   12  O20         0      62.147  64.082  12.491  1.00  0.00    -0.359 OA
HETATM   13  H20         0      62.822  64.746  12.417  1.00  0.00     0.218 HD
ENDBRANCH  10  12
BRANCH   4  14
HETATM   14  C5          0      62.389  63.986   6.176  1.00  0.00     0.025 C 
HETATM   15  C6          0      62.938  63.074   5.287  1.00  0.00     0.004 C 
HETATM   16  C7          0      62.472  63.092   3.976  1.00  0.00     0.026 C 
HETATM   17  C8          0      61.589  64.068   3.529  1.00  0.00     0.112 C 
HETATM   18  C10         0      61.605  65.245   4.265  1.00  0.00     0.112 C 
HETATM   19  C12         0      61.994  65.185   5.598  1.00  0.00     0.028 C 
BRANCH  17  20
HETATM   20  O9          0      60.640  63.778   2.565  1.00  0.00    -0.357 OA
HETATM   21  H9          0      59.750  64.112   2.582  1.00  0.00     0.218 HD
ENDBRANCH  17  20
BRANCH  18  22
HETATM   22  O11         0      60.886  66.316   3.754  1.00  0.00    -0.357 OA
HETATM   23  H11         0      60.100  66.571   4.224  1.00  0.00     0.218 HD
ENDBRANCH  18  22
ENDBRANCH   4  14
BRANCH   8  24
HETATM   24  O17         0      58.148  66.027  11.010  1.00  0.00    -0.359 OA
HETATM   25  H17         0      58.073  66.481  11.841  1.00  0.00     0.218 HD
ENDBRANCH   8  24
TORSDOF 5
ENDMDL
MODEL 6
REMARK VINA RESULT:      -4.7      4.276      7.519
REMARK  5 active torsions:
REMARK  status: ('A' for Active; 'I' for Inactive)
REMARK    1  A    between atoms: C4_4  and  C5_5 
REMARK    2  A    between atoms: C8_8  and  O9_9 
REMARK    3  A    between atoms: C10_11  and  O11_12 
REMARK    4  A    between atoms: C16_18  and  O17_19 
REMARK    5  A    between atoms: C19_22  and  O20_23 
ROOT
HETATM    1  O1          0      65.101  62.848   8.781  1.00  0.00    -0.286 OA
HETATM    2  C2          0      64.500  63.152   9.847  1.00  0.00     0.201 C 
HETATM    3  C3          0      65.113  63.130  11.088  1.00  0.00     0.067 C 
HETATM    4  C4          0      64.401  63.370  12.258  1.00  0.00     0.103 C 
HETATM    5  O13         0      63.112  63.645  12.171  1.00  0.00    -0.307 OA
HETATM    6  C14         0      62.472  63.642  11.021  1.00  0.00     0.107 C 
HETATM    7  C15         0      61.091  63.530  10.954  1.00  0.00     0.049 C 
HETATM    8  C16         0      60.446  63.272   9.750  1.00  0.00     0.093 C 
HETATM    9  C18         0      61.148  63.657   8.614  1.00  0.00     0.048 C 
HETATM   10  C19         0      62.525  63.824   8.658  1.00  0.00     0.096 C 
HETATM   11  C21         0      63.196  63.624   9.834  1.00  0.00     0.084 C 
ENDROOT
BRANCH  10  12
HETATM   12  O20         0      63.255  63.775   7.474  1.00  0.00    -0.359 OA
HETATM   13  H20         0      63.541  64.596   7.093  1.00  0.00     0.218 HD
ENDBRANCH  10  12
BRANCH   4  14
HETATM   14  C5          0      64.911  62.763  13.489  1.00  0.00     0.025 C 
HETATM   15  C6          0      66.169  62.185  13.577  1.00  0.00     0.004 C 
HETATM   16  C7          0      66.881  62.371  14.758  1.00  0.00     0.026 C 
HETATM   17  C8          0      66.312  62.993  15.863  1.00  0.00     0.112 C 
HETATM   18  C10         0      64.925  62.954  15.901  1.00  0.00     0.112 C 
HETATM   19  C12         0      64.234  62.854  14.699  1.00  0.00     0.028 C 
BRANCH  17  20
HETATM   20  O9          0      67.082  63.761  16.719  1.00  0.00    -0.357 OA
HETATM   21  H9          0      67.962  64.057  16.515  1.00  0.00     0.218 HD
ENDBRANCH  17  20
BRANCH  18  22
HETATM   22  O11         0      64.315  63.390  17.068  1.00  0.00    -0.357 OA
HETATM   23  H11         0      63.736  64.141  16.996  1.00  0.00     0.218 HD
ENDBRANCH  18  22
ENDBRANCH   4  14
BRANCH   8  24
HETATM   24  O17         0      59.354  62.400   9.680  1.00  0.00    -0.359 OA
HETATM   25  H17         0      59.363  61.555  10.113  1.00  0.00     0.218 HD
ENDBRANCH   8  24
TORSDOF 5
ENDMDL
MODEL 7
REMARK VINA RESULT:      -4.5      2.210      6.980
REMARK  5 active torsions:
REMARK  status: ('A' for Active; 'I' for Inactive)
REMARK    1  A    between atoms: C4_4  and  C5_5 
REMARK    2  A    between atoms: C8_8  and  O9_9 
REMARK    3  A    between atoms: C10_11  and  O11_12 
REMARK    4  A    between atoms: C16_18  and  O17_19 
REMARK    5  A    between atoms: C19_22  and  O20_23 
ROOT
HETATM    1  O1          0      58.725  65.122   8.916  1.00  0.00    -0.286 OA
HETATM    2  C2          0      59.955  65.093   8.639  1.00  0.00     0.201 C 
HETATM    3  C3          0      60.440  65.269   7.354  1.00  0.00     0.067 C 
HETATM    4  C4          0      61.792  65.130   7.060  1.00  0.00     0.103 C 
HETATM    5  O13         0      62.629  64.842   8.042  1.00  0.00    -0.307 OA
HETATM    6  C14         0      62.216  64.628   9.272  1.00  0.00     0.107 C 
HETATM    7  C15         0      62.997  63.950  10.197  1.00  0.00     0.049 C 
HETATM    8  C16         0      62.465  63.505  11.402  1.00  0.00     0.093 C 
HETATM    9  C18         0      61.350  64.205  11.845  1.00  0.00     0.048 C 
HETATM   10  C19         0      60.573  64.932  10.954  1.00  0.00     0.096 C 
HETATM   11  C21         0      60.918  64.974   9.630  1.00  0.00     0.084 C 
ENDROOT
BRANCH  10  12
HETATM   12  O20         0      59.263  65.252  11.297  1.00  0.00    -0.359 OA
HETATM   13  H20         0      59.006  65.160  12.206  1.00  0.00     0.218 HD
ENDBRANCH  10  12
BRANCH   4  14
HETATM   14  C5          0      62.143  64.733   5.696  1.00  0.00     0.025 C 
HETATM   15  C6          0      62.326  63.409   5.321  1.00  0.00     0.004 C 
HETATM   16  C7          0      61.865  63.025   4.066  1.00  0.00     0.026 C 
HETATM   17  C8          0      61.361  63.951   3.159  1.00  0.00     0.112 C 
HETATM   18  C10         0      61.797  65.254   3.359  1.00  0.00     0.112 C 
HETATM   19  C12         0      62.172  65.636   4.641  1.00  0.00     0.028 C 
BRANCH  17  20
HETATM   20  O9          0      60.349  63.606   2.281  1.00  0.00    -0.357 OA
HETATM   21  H9          0      60.226  64.012   1.431  1.00  0.00     0.218 HD
ENDBRANCH  17  20
BRANCH  18  22
HETATM   22  O11         0      61.479  66.181   2.376  1.00  0.00    -0.357 OA
HETATM   23  H11         0      62.194  66.699   2.025  1.00  0.00     0.218 HD
ENDBRANCH  18  22
ENDBRANCH   4  14
BRANCH   8  24
HETATM   24  O17         0      62.813  62.259  11.936  1.00  0.00    -0.359 OA
HETATM   25  H17         0      62.625  62.034  12.839  1.00  0.00     0.218 HD
ENDBRANCH   8  24
TORSDOF 5
ENDMDL
MODEL 8
REMARK VINA RESULT:      -4.5      4.857      7.625
REMARK  5 active torsions:
REMARK  status: ('A' for Active; 'I' for Inactive)
REMARK    1  A    between atoms: C4_4  and  C5_5 
REMARK    2  A    between atoms: C8_8  and  O9_9 
REMARK    3  A    between atoms: C10_11  and  O11_12 
REMARK    4  A    between atoms: C16_18  and  O17_19 
REMARK    5  A    between atoms: C19_22  and  O20_23 
ROOT
HETATM    1  O1          0      65.458  64.682   9.946  1.00  0.00    -0.286 OA
HETATM    2  C2          0      64.492  64.041  10.443  1.00  0.00     0.201 C 
HETATM    3  C3          0      63.303  63.829   9.765  1.00  0.00     0.067 C 
HETATM    4  C4          0      62.218  63.209  10.374  1.00  0.00     0.103 C 
HETATM    5  O13         0      62.341  62.797  11.623  1.00  0.00    -0.307 OA
HETATM    6  C14         0      63.433  63.006  12.324  1.00  0.00     0.107 C 
HETATM    7  C15         0      63.435  62.948  13.710  1.00  0.00     0.049 C 
HETATM    8  C16         0      64.514  63.415  14.451  1.00  0.00     0.093 C 
HETATM    9  C18         0      65.729  63.426  13.776  1.00  0.00     0.048 C 
HETATM   10  C19         0      65.764  63.437  12.388  1.00  0.00     0.096 C 
HETATM   11  C21         0      64.594  63.420  11.679  1.00  0.00     0.084 C 
ENDROOT
BRANCH  10  12
HETATM   12  O20         0      66.913  63.880  11.740  1.00  0.00    -0.359 OA
HETATM   13  H20         0      66.998  63.699  10.812  1.00  0.00     0.218 HD
ENDBRANCH  10  12
BRANCH   4  14
HETATM   14  C5          0      60.885  63.546   9.870  1.00  0.00     0.025 C 
HETATM   15  C6          0      59.723  63.271  10.576  1.00  0.00     0.004 C 
HETATM   16  C7          0      58.701  64.215  10.529  1.00  0.00     0.026 C 
HETATM   17  C8          0      58.776  65.330   9.701  1.00  0.00     0.112 C 
HETATM   18  C10         0      59.629  65.189   8.614  1.00  0.00     0.112 C 
HETATM   19  C12         0      60.693  64.301   8.720  1.00  0.00     0.028 C 
BRANCH  17  20
HETATM   20  O9          0      58.204  66.532  10.077  1.00  0.00    -0.357 OA
HETATM   21  H9          0      58.424  66.994  10.878  1.00  0.00     0.218 HD
ENDBRANCH  17  20
BRANCH  18  22
HETATM   22  O11         0      59.599  66.193   7.657  1.00  0.00    -0.357 OA
HETATM   23  H11         0      60.431  66.450   7.277  1.00  0.00     0.218 HD
ENDBRANCH  18  22
ENDBRANCH   4  14
BRANCH   8  24
HETATM   24  O17         0      64.328  64.125  15.643  1.00  0.00    -0.359 OA
HETATM   25  H17         0      64.719  64.980  15.780  1.00  0.00     0.218 HD
ENDBRANCH   8  24
TORSDOF 5
ENDMDL
MODEL 9
REMARK VINA RESULT:      -4.4      2.548      4.139
REMARK  5 active torsions:
REMARK  status: ('A' for Active; 'I' for Inactive)
REMARK    1  A    between atoms: C4_4  and  C5_5 
REMARK    2  A    between atoms: C8_8  and  O9_9 
REMARK    3  A    between atoms: C10_11  and  O11_12 
REMARK    4  A    between atoms: C16_18  and  O17_19 
REMARK    5  A    between atoms: C19_22  and  O20_23 
ROOT
HETATM    1  O1          0      62.555  67.762   7.143  1.00  0.00    -0.286 OA
HETATM    2  C2          0      61.863  66.723   7.321  1.00  0.00     0.201 C 
HETATM    3  C3          0      61.114  66.506   8.465  1.00  0.00     0.067 C 
HETATM    4  C4          0      60.442  65.308   8.680  1.00  0.00     0.103 C 
HETATM    5  O13         0      60.511  64.367   7.755  1.00  0.00    -0.307 OA
HETATM    6  C14         0      61.238  64.507   6.668  1.00  0.00     0.107 C 
HETATM    7  C15         0      61.635  63.415   5.909  1.00  0.00     0.049 C 
HETATM    8  C16         0      62.604  63.538   4.920  1.00  0.00     0.093 C 
HETATM    9  C18         0      62.741  64.814   4.388  1.00  0.00     0.048 C 
HETATM   10  C19         0      62.311  65.926   5.101  1.00  0.00     0.096 C 
HETATM   11  C21         0      61.732  65.762   6.330  1.00  0.00     0.084 C 
ENDROOT
BRANCH  10  12
HETATM   12  O20         0      62.828  67.178   4.785  1.00  0.00    -0.359 OA
HETATM   13  H20         0      63.405  67.245   4.034  1.00  0.00     0.218 HD
ENDBRANCH  10  12
BRANCH   4  14
HETATM   14  C5          0      60.204  64.914  10.070  1.00  0.00     0.025 C 
HETATM   15  C6          0      60.581  65.700  11.149  1.00  0.00     0.004 C 
HETATM   16  C7          0      59.721  65.749  12.242  1.00  0.00     0.026 C 
HETATM   17  C8          0      58.591  64.942  12.318  1.00  0.00     0.112 C 
HETATM   18  C10         0      58.648  63.791  11.543  1.00  0.00     0.112 C 
HETATM   19  C12         0      59.450  63.798  10.408  1.00  0.00     0.028 C 
BRANCH  17  20
HETATM   20  O9          0      57.444  65.386  12.952  1.00  0.00    -0.357 OA
HETATM   21  H9          0      56.618  64.916  12.938  1.00  0.00     0.218 HD
ENDBRANCH  17  20
BRANCH  18  22
HETATM   22  O11         0      57.635  62.860  11.725  1.00  0.00    -0.357 OA
HETATM   23  H11         0      57.236  62.822  12.587  1.00  0.00     0.218 HD
ENDBRANCH  18  22
ENDBRANCH   4  14
BRANCH   8  24
HETATM   24  O17         0      63.577  62.552   4.726  1.00  0.00    -0.359 OA
HETATM   25  H17         0      63.588  62.007   3.948  1.00  0.00     0.218 HD
ENDBRANCH   8  24
TORSDOF 5
ENDMDL
