MODEL 1
REMARK VINA RESULT:      -5.6      0.000      0.000
REMARK  5 active torsions:
REMARK  status: ('A' for Active; 'I' for Inactive)
REMARK    1  A    between atoms: C4_4  and  C5_5 
REMARK    2  A    between atoms: C8_8  and  O9_9 
REMARK    3  A    between atoms: C10_11  and  O11_12 
REMARK    4  A    between atoms: C16_18  and  O17_19 
REMARK    5  A    between atoms: C19_22  and  O20_23 
ROOT
HETATM    1  O1          0      21.987  96.574   4.911  1.00  0.00    -0.286 OA
HETATM    2  C2          0      22.248  97.158   5.998  1.00  0.00     0.201 C 
HETATM    3  C3          0      21.647  98.347   6.375  1.00  0.00     0.067 C 
HETATM    4  C4          0      22.027  99.023   7.528  1.00  0.00     0.103 C 
HETATM    5  O13         0      22.973  98.499   8.288  1.00  0.00    -0.307 OA
HETATM    6  C14         0      23.603  97.393   7.957  1.00  0.00     0.107 C 
HETATM    7  C15         0      24.831  97.058   8.509  1.00  0.00     0.049 C 
HETATM    8  C16         0      25.605  96.033   7.977  1.00  0.00     0.093 C 
HETATM    9  C18         0      24.897  95.068   7.272  1.00  0.00     0.048 C 
HETATM   10  C19         0      23.645  95.355   6.746  1.00  0.00     0.096 C 
HETATM   11  C21         0      23.095  96.593   6.939  1.00  0.00     0.084 C 
ENDROOT
BRANCH  10  12
HETATM   12  O20         0      23.148  94.575   5.706  1.00  0.00    -0.359 OA
HETATM   13  H20         0      22.215  94.602   5.536  1.00  0.00     0.218 HD
ENDBRANCH  10  12
BRANCH   4  14
HETATM   14  C5          0      21.827 100.473   7.553  1.00  0.00     0.025 C 
HETATM   15  C6          0      21.795 101.208   8.729  1.00  0.00     0.004 C 
HETATM   16  C7          0      22.390 102.466   8.719  1.00  0.00     0.026 C 
HETATM   17  C8          0      22.881 103.031   7.547  1.00  0.00     0.112 C 
HETATM   18  C10         0      22.315 102.533   6.381  1.00  0.00     0.112 C 
HETATM   19  C12         0      21.804 101.241   6.395  1.00  0.00     0.028 C 
BRANCH  17  20
HETATM   20  O9          0      23.989 103.860   7.570  1.00  0.00    -0.357 OA
HETATM   21  H9          0      23.950 104.789   7.766  1.00  0.00     0.218 HD
ENDBRANCH  17  20
BRANCH  18  22
HETATM   22  O11         0      22.628 103.190   5.200  1.00  0.00    -0.357 OA
HETATM   23  H11         0      22.271 102.827   4.398  1.00  0.00     0.218 HD
ENDBRANCH  18  22
ENDBRANCH   4  14
BRANCH   8  24
HETATM   24  O17         0      26.996  96.150   7.872  1.00  0.00    -0.359 OA
HETATM   25  H17         0      27.436  96.120   7.031  1.00  0.00     0.218 HD
ENDBRANCH   8  24
TORSDOF 5
ENDMDL
MODEL 2
REMARK VINA RESULT:      -5.4      4.087      6.659
REMARK  5 active torsions:
REMARK  status: ('A' for Active; 'I' for Inactive)
REMARK    1  A    between atoms: C4_4  and  C5_5 
REMARK    2  A    between atoms: C8_8  and  O9_9 
REMARK    3  A    between atoms: C10_11  and  O11_12 
REMARK    4  A    between atoms: C16_18  and  O17_19 
REMARK    5  A    between atoms: C19_22  and  O20_23 
ROOT
HETATM    1  O1          0      24.744  99.043   2.303  1.00  0.00    -0.286 OA
HETATM    2  C2          0      24.216  98.008   2.795  1.00  0.00     0.201 C 
HETATM    3  C3          0      24.345  97.661   4.129  1.00  0.00     0.067 C 
HETATM    4  C4          0      23.840  96.464   4.623  1.00  0.00     0.103 C 
HETATM    5  O13         0      23.207  95.652   3.795  1.00  0.00    -0.307 OA
HETATM    6  C14         0      23.090  95.915   2.511  1.00  0.00     0.107 C 
HETATM    7  C15         0      22.799  94.923   1.586  1.00  0.00     0.049 C 
HETATM    8  C16         0      22.927  95.150   0.221  1.00  0.00     0.093 C 
HETATM    9  C18         0      22.829  96.482  -0.165  1.00  0.00     0.048 C 
HETATM   10  C19         0      23.068  97.500   0.748  1.00  0.00     0.096 C 
HETATM   11  C21         0      23.387  97.190   2.042  1.00  0.00     0.084 C 
ENDROOT
BRANCH  10  12
HETATM   12  O20         0      23.396  98.769   0.281  1.00  0.00    -0.359 OA
HETATM   13  H20         0      23.007  99.057  -0.535  1.00  0.00     0.218 HD
ENDBRANCH  10  12
BRANCH   4  14
HETATM   14  C5          0      24.497  95.896   5.802  1.00  0.00     0.025 C 
HETATM   15  C6          0      25.866  95.678   5.868  1.00  0.00     0.004 C 
HETATM   16  C7          0      26.501  95.928   7.080  1.00  0.00     0.026 C 
HETATM   17  C8          0      25.783  96.255   8.226  1.00  0.00     0.112 C 
HETATM   18  C10         0      24.459  95.834   8.220  1.00  0.00     0.112 C 
HETATM   19  C12         0      23.823  95.673   6.995  1.00  0.00     0.028 C 
BRANCH  17  20
HETATM   20  O9          0      26.312  97.111   9.174  1.00  0.00    -0.357 OA
HETATM   21  H9          0      26.751  96.818   9.964  1.00  0.00     0.218 HD
ENDBRANCH  17  20
BRANCH  18  22
HETATM   22  O11         0      23.753  95.965   9.407  1.00  0.00    -0.357 OA
HETATM   23  H11         0      24.155  96.489  10.091  1.00  0.00     0.218 HD
ENDBRANCH  18  22
ENDBRANCH   4  14
BRANCH   8  24
HETATM   24  O17         0      23.446  94.172  -0.635  1.00  0.00    -0.359 OA
HETATM   25  H17         0      23.514  94.314  -1.572  1.00  0.00     0.218 HD
ENDBRANCH   8  24
TORSDOF 5
ENDMDL
MODEL 3
REMARK VINA RESULT:      -5.3      9.484     12.366
REMARK  5 active torsions:
REMARK  status: ('A' for Active; 'I' for Inactive)
REMARK    1  A    between atoms: C4_4  and  C5_5 
REMARK    2  A    between atoms: C8_8  and  O9_9 
REMARK    3  A    between atoms: C10_11  and  O11_12 
REMARK    4  A    between atoms: C16_18  and  O17_19 
REMARK    5  A    between atoms: C19_22  and  O20_23 
ROOT
HETATM    1  O1          0      23.924  94.404   1.200  1.00  0.00    -0.286 OA
HETATM    2  C2          0      23.878  94.407  -0.061  1.00  0.00     0.201 C 
HETATM    3  C3          0      23.268  93.402  -0.792  1.00  0.00     0.067 C 
HETATM    4  C4          0      23.321  93.376  -2.181  1.00  0.00     0.103 C 
HETATM    5  O13         0      23.953  94.351  -2.810  1.00  0.00    -0.307 OA
HETATM    6  C14         0      24.580  95.310  -2.164  1.00  0.00     0.107 C 
HETATM    7  C15         0      25.556  96.085  -2.773  1.00  0.00     0.049 C 
HETATM    8  C16         0      26.387  96.914  -2.029  1.00  0.00     0.093 C 
HETATM    9  C18         0      25.868  97.322  -0.806  1.00  0.00     0.048 C 
HETATM   10  C19         0      24.858  96.595  -0.191  1.00  0.00     0.096 C 
HETATM   11  C21         0      24.357  95.477  -0.801  1.00  0.00     0.084 C 
ENDROOT
BRANCH  10  12
HETATM   12  O20         0      24.655  96.737   1.178  1.00  0.00    -0.359 OA
HETATM   13  H20         0      23.761  96.814   1.490  1.00  0.00     0.218 HD
ENDBRANCH  10  12
BRANCH   4  14
HETATM   14  C5          0      23.217  92.069  -2.832  1.00  0.00     0.025 C 
HETATM   15  C6          0      22.253  91.132  -2.487  1.00  0.00     0.004 C 
HETATM   16  C7          0      21.684  90.385  -3.513  1.00  0.00     0.026 C 
HETATM   17  C8          0      22.150  90.469  -4.821  1.00  0.00     0.112 C 
HETATM   18  C10         0      23.460  90.912  -4.942  1.00  0.00     0.112 C 
HETATM   19  C12         0      23.977  91.728  -3.943  1.00  0.00     0.028 C 
BRANCH  17  20
HETATM   20  O9          0      21.287  90.321  -5.892  1.00  0.00    -0.357 OA
HETATM   21  H9          0      20.898  89.492  -6.147  1.00  0.00     0.218 HD
ENDBRANCH  17  20
BRANCH  18  22
HETATM   22  O11         0      24.036  90.835  -6.203  1.00  0.00    -0.357 OA
HETATM   23  H11         0      24.495  91.606  -6.514  1.00  0.00     0.218 HD
ENDBRANCH  18  22
ENDBRANCH   4  14
BRANCH   8  24
HETATM   24  O17         0      27.748  97.041  -2.330  1.00  0.00    -0.359 OA
HETATM   25  H17         0      28.082  96.888  -3.206  1.00  0.00     0.218 HD
ENDBRANCH   8  24
TORSDOF 5
ENDMDL
MODEL 4
REMARK VINA RESULT:      -5.3      7.429     10.677
REMARK  5 active torsions:
REMARK  status: ('A' for Active; 'I' for Inactive)
REMARK    1  A    between atoms: C4_4  and  C5_5 
REMARK    2  A    between atoms: C8_8  and  O9_9 
REMARK    3  A    between atoms: C10_11  and  O11_12 
REMARK    4  A    between atoms: C16_18  and  O17_19 
REMARK    5  A    between atoms: C19_22  and  O20_23 
ROOT
HETATM    1  O1          0      24.466  96.303   2.174  1.00  0.00    -0.286 OA
HETATM    2  C2          0      24.192  95.733   1.082  1.00  0.00     0.201 C 
HETATM    3  C3          0      23.429  94.580   1.009  1.00  0.00     0.067 C 
HETATM    4  C4          0      23.228  93.915  -0.195  1.00  0.00     0.103 C 
HETATM    5  O13         0      23.766  94.414  -1.294  1.00  0.00    -0.307 OA
HETATM    6  C14         0      24.529  95.484  -1.274  1.00  0.00     0.107 C 
HETATM    7  C15         0      25.403  95.778  -2.311  1.00  0.00     0.049 C 
HETATM    8  C16         0      26.381  96.756  -2.176  1.00  0.00     0.093 C 
HETATM    9  C18         0      26.105  97.735  -1.229  1.00  0.00     0.048 C 
HETATM   10  C19         0      25.201  97.491  -0.204  1.00  0.00     0.096 C 
HETATM   11  C21         0      24.563  96.282  -0.135  1.00  0.00     0.084 C 
ENDROOT
BRANCH  10  12
HETATM   12  O20         0      25.254  98.267   0.949  1.00  0.00    -0.359 OA
HETATM   13  H20         0      24.440  98.442   1.406  1.00  0.00     0.218 HD
ENDBRANCH  10  12
BRANCH   4  14
HETATM   14  C5          0      22.967  92.475  -0.129  1.00  0.00     0.025 C 
HETATM   15  C6          0      23.628  91.631   0.751  1.00  0.00     0.004 C 
HETATM   16  C7          0      22.891  90.607   1.338  1.00  0.00     0.026 C 
HETATM   17  C8          0      21.577  90.347   0.964  1.00  0.00     0.112 C 
HETATM   18  C10         0      21.237  90.794  -0.306  1.00  0.00     0.112 C 
HETATM   19  C12         0      21.933  91.874  -0.835  1.00  0.00     0.028 C 
BRANCH  17  20
HETATM   20  O9          0      20.658  89.875   1.884  1.00  0.00    -0.357 OA
HETATM   21  H9          0      20.285  89.002   1.857  1.00  0.00     0.218 HD
ENDBRANCH  17  20
BRANCH  18  22
HETATM   22  O11         0      20.003  90.396  -0.803  1.00  0.00    -0.357 OA
HETATM   23  H11         0      19.305  90.273  -0.170  1.00  0.00     0.218 HD
ENDBRANCH  18  22
ENDBRANCH   4  14
BRANCH   8  24
HETATM   24  O17         0      27.668  96.577  -2.695  1.00  0.00    -0.359 OA
HETATM   25  H17         0      27.901  95.803  -3.194  1.00  0.00     0.218 HD
ENDBRANCH   8  24
TORSDOF 5
ENDMDL
MODEL 5
REMARK VINA RESULT:      -5.2      6.663      8.813
REMARK  5 active torsions:
REMARK  status: ('A' for Active; 'I' for Inactive)
REMARK    1  A    between atoms: C4_4  and  C5_5 
REMARK    2  A    between atoms: C8_8  and  O9_9 
REMARK    3  A    between atoms: C10_11  and  O11_12 
REMARK    4  A    between atoms: C16_18  and  O17_19 
REMARK    5  A    between atoms: C19_22  and  O20_23 
ROOT
HETATM    1  O1          0      23.540 103.774  -2.168  1.00  0.00    -0.286 OA
HETATM    2  C2          0      23.067 103.943  -1.011  1.00  0.00     0.201 C 
HETATM    3  C3          0      22.364 105.079  -0.647  1.00  0.00     0.067 C 
HETATM    4  C4          0      21.942 105.287   0.662  1.00  0.00     0.103 C 
HETATM    5  O13         0      22.207 104.362   1.568  1.00  0.00    -0.307 OA
HETATM    6  C14         0      22.903 103.283   1.284  1.00  0.00     0.107 C 
HETATM    7  C15         0      23.518 102.529   2.272  1.00  0.00     0.049 C 
HETATM    8  C16         0      24.453 101.550   1.956  1.00  0.00     0.093 C 
HETATM    9  C18         0      24.338 101.020   0.677  1.00  0.00     0.048 C 
HETATM   10  C19         0      23.688 101.728  -0.324  1.00  0.00     0.096 C 
HETATM   11  C21         0      23.140 102.951  -0.045  1.00  0.00     0.084 C 
ENDROOT
BRANCH  10  12
HETATM   12  O20         0      23.948 101.418  -1.656  1.00  0.00    -0.359 OA
HETATM   13  H20         0      24.834 101.169  -1.890  1.00  0.00     0.218 HD
ENDBRANCH  10  12
BRANCH   4  14
HETATM   14  C5          0      21.773 106.674   1.099  1.00  0.00     0.025 C 
HETATM   15  C6          0      21.073 107.021   2.245  1.00  0.00     0.004 C 
HETATM   16  C7          0      21.572 108.068   3.013  1.00  0.00     0.026 C 
HETATM   17  C8          0      22.652 108.834   2.587  1.00  0.00     0.112 C 
HETATM   18  C10         0      22.859 108.833   1.214  1.00  0.00     0.112 C 
HETATM   19  C12         0      22.426 107.733   0.482  1.00  0.00     0.028 C 
BRANCH  17  20
HETATM   20  O9          0      23.549 109.363   3.499  1.00  0.00    -0.357 OA
HETATM   21  H9          0      24.282 108.878   3.861  1.00  0.00     0.218 HD
ENDBRANCH  17  20
BRANCH  18  22
HETATM   22  O11         0      23.800 109.724   0.719  1.00  0.00    -0.357 OA
HETATM   23  H11         0      24.194 109.512  -0.119  1.00  0.00     0.218 HD
ENDBRANCH  18  22
ENDBRANCH   4  14
BRANCH   8  24
HETATM   24  O17         0      25.606 101.367   2.728  1.00  0.00    -0.359 OA
HETATM   25  H17         0      26.371 100.923   2.384  1.00  0.00     0.218 HD
ENDBRANCH   8  24
TORSDOF 5
ENDMDL
MODEL 6
REMARK VINA RESULT:      -5.2      8.924     10.517
REMARK  5 active torsions:
REMARK  status: ('A' for Active; 'I' for Inactive)
REMARK    1  A    between atoms: C4_4  and  C5_5 
REMARK    2  A    between atoms: C8_8  and  O9_9 
REMARK    3  A    between atoms: C10_11  and  O11_12 
REMARK    4  A    between atoms: C16_18  and  O17_19 
REMARK    5  A    between atoms: C19_22  and  O20_23 
ROOT
HETATM    1  O1          0      23.443  91.603  -4.280  1.00  0.00    -0.286 OA
HETATM    2  C2          0      23.257  92.428  -3.343  1.00  0.00     0.201 C 
HETATM    3  C3          0      23.458  93.790  -3.491  1.00  0.00     0.067 C 
HETATM    4  C4          0      23.345  94.664  -2.416  1.00  0.00     0.103 C 
HETATM    5  O13         0      23.018  94.176  -1.233  1.00  0.00    -0.307 OA
HETATM    6  C14         0      22.853  92.888  -1.029  1.00  0.00     0.107 C 
HETATM    7  C15         0      22.909  92.335   0.242  1.00  0.00     0.049 C 
HETATM    8  C16         0      22.989  90.960   0.429  1.00  0.00     0.093 C 
HETATM    9  C18         0      22.486  90.196  -0.617  1.00  0.00     0.048 C 
HETATM   10  C19         0      22.373  90.732  -1.892  1.00  0.00     0.096 C 
HETATM   11  C21         0      22.743  92.029  -2.118  1.00  0.00     0.084 C 
ENDROOT
BRANCH  10  12
HETATM   12  O20         0      22.295  89.875  -2.986  1.00  0.00    -0.359 OA
HETATM   13  H20         0      23.093  89.694  -3.467  1.00  0.00     0.218 HD
ENDBRANCH  10  12
BRANCH   4  14
HETATM   14  C5          0      24.121  95.904  -2.478  1.00  0.00     0.025 C 
HETATM   15  C6          0      23.658  97.107  -1.966  1.00  0.00     0.004 C 
HETATM   16  C7          0      24.578  97.936  -1.333  1.00  0.00     0.026 C 
HETATM   17  C8          0      25.938  97.644  -1.326  1.00  0.00     0.112 C 
HETATM   18  C10         0      26.359  96.817  -2.358  1.00  0.00     0.112 C 
HETATM   19  C12         0      25.439  95.937  -2.916  1.00  0.00     0.028 C 
BRANCH  17  20
HETATM   20  O9          0      26.732  97.991  -0.247  1.00  0.00    -0.357 OA
HETATM   21  H9          0      27.330  98.729  -0.247  1.00  0.00     0.218 HD
ENDBRANCH  17  20
BRANCH  18  22
HETATM   22  O11         0      27.728  96.647  -2.510  1.00  0.00    -0.357 OA
HETATM   23  H11         0      28.058  95.757  -2.470  1.00  0.00     0.218 HD
ENDBRANCH  18  22
ENDBRANCH   4  14
BRANCH   8  24
HETATM   24  O17         0      23.808  90.406   1.418  1.00  0.00    -0.359 OA
HETATM   25  H17         0      23.491  90.252   2.301  1.00  0.00     0.218 HD
ENDBRANCH   8  24
TORSDOF 5
ENDMDL
MODEL 7
REMARK VINA RESULT:      -5.2      3.738      6.358
REMARK  5 active torsions:
REMARK  status: ('A' for Active; 'I' for Inactive)
REMARK    1  A    between atoms: C4_4  and  C5_5 
REMARK    2  A    between atoms: C8_8  and  O9_9 
REMARK    3  A    between atoms: C10_11  and  O11_12 
REMARK    4  A    between atoms: C16_18  and  O17_19 
REMARK    5  A    between atoms: C19_22  and  O20_23 
ROOT
HETATM    1  O1          0      20.698  98.211   4.037  1.00  0.00    -0.286 OA
HETATM    2  C2          0      21.911  97.906   3.870  1.00  0.00     0.201 C 
HETATM    3  C3          0      22.530  96.882   4.565  1.00  0.00     0.067 C 
HETATM    4  C4          0      23.892  96.634   4.437  1.00  0.00     0.103 C 
HETATM    5  O13         0      24.600  97.387   3.615  1.00  0.00    -0.307 OA
HETATM    6  C14         0      24.069  98.396   2.960  1.00  0.00     0.107 C 
HETATM    7  C15         0      24.849  99.413   2.427  1.00  0.00     0.049 C 
HETATM    8  C16         0      24.278 100.593   1.965  1.00  0.00     0.093 C 
HETATM    9  C18         0      22.948 100.489   1.576  1.00  0.00     0.048 C 
HETATM   10  C19         0      22.152  99.457   2.053  1.00  0.00     0.096 C 
HETATM   11  C21         0      22.685  98.524   2.900  1.00  0.00     0.084 C 
ENDROOT
BRANCH  10  12
HETATM   12  O20         0      20.768  99.596   2.024  1.00  0.00    -0.359 OA
HETATM   13  H20         0      20.356 100.091   2.722  1.00  0.00     0.218 HD
ENDBRANCH  10  12
BRANCH   4  14
HETATM   14  C5          0      24.567  96.003   5.573  1.00  0.00     0.025 C 
HETATM   15  C6          0      25.941  95.817   5.622  1.00  0.00     0.004 C 
HETATM   16  C7          0      26.573  96.000   6.848  1.00  0.00     0.026 C 
HETATM   17  C8          0      25.851  96.228   8.014  1.00  0.00     0.112 C 
HETATM   18  C10         0      24.539  95.774   7.982  1.00  0.00     0.112 C 
HETATM   19  C12         0      23.903  95.681   6.749  1.00  0.00     0.028 C 
BRANCH  17  20
HETATM   20  O9          0      26.361  97.031   9.019  1.00  0.00    -0.357 OA
HETATM   21  H9          0      26.619  96.707   9.874  1.00  0.00     0.218 HD
ENDBRANCH  17  20
BRANCH  18  22
HETATM   22  O11         0      23.833  95.804   9.176  1.00  0.00    -0.357 OA
HETATM   23  H11         0      24.262  96.214   9.918  1.00  0.00     0.218 HD
ENDBRANCH  18  22
ENDBRANCH   4  14
BRANCH   8  24
HETATM   24  O17         0      24.883 101.834   2.195  1.00  0.00    -0.359 OA
HETATM   25  H17         0      25.249 102.062   3.041  1.00  0.00     0.218 HD
ENDBRANCH   8  24
TORSDOF 5
ENDMDL
MODEL 8
REMARK VINA RESULT:      -5.2      4.723      7.592
REMARK  5 active torsions:
REMARK  status: ('A' for Active; 'I' for Inactive)
REMARK    1  A    between atoms: C4_4  and  C5_5 
REMARK    2  A    between atoms: C8_8  and  O9_9 
REMARK    3  A    between atoms: C10_11  and  O11_12 
REMARK    4  A    between atoms: C16_18  and  O17_19 
REMARK    5  A    between atoms: C19_22  and  O20_23 
ROOT
HETATM    1  O1          0      21.647  97.857   4.660  1.00  0.00    -0.286 OA
HETATM    2  C2          0      22.660  97.397   4.065  1.00  0.00     0.201 C 
HETATM    3  C3          0      22.674  97.124   2.708  1.00  0.00     0.067 C 
HETATM    4  C4          0      23.768  96.522   2.097  1.00  0.00     0.103 C 
HETATM    5  O13         0      24.823  96.225   2.834  1.00  0.00    -0.307 OA
HETATM    6  C14         0      24.848  96.429   4.133  1.00  0.00     0.107 C 
HETATM    7  C15         0      25.751  95.775   4.959  1.00  0.00     0.049 C 
HETATM    8  C16         0      25.611  95.794   6.341  1.00  0.00     0.093 C 
HETATM    9  C18         0      24.901  96.878   6.844  1.00  0.00     0.048 C 
HETATM   10  C19         0      24.024  97.585   6.032  1.00  0.00     0.096 C 
HETATM   11  C21         0      23.869  97.221   4.722  1.00  0.00     0.084 C 
ENDROOT
BRANCH  10  12
HETATM   12  O20         0      23.024  98.353   6.619  1.00  0.00    -0.359 OA
HETATM   13  H20         0      22.170  98.365   6.204  1.00  0.00     0.218 HD
ENDBRANCH  10  12
BRANCH   4  14
HETATM   14  C5          0      23.512  95.740   0.886  1.00  0.00     0.025 C 
HETATM   15  C6          0      23.569  96.286  -0.388  1.00  0.00     0.004 C 
HETATM   16  C7          0      24.109  95.502  -1.402  1.00  0.00     0.026 C 
HETATM   17  C8          0      24.456  94.172  -1.189  1.00  0.00     0.112 C 
HETATM   18  C10         0      23.796  93.563  -0.131  1.00  0.00     0.112 C 
HETATM   19  C12         0      23.341  94.362   0.912  1.00  0.00     0.028 C 
BRANCH  17  20
HETATM   20  O9          0      25.526  93.603  -1.857  1.00  0.00    -0.357 OA
HETATM   21  H9          0      26.361  93.408  -1.447  1.00  0.00     0.218 HD
ENDBRANCH  17  20
BRANCH  18  22
HETATM   22  O11         0      23.961  92.192   0.008  1.00  0.00    -0.357 OA
HETATM   23  H11         0      24.645  91.787  -0.512  1.00  0.00     0.218 HD
ENDBRANCH  18  22
ENDBRANCH   4  14
BRANCH   8  24
HETATM   24  O17         0      25.862  94.656   7.116  1.00  0.00    -0.359 OA
HETATM   25  H17         0      26.007  94.713   8.053  1.00  0.00     0.218 HD
ENDBRANCH   8  24
TORSDOF 5
ENDMDL
MODEL 9
REMARK VINA RESULT:      -5.1      8.929     10.717
REMARK  5 active torsions:
REMARK  status: ('A' for Active; 'I' for Inactive)
REMARK    1  A    between atoms: C4_4  and  C5_5 
REMARK    2  A    between atoms: C8_8  and  O9_9 
REMARK    3  A    between atoms: C10_11  and  O11_12 
REMARK    4  A    between atoms: C16_18  and  O17_19 
REMARK    5  A    between atoms: C19_22  and  O20_23 
ROOT
HETATM    1  O1          0      23.142  92.298  -0.404  1.00  0.00    -0.286 OA
HETATM    2  C2          0      23.523  93.068  -1.328  1.00  0.00     0.201 C 
HETATM    3  C3          0      24.230  94.234  -1.089  1.00  0.00     0.067 C 
HETATM    4  C4          0      24.548  95.117  -2.115  1.00  0.00     0.103 C 
HETATM    5  O13         0      24.179  94.817  -3.347  1.00  0.00    -0.307 OA
HETATM    6  C14         0      23.473  93.742  -3.624  1.00  0.00     0.107 C 
HETATM    7  C15         0      22.754  93.623  -4.804  1.00  0.00     0.049 C 
HETATM    8  C16         0      21.816  92.612  -4.979  1.00  0.00     0.093 C 
HETATM    9  C18         0      22.020  91.481  -4.197  1.00  0.00     0.048 C 
HETATM   10  C19         0      22.774  91.554  -3.034  1.00  0.00     0.096 C 
HETATM   11  C21         0      23.336  92.745  -2.663  1.00  0.00     0.084 C 
ENDROOT
BRANCH  10  12
HETATM   12  O20         0      22.615  90.576  -2.057  1.00  0.00    -0.359 OA
HETATM   13  H20         0      23.174  89.809  -2.100  1.00  0.00     0.218 HD
ENDBRANCH  10  12
BRANCH   4  14
HETATM   14  C5          0      24.726  96.525  -1.756  1.00  0.00     0.025 C 
HETATM   15  C6          0      23.661  97.378  -1.504  1.00  0.00     0.004 C 
HETATM   16  C7          0      23.807  98.308  -0.480  1.00  0.00     0.026 C 
HETATM   17  C8          0      25.018  98.478   0.183  1.00  0.00     0.112 C 
HETATM   18  C10         0      26.134  98.067  -0.533  1.00  0.00     0.112 C 
HETATM   19  C12         0      25.974  97.074  -1.493  1.00  0.00     0.028 C 
BRANCH  17  20
HETATM   20  O9          0      25.050  98.828   1.521  1.00  0.00    -0.357 OA
HETATM   21  H9          0      24.587  98.354   2.202  1.00  0.00     0.218 HD
ENDBRANCH  17  20
BRANCH  18  22
HETATM   22  O11         0      27.375  98.385   0.000  1.00  0.00    -0.357 OA
HETATM   23  H11         0      28.120  98.339  -0.588  1.00  0.00     0.218 HD
ENDBRANCH  18  22
ENDBRANCH   4  14
BRANCH   8  24
HETATM   24  O17         0      20.598  92.851  -5.625  1.00  0.00    -0.359 OA
HETATM   25  H17         0      20.484  92.681  -6.553  1.00  0.00     0.218 HD
ENDBRANCH   8  24
TORSDOF 5
ENDMDL
