MODEL 1
REMARK VINA RESULT:      -6.6      0.000      0.000
REMARK  5 active torsions:
REMARK  status: ('A' for Active; 'I' for Inactive)
REMARK    1  A    between atoms: C4_4  and  C5_5 
REMARK    2  A    between atoms: C8_8  and  O9_9 
REMARK    3  A    between atoms: C10_11  and  O11_12 
REMARK    4  A    between atoms: C16_18  and  O17_19 
REMARK    5  A    between atoms: C19_22  and  O20_23 
ROOT
HETATM    1  O1          0      23.465  26.837  25.310  1.00  0.00    -0.286 OA
HETATM    2  C2          0      24.650  26.770  24.881  1.00  0.00     0.201 C 
HETATM    3  C3          0      25.182  25.619  24.326  1.00  0.00     0.067 C 
HETATM    4  C4          0      26.520  25.541  23.954  1.00  0.00     0.103 C 
HETATM    5  O13         0      27.288  26.603  24.121  1.00  0.00    -0.307 OA
HETATM    6  C14         0      26.842  27.708  24.677  1.00  0.00     0.107 C 
HETATM    7  C15         0      27.703  28.655  25.214  1.00  0.00     0.049 C 
HETATM    8  C16         0      27.231  29.684  26.019  1.00  0.00     0.093 C 
HETATM    9  C18         0      25.898  30.021  25.820  1.00  0.00     0.048 C 
HETATM   10  C19         0      25.019  29.114  25.242  1.00  0.00     0.096 C 
HETATM   11  C21         0      25.474  27.885  24.851  1.00  0.00     0.084 C 
ENDROOT
BRANCH  10  12
HETATM   12  O20         0      23.651  29.271  25.441  1.00  0.00    -0.359 OA
HETATM   13  H20         0      23.344  30.099  25.793  1.00  0.00     0.218 HD
ENDBRANCH  10  12
BRANCH   4  14
HETATM   14  C5          0      27.140  24.214  23.960  1.00  0.00     0.025 C 
HETATM   15  C6          0      28.117  23.837  23.050  1.00  0.00     0.004 C 
HETATM   16  C7          0      29.159  23.042  23.516  1.00  0.00     0.026 C 
HETATM   17  C8          0      29.162  22.526  24.808  1.00  0.00     0.112 C 
HETATM   18  C10         0      27.907  22.422  25.393  1.00  0.00     0.112 C 
HETATM   19  C12         0      26.906  23.288  24.968  1.00  0.00     0.028 C 
BRANCH  17  20
HETATM   20  O9          0      30.348  22.345  25.497  1.00  0.00    -0.357 OA
HETATM   21  H9          0      30.954  21.633  25.327  1.00  0.00     0.218 HD
ENDBRANCH  17  20
BRANCH  18  22
HETATM   22  O11         0      27.831  21.743  26.601  1.00  0.00    -0.357 OA
HETATM   23  H11         0      27.943  22.258  27.392  1.00  0.00     0.218 HD
ENDBRANCH  18  22
ENDBRANCH   4  14
BRANCH   8  24
HETATM   24  O17         0      27.934  30.103  27.154  1.00  0.00    -0.359 OA
HETATM   25  H17         0      27.778  30.951  27.553  1.00  0.00     0.218 HD
ENDBRANCH   8  24
TORSDOF 5
ENDMDL
MODEL 2
REMARK VINA RESULT:      -6.6      9.863     12.543
REMARK  5 active torsions:
REMARK  status: ('A' for Active; 'I' for Inactive)
REMARK    1  A    between atoms: C4_4  and  C5_5 
REMARK    2  A    between atoms: C8_8  and  O9_9 
REMARK    3  A    between atoms: C10_11  and  O11_12 
REMARK    4  A    between atoms: C16_18  and  O17_19 
REMARK    5  A    between atoms: C19_22  and  O20_23 
ROOT
HETATM    1  O1          0      24.711  17.584  14.443  1.00  0.00    -0.286 OA
HETATM    2  C2          0      24.227  18.346  15.324  1.00  0.00     0.201 C 
HETATM    3  C3          0      23.225  19.262  15.056  1.00  0.00     0.067 C 
HETATM    4  C4          0      22.781  20.160  16.021  1.00  0.00     0.103 C 
HETATM    5  O13         0      23.322  20.115  17.226  1.00  0.00    -0.307 OA
HETATM    6  C14         0      24.302  19.290  17.522  1.00  0.00     0.107 C 
HETATM    7  C15         0      25.129  19.500  18.616  1.00  0.00     0.049 C 
HETATM    8  C16         0      26.307  18.781  18.779  1.00  0.00     0.093 C 
HETATM    9  C18         0      26.334  17.547  18.141  1.00  0.00     0.048 C 
HETATM   10  C19         0      25.488  17.287  17.072  1.00  0.00     0.096 C 
HETATM   11  C21         0      24.607  18.247  16.654  1.00  0.00     0.084 C 
ENDROOT
BRANCH  10  12
HETATM   12  O20         0      25.807  16.264  16.184  1.00  0.00    -0.359 OA
HETATM   13  H20         0      25.422  16.291  15.316  1.00  0.00     0.218 HD
ENDBRANCH  10  12
BRANCH   4  14
HETATM   14  C5          0      22.215  21.425  15.549  1.00  0.00     0.025 C 
HETATM   15  C6          0      21.719  22.394  16.409  1.00  0.00     0.004 C 
HETATM   16  C7          0      21.956  23.726  16.085  1.00  0.00     0.026 C 
HETATM   17  C8          0      22.548  24.089  14.880  1.00  0.00     0.112 C 
HETATM   18  C10         0      22.420  23.150  13.865  1.00  0.00     0.112 C 
HETATM   19  C12         0      22.269  21.814  14.217  1.00  0.00     0.028 C 
BRANCH  17  20
HETATM   20  O9          0      23.368  25.200  14.799  1.00  0.00    -0.357 OA
HETATM   21  H9          0      23.677  25.570  13.980  1.00  0.00     0.218 HD
ENDBRANCH  17  20
BRANCH  18  22
HETATM   22  O11         0      22.824  23.537  12.595  1.00  0.00    -0.357 OA
HETATM   23  H11         0      22.577  24.411  12.314  1.00  0.00     0.218 HD
ENDBRANCH  18  22
ENDBRANCH   4  14
BRANCH   8  24
HETATM   24  O17         0      27.474  19.391  19.253  1.00  0.00    -0.359 OA
HETATM   25  H17         0      28.302  19.307  18.795  1.00  0.00     0.218 HD
ENDBRANCH   8  24
TORSDOF 5
ENDMDL
MODEL 3
REMARK VINA RESULT:      -6.6      2.515      7.144
REMARK  5 active torsions:
REMARK  status: ('A' for Active; 'I' for Inactive)
REMARK    1  A    between atoms: C4_4  and  C5_5 
REMARK    2  A    between atoms: C8_8  and  O9_9 
REMARK    3  A    between atoms: C10_11  and  O11_12 
REMARK    4  A    between atoms: C16_18  and  O17_19 
REMARK    5  A    between atoms: C19_22  and  O20_23 
ROOT
HETATM    1  O1          0      26.431  21.364  25.548  1.00  0.00    -0.286 OA
HETATM    2  C2          0      27.012  22.126  24.727  1.00  0.00     0.201 C 
HETATM    3  C3          0      26.990  23.506  24.839  1.00  0.00     0.067 C 
HETATM    4  C4          0      27.551  24.325  23.865  1.00  0.00     0.103 C 
HETATM    5  O13         0      28.134  23.762  22.821  1.00  0.00    -0.307 OA
HETATM    6  C14         0      28.149  22.458  22.648  1.00  0.00     0.107 C 
HETATM    7  C15         0      28.387  21.889  21.405  1.00  0.00     0.049 C 
HETATM    8  C16         0      28.153  20.539  21.173  1.00  0.00     0.093 C 
HETATM    9  C18         0      28.198  19.732  22.304  1.00  0.00     0.048 C 
HETATM   10  C19         0      28.011  20.277  23.567  1.00  0.00     0.096 C 
HETATM   11  C21         0      27.796  21.622  23.701  1.00  0.00     0.084 C 
ENDROOT
BRANCH  10  12
HETATM   12  O20         0      27.627  19.447  24.616  1.00  0.00    -0.359 OA
HETATM   13  H20         0      27.746  18.511  24.509  1.00  0.00     0.218 HD
ENDBRANCH  10  12
BRANCH   4  14
HETATM   14  C5          0      26.994  25.671  23.720  1.00  0.00     0.025 C 
HETATM   15  C6          0      25.817  26.068  24.337  1.00  0.00     0.004 C 
HETATM   16  C7          0      25.759  27.364  24.841  1.00  0.00     0.026 C 
HETATM   17  C8          0      26.783  28.278  24.622  1.00  0.00     0.112 C 
HETATM   18  C10         0      27.571  28.011  23.510  1.00  0.00     0.112 C 
HETATM   19  C12         0      27.680  26.695  23.079  1.00  0.00     0.028 C 
BRANCH  17  20
HETATM   20  O9          0      27.093  29.236  25.572  1.00  0.00    -0.357 OA
HETATM   21  H9          0      27.340  30.129  25.360  1.00  0.00     0.218 HD
ENDBRANCH  17  20
BRANCH  18  22
HETATM   22  O11         0      28.484  28.988  23.138  1.00  0.00    -0.357 OA
HETATM   23  H11         0      29.141  29.229  23.780  1.00  0.00     0.218 HD
ENDBRANCH  18  22
ENDBRANCH   4  14
BRANCH   8  24
HETATM   24  O17         0      27.588  20.093  19.973  1.00  0.00    -0.359 OA
HETATM   25  H17         0      28.072  20.110  19.157  1.00  0.00     0.218 HD
ENDBRANCH   8  24
TORSDOF 5
ENDMDL
MODEL 4
REMARK VINA RESULT:      -6.5      1.763      2.145
REMARK  5 active torsions:
REMARK  status: ('A' for Active; 'I' for Inactive)
REMARK    1  A    between atoms: C4_4  and  C5_5 
REMARK    2  A    between atoms: C8_8  and  O9_9 
REMARK    3  A    between atoms: C10_11  and  O11_12 
REMARK    4  A    between atoms: C16_18  and  O17_19 
REMARK    5  A    between atoms: C19_22  and  O20_23 
ROOT
HETATM    1  O1          0      23.986  25.641  25.194  1.00  0.00    -0.286 OA
HETATM    2  C2          0      25.081  25.880  24.615  1.00  0.00     0.201 C 
HETATM    3  C3          0      25.770  24.925  23.888  1.00  0.00     0.067 C 
HETATM    4  C4          0      27.024  25.186  23.346  1.00  0.00     0.103 C 
HETATM    5  O13         0      27.553  26.385  23.518  1.00  0.00    -0.307 OA
HETATM    6  C14         0      26.957  27.316  24.231  1.00  0.00     0.107 C 
HETATM    7  C15         0      27.654  28.400  24.745  1.00  0.00     0.049 C 
HETATM    8  C16         0      27.086  29.235  25.700  1.00  0.00     0.093 C 
HETATM    9  C18         0      25.697  29.264  25.703  1.00  0.00     0.048 C 
HETATM   10  C19         0      24.968  28.217  25.154  1.00  0.00     0.096 C 
HETATM   11  C21         0      25.623  27.156  24.591  1.00  0.00     0.084 C 
ENDROOT
BRANCH  10  12
HETATM   12  O20         0      23.643  28.037  25.537  1.00  0.00    -0.359 OA
HETATM   13  H20         0      23.151  27.337  25.124  1.00  0.00     0.218 HD
ENDBRANCH  10  12
BRANCH   4  14
HETATM   14  C5          0      27.918  24.044  23.145  1.00  0.00     0.025 C 
HETATM   15  C6          0      28.578  23.413  24.189  1.00  0.00     0.004 C 
HETATM   16  C7          0      28.702  22.029  24.130  1.00  0.00     0.026 C 
HETATM   17  C8          0      28.304  21.307  23.010  1.00  0.00     0.112 C 
HETATM   18  C10         0      28.264  22.041  21.832  1.00  0.00     0.112 C 
HETATM   19  C12         0      28.053  23.413  21.915  1.00  0.00     0.028 C 
BRANCH  17  20
HETATM   20  O9          0      27.793  20.028  23.135  1.00  0.00    -0.357 OA
HETATM   21  H9          0      26.896  19.794  22.924  1.00  0.00     0.218 HD
ENDBRANCH  17  20
BRANCH  18  22
HETATM   22  O11         0      28.057  21.333  20.657  1.00  0.00    -0.357 OA
HETATM   23  H11         0      27.192  20.965  20.523  1.00  0.00     0.218 HD
ENDBRANCH  18  22
ENDBRANCH   4  14
BRANCH   8  24
HETATM   24  O17         0      27.835  29.731  26.773  1.00  0.00    -0.359 OA
HETATM   25  H17         0      27.604  30.541  27.211  1.00  0.00     0.218 HD
ENDBRANCH   8  24
TORSDOF 5
ENDMDL
MODEL 5
REMARK VINA RESULT:      -6.5      3.785      7.489
REMARK  5 active torsions:
REMARK  status: ('A' for Active; 'I' for Inactive)
REMARK    1  A    between atoms: C4_4  and  C5_5 
REMARK    2  A    between atoms: C8_8  and  O9_9 
REMARK    3  A    between atoms: C10_11  and  O11_12 
REMARK    4  A    between atoms: C16_18  and  O17_19 
REMARK    5  A    between atoms: C19_22  and  O20_23 
ROOT
HETATM    1  O1          0      31.500  21.876  27.125  1.00  0.00    -0.286 OA
HETATM    2  C2          0      30.355  21.655  26.644  1.00  0.00     0.201 C 
HETATM    3  C3          0      29.880  22.296  25.512  1.00  0.00     0.067 C 
HETATM    4  C4          0      28.577  22.111  25.063  1.00  0.00     0.103 C 
HETATM    5  O13         0      27.788  21.285  25.727  1.00  0.00    -0.307 OA
HETATM    6  C14         0      28.176  20.681  26.828  1.00  0.00     0.107 C 
HETATM    7  C15         0      27.266  20.150  27.731  1.00  0.00     0.049 C 
HETATM    8  C16         0      27.661  19.745  29.001  1.00  0.00     0.093 C 
HETATM    9  C18         0      29.003  19.402  29.116  1.00  0.00     0.048 C 
HETATM   10  C19         0      29.934  19.877  28.202  1.00  0.00     0.096 C 
HETATM   11  C21         0      29.525  20.676  27.169  1.00  0.00     0.084 C 
ENDROOT
BRANCH  10  12
HETATM   12  O20         0      31.280  19.903  28.553  1.00  0.00    -0.359 OA
HETATM   13  H20         0      31.741  20.731  28.486  1.00  0.00     0.218 HD
ENDBRANCH  10  12
BRANCH   4  14
HETATM   14  C5          0      27.972  23.202  24.297  1.00  0.00     0.025 C 
HETATM   15  C6          0      28.563  23.745  23.165  1.00  0.00     0.004 C 
HETATM   16  C7          0      27.729  24.103  22.111  1.00  0.00     0.026 C 
HETATM   17  C8          0      26.344  24.050  22.226  1.00  0.00     0.112 C 
HETATM   18  C10         0      25.868  24.117  23.528  1.00  0.00     0.112 C 
HETATM   19  C12         0      26.691  23.672  24.556  1.00  0.00     0.028 C 
BRANCH  17  20
HETATM   20  O9          0      25.554  23.742  21.133  1.00  0.00    -0.357 OA
HETATM   21  H9          0      24.751  23.237  21.188  1.00  0.00     0.218 HD
ENDBRANCH  17  20
BRANCH  18  22
HETATM   22  O11         0      24.497  24.258  23.689  1.00  0.00    -0.357 OA
HETATM   23  H11         0      24.061  24.890  23.129  1.00  0.00     0.218 HD
ENDBRANCH  18  22
ENDBRANCH   4  14
BRANCH   8  24
HETATM   24  O17         0      26.865  19.990  30.125  1.00  0.00    -0.359 OA
HETATM   25  H17         0      27.127  20.607  30.797  1.00  0.00     0.218 HD
ENDBRANCH   8  24
TORSDOF 5
ENDMDL
MODEL 6
REMARK VINA RESULT:      -6.1      3.792      6.031
REMARK  5 active torsions:
REMARK  status: ('A' for Active; 'I' for Inactive)
REMARK    1  A    between atoms: C4_4  and  C5_5 
REMARK    2  A    between atoms: C8_8  and  O9_9 
REMARK    3  A    between atoms: C10_11  and  O11_12 
REMARK    4  A    between atoms: C16_18  and  O17_19 
REMARK    5  A    between atoms: C19_22  and  O20_23 
ROOT
HETATM    1  O1          0      26.160  20.146  22.833  1.00  0.00    -0.286 OA
HETATM    2  C2          0      27.128  20.650  23.465  1.00  0.00     0.201 C 
HETATM    3  C3          0      27.729  20.022  24.543  1.00  0.00     0.067 C 
HETATM    4  C4          0      28.726  20.645  25.285  1.00  0.00     0.103 C 
HETATM    5  O13         0      29.116  21.857  24.934  1.00  0.00    -0.307 OA
HETATM    6  C14         0      28.553  22.513  23.942  1.00  0.00     0.107 C 
HETATM    7  C15         0      28.664  23.890  23.821  1.00  0.00     0.049 C 
HETATM    8  C16         0      27.867  24.603  22.932  1.00  0.00     0.093 C 
HETATM    9  C18         0      27.387  23.867  21.855  1.00  0.00     0.048 C 
HETATM   10  C19         0      27.307  22.483  21.926  1.00  0.00     0.096 C 
HETATM   11  C21         0      27.720  21.836  23.058  1.00  0.00     0.084 C 
ENDROOT
BRANCH  10  12
HETATM   12  O20         0      26.450  21.807  21.063  1.00  0.00    -0.359 OA
HETATM   13  H20         0      25.539  21.724  21.316  1.00  0.00     0.218 HD
ENDBRANCH  10  12
BRANCH   4  14
HETATM   14  C5          0      28.876  20.234  26.683  1.00  0.00     0.025 C 
HETATM   15  C6          0      29.537  19.073  27.058  1.00  0.00     0.004 C 
HETATM   16  C7          0      30.320  19.120  28.208  1.00  0.00     0.026 C 
HETATM   17  C8          0      30.340  20.241  29.031  1.00  0.00     0.112 C 
HETATM   18  C10         0      29.217  21.052  28.934  1.00  0.00     0.112 C 
HETATM   19  C12         0      28.501  21.049  27.743  1.00  0.00     0.028 C 
BRANCH  17  20
HETATM   20  O9          0      31.489  20.599  29.714  1.00  0.00    -0.357 OA
HETATM   21  H9          0      32.171  21.150  29.347  1.00  0.00     0.218 HD
ENDBRANCH  17  20
BRANCH  18  22
HETATM   22  O11         0      29.098  22.075  29.864  1.00  0.00    -0.357 OA
HETATM   23  H11         0      28.239  22.212  30.245  1.00  0.00     0.218 HD
ENDBRANCH  18  22
ENDBRANCH   4  14
BRANCH   8  24
HETATM   24  O17         0      27.323  25.845  23.276  1.00  0.00    -0.359 OA
HETATM   25  H17         0      27.536  26.274  24.096  1.00  0.00     0.218 HD
ENDBRANCH   8  24
TORSDOF 5
ENDMDL
MODEL 7
REMARK VINA RESULT:      -6.0      3.573      7.656
REMARK  5 active torsions:
REMARK  status: ('A' for Active; 'I' for Inactive)
REMARK    1  A    between atoms: C4_4  and  C5_5 
REMARK    2  A    between atoms: C8_8  and  O9_9 
REMARK    3  A    between atoms: C10_11  and  O11_12 
REMARK    4  A    between atoms: C16_18  and  O17_19 
REMARK    5  A    between atoms: C19_22  and  O20_23 
ROOT
HETATM    1  O1          0      29.222  18.577  24.910  1.00  0.00    -0.286 OA
HETATM    2  C2          0      28.821  19.611  25.510  1.00  0.00     0.201 C 
HETATM    3  C3          0      28.140  20.633  24.871  1.00  0.00     0.067 C 
HETATM    4  C4          0      27.800  21.808  25.533  1.00  0.00     0.103 C 
HETATM    5  O13         0      28.121  21.933  26.808  1.00  0.00    -0.307 OA
HETATM    6  C14         0      28.799  21.009  27.452  1.00  0.00     0.107 C 
HETATM    7  C15         0      29.475  21.287  28.632  1.00  0.00     0.049 C 
HETATM    8  C16         0      30.390  20.390  29.169  1.00  0.00     0.093 C 
HETATM    9  C18         0      30.198  19.064  28.799  1.00  0.00     0.048 C 
HETATM   10  C19         0      29.486  18.748  27.649  1.00  0.00     0.096 C 
HETATM   11  C21         0      28.955  19.750  26.883  1.00  0.00     0.084 C 
ENDROOT
BRANCH  10  12
HETATM   12  O20         0      29.665  17.501  27.060  1.00  0.00    -0.359 OA
HETATM   13  H20         0      30.347  16.938  27.406  1.00  0.00     0.218 HD
ENDBRANCH  10  12
BRANCH   4  14
HETATM   14  C5          0      27.656  23.017  24.720  1.00  0.00     0.025 C 
HETATM   15  C6          0      28.599  23.409  23.782  1.00  0.00     0.004 C 
HETATM   16  C7          0      28.135  23.964  22.594  1.00  0.00     0.026 C 
HETATM   17  C8          0      26.787  24.245  22.398  1.00  0.00     0.112 C 
HETATM   18  C10         0      26.054  24.415  23.565  1.00  0.00     0.112 C 
HETATM   19  C12         0      26.495  23.779  24.719  1.00  0.00     0.028 C 
BRANCH  17  20
HETATM   20  O9          0      26.217  24.142  21.141  1.00  0.00    -0.357 OA
HETATM   21  H9          0      25.354  23.780  20.981  1.00  0.00     0.218 HD
ENDBRANCH  17  20
BRANCH  18  22
HETATM   22  O11         0      24.754  24.881  23.428  1.00  0.00    -0.357 OA
HETATM   23  H11         0      24.176  24.766  24.174  1.00  0.00     0.218 HD
ENDBRANCH  18  22
ENDBRANCH   4  14
BRANCH   8  24
HETATM   24  O17         0      31.588  20.826  29.745  1.00  0.00    -0.359 OA
HETATM   25  H17         0      31.598  21.399  30.503  1.00  0.00     0.218 HD
ENDBRANCH   8  24
TORSDOF 5
ENDMDL
MODEL 8
REMARK VINA RESULT:      -5.8      6.117      8.460
REMARK  5 active torsions:
REMARK  status: ('A' for Active; 'I' for Inactive)
REMARK    1  A    between atoms: C4_4  and  C5_5 
REMARK    2  A    between atoms: C8_8  and  O9_9 
REMARK    3  A    between atoms: C10_11  and  O11_12 
REMARK    4  A    between atoms: C16_18  and  O17_19 
REMARK    5  A    between atoms: C19_22  and  O20_23 
ROOT
HETATM    1  O1          0      28.112  21.852  20.737  1.00  0.00    -0.286 OA
HETATM    2  C2          0      27.966  21.038  21.689  1.00  0.00     0.201 C 
HETATM    3  C3          0      28.298  21.346  22.997  1.00  0.00     0.067 C 
HETATM    4  C4          0      28.224  20.397  24.010  1.00  0.00     0.103 C 
HETATM    5  O13         0      27.806  19.179  23.710  1.00  0.00    -0.307 OA
HETATM    6  C14         0      27.515  18.824  22.478  1.00  0.00     0.107 C 
HETATM    7  C15         0      27.468  17.492  22.093  1.00  0.00     0.049 C 
HETATM    8  C16         0      27.414  17.130  20.753  1.00  0.00     0.093 C 
HETATM    9  C18         0      26.884  18.095  19.905  1.00  0.00     0.048 C 
HETATM   10  C19         0      26.872  19.432  20.279  1.00  0.00     0.096 C 
HETATM   11  C21         0      27.369  19.801  21.499  1.00  0.00     0.084 C 
ENDROOT
BRANCH  10  12
HETATM   12  O20         0      26.758  20.412  19.298  1.00  0.00    -0.359 OA
HETATM   13  H20         0      25.894  20.597  18.951  1.00  0.00     0.218 HD
ENDBRANCH  10  12
BRANCH   4  14
HETATM   14  C5          0      29.113  20.573  25.160  1.00  0.00     0.025 C 
HETATM   15  C6          0      29.818  21.746  25.392  1.00  0.00     0.004 C 
HETATM   16  C7          0      29.945  22.171  26.711  1.00  0.00     0.026 C 
HETATM   17  C8          0      29.504  21.391  27.774  1.00  0.00     0.112 C 
HETATM   18  C10         0      29.414  20.033  27.499  1.00  0.00     0.112 C 
HETATM   19  C12         0      29.202  19.639  26.183  1.00  0.00     0.028 C 
BRANCH  17  20
HETATM   20  O9          0      29.004  21.977  28.924  1.00  0.00    -0.357 OA
HETATM   21  H9          0      29.315  21.774  29.798  1.00  0.00     0.218 HD
ENDBRANCH  17  20
BRANCH  18  22
HETATM   22  O11         0      29.163  19.189  28.572  1.00  0.00    -0.357 OA
HETATM   23  H11         0      28.685  19.558  29.306  1.00  0.00     0.218 HD
ENDBRANCH  18  22
ENDBRANCH   4  14
BRANCH   8  24
HETATM   24  O17         0      28.138  16.038  20.262  1.00  0.00    -0.359 OA
HETATM   25  H17         0      28.144  15.818  19.338  1.00  0.00     0.218 HD
ENDBRANCH   8  24
TORSDOF 5
ENDMDL
MODEL 9
REMARK VINA RESULT:      -5.8      2.585      7.194
REMARK  5 active torsions:
REMARK  status: ('A' for Active; 'I' for Inactive)
REMARK    1  A    between atoms: C4_4  and  C5_5 
REMARK    2  A    between atoms: C8_8  and  O9_9 
REMARK    3  A    between atoms: C10_11  and  O11_12 
REMARK    4  A    between atoms: C16_18  and  O17_19 
REMARK    5  A    between atoms: C19_22  and  O20_23 
ROOT
HETATM    1  O1          0      29.576  22.644  23.298  1.00  0.00    -0.286 OA
HETATM    2  C2          0      28.496  23.213  22.980  1.00  0.00     0.201 C 
HETATM    3  C3          0      28.133  24.457  23.465  1.00  0.00     0.067 C 
HETATM    4  C4          0      26.892  25.016  23.180  1.00  0.00     0.103 C 
HETATM    5  O13         0      26.055  24.344  22.410  1.00  0.00    -0.307 OA
HETATM    6  C14         0      26.335  23.143  21.954  1.00  0.00     0.107 C 
HETATM    7  C15         0      25.345  22.284  21.500  1.00  0.00     0.049 C 
HETATM    8  C16         0      25.609  20.940  21.262  1.00  0.00     0.093 C 
HETATM    9  C18         0      26.938  20.643  20.985  1.00  0.00     0.048 C 
HETATM   10  C19         0      27.951  21.505  21.383  1.00  0.00     0.096 C 
HETATM   11  C21         0      27.638  22.664  22.040  1.00  0.00     0.084 C 
ENDROOT
BRANCH  10  12
HETATM   12  O20         0      29.250  21.019  21.501  1.00  0.00    -0.359 OA
HETATM   13  H20         0      29.575  20.446  20.816  1.00  0.00     0.218 HD
ENDBRANCH  10  12
BRANCH   4  14
HETATM   14  C5          0      26.347  25.968  24.150  1.00  0.00     0.025 C 
HETATM   15  C6          0      27.000  27.141  24.500  1.00  0.00     0.004 C 
HETATM   16  C7          0      26.221  28.276  24.706  1.00  0.00     0.026 C 
HETATM   17  C8          0      24.832  28.218  24.697  1.00  0.00     0.112 C 
HETATM   18  C10         0      24.302  26.965  24.974  1.00  0.00     0.112 C 
HETATM   19  C12         0      25.069  25.844  24.678  1.00  0.00     0.028 C 
BRANCH  17  20
HETATM   20  O9          0      24.081  29.285  24.238  1.00  0.00    -0.357 OA
HETATM   21  H9          0      24.440  30.149  24.069  1.00  0.00     0.218 HD
ENDBRANCH  17  20
BRANCH  18  22
HETATM   22  O11         0      22.929  26.891  25.163  1.00  0.00    -0.357 OA
HETATM   23  H11         0      22.593  27.207  25.994  1.00  0.00     0.218 HD
ENDBRANCH  18  22
ENDBRANCH   4  14
BRANCH   8  24
HETATM   24  O17         0      24.689  19.944  21.607  1.00  0.00    -0.359 OA
HETATM   25  H17         0      24.672  19.105  21.162  1.00  0.00     0.218 HD
ENDBRANCH   8  24
TORSDOF 5
ENDMDL
