MODEL 1
REMARK VINA RESULT:      -5.2      0.000      0.000
REMARK  5 active torsions:
REMARK  status: ('A' for Active; 'I' for Inactive)
REMARK    1  A    between atoms: C4_4  and  C5_5 
REMARK    2  A    between atoms: C8_8  and  O9_9 
REMARK    3  A    between atoms: C10_11  and  O11_12 
REMARK    4  A    between atoms: C16_18  and  O17_19 
REMARK    5  A    between atoms: C19_22  and  O20_23 
ROOT
HETATM    1  O1          0      65.416  76.796 -37.165  1.00  0.00    -0.286 OA
HETATM    2  C2          0      65.086  77.753 -37.917  1.00  0.00     0.201 C 
HETATM    3  C3          0      65.931  78.813 -38.198  1.00  0.00     0.067 C 
HETATM    4  C4          0      65.507  79.905 -38.946  1.00  0.00     0.103 C 
HETATM    5  O13         0      64.271  79.912 -39.414  1.00  0.00    -0.307 OA
HETATM    6  C14         0      63.417  78.949 -39.146  1.00  0.00     0.107 C 
HETATM    7  C15         0      62.047  79.129 -39.281  1.00  0.00     0.049 C 
HETATM    8  C16         0      61.144  78.209 -38.760  1.00  0.00     0.093 C 
HETATM    9  C18         0      61.643  76.922 -38.602  1.00  0.00     0.048 C 
HETATM   10  C19         0      63.011  76.702 -38.511  1.00  0.00     0.096 C 
HETATM   11  C21         0      63.876  77.758 -38.594  1.00  0.00     0.084 C 
ENDROOT
BRANCH  10  12
HETATM   12  O20         0      63.473  75.525 -37.930  1.00  0.00    -0.359 OA
HETATM   13  H20         0      64.049  74.971 -38.443  1.00  0.00     0.218 HD
ENDBRANCH  10  12
BRANCH   4  14
HETATM   14  C5          0      66.176  81.185 -38.703  1.00  0.00     0.025 C 
HETATM   15  C6          0      65.623  82.404 -39.068  1.00  0.00     0.004 C 
HETATM   16  C7          0      65.801  83.477 -38.202  1.00  0.00     0.026 C 
HETATM   17  C8          0      66.614  83.380 -37.077  1.00  0.00     0.112 C 
HETATM   18  C10         0      67.584  82.389 -37.147  1.00  0.00     0.112 C 
HETATM   19  C12         0      67.342  81.285 -37.956  1.00  0.00     0.028 C 
BRANCH  17  20
HETATM   20  O9          0      66.315  84.083 -35.924  1.00  0.00    -0.357 OA
HETATM   21  H9          0      66.082  83.671 -35.100  1.00  0.00     0.218 HD
ENDBRANCH  17  20
BRANCH  18  22
HETATM   22  O11         0      68.538  82.372 -36.140  1.00  0.00    -0.357 OA
HETATM   23  H11         0      69.076  81.591 -36.070  1.00  0.00     0.218 HD
ENDBRANCH  18  22
ENDBRANCH   4  14
BRANCH   8  24
HETATM   24  O17         0      59.961  78.622 -38.138  1.00  0.00    -0.359 OA
HETATM   25  H17         0      59.698  79.534 -38.121  1.00  0.00     0.218 HD
ENDBRANCH   8  24
TORSDOF 5
ENDMDL
MODEL 2
REMARK VINA RESULT:      -5.2      1.824      2.440
REMARK  5 active torsions:
REMARK  status: ('A' for Active; 'I' for Inactive)
REMARK    1  A    between atoms: C4_4  and  C5_5 
REMARK    2  A    between atoms: C8_8  and  O9_9 
REMARK    3  A    between atoms: C10_11  and  O11_12 
REMARK    4  A    between atoms: C16_18  and  O17_19 
REMARK    5  A    between atoms: C19_22  and  O20_23 
ROOT
HETATM    1  O1          0      65.496  78.526 -36.766  1.00  0.00    -0.286 OA
HETATM    2  C2          0      65.547  79.455 -37.618  1.00  0.00     0.201 C 
HETATM    3  C3          0      66.496  80.462 -37.575  1.00  0.00     0.067 C 
HETATM    4  C4          0      66.467  81.530 -38.465  1.00  0.00     0.103 C 
HETATM    5  O13         0      65.518  81.564 -39.384  1.00  0.00    -0.307 OA
HETATM    6  C14         0      64.571  80.654 -39.446  1.00  0.00     0.107 C 
HETATM    7  C15         0      63.379  80.884 -40.117  1.00  0.00     0.049 C 
HETATM    8  C16         0      62.291  80.032 -39.968  1.00  0.00     0.093 C 
HETATM    9  C18         0      62.609  78.735 -39.584  1.00  0.00     0.048 C 
HETATM   10  C19         0      63.814  78.462 -38.951  1.00  0.00     0.096 C 
HETATM   11  C21         0      64.704  79.476 -38.719  1.00  0.00     0.084 C 
ENDROOT
BRANCH  10  12
HETATM   12  O20         0      63.939  77.299 -38.197  1.00  0.00    -0.359 OA
HETATM   13  H20         0      63.395  76.557 -38.431  1.00  0.00     0.218 HD
ENDBRANCH  10  12
BRANCH   4  14
HETATM   14  C5          0      67.061  82.791 -38.018  1.00  0.00     0.025 C 
HETATM   15  C6          0      66.763  83.370 -36.793  1.00  0.00     0.004 C 
HETATM   16  C7          0      67.801  83.987 -36.102  1.00  0.00     0.026 C 
HETATM   17  C8          0      69.062  84.142 -36.667  1.00  0.00     0.112 C 
HETATM   18  C10         0      69.083  84.120 -38.055  1.00  0.00     0.112 C 
HETATM   19  C12         0      68.080  83.424 -38.719  1.00  0.00     0.028 C 
BRANCH  17  20
HETATM   20  O9          0      70.201  84.104 -35.881  1.00  0.00    -0.357 OA
HETATM   21  H9          0      70.215  84.343 -34.961  1.00  0.00     0.218 HD
ENDBRANCH  17  20
BRANCH  18  22
HETATM   22  O11         0      70.279  84.457 -38.672  1.00  0.00    -0.357 OA
HETATM   23  H11         0      70.723  83.770 -39.155  1.00  0.00     0.218 HD
ENDBRANCH  18  22
ENDBRANCH   4  14
BRANCH   8  24
HETATM   24  O17         0      60.985  80.527 -39.879  1.00  0.00    -0.359 OA
HETATM   25  H17         0      60.439  80.636 -40.649  1.00  0.00     0.218 HD
ENDBRANCH   8  24
TORSDOF 5
ENDMDL
MODEL 3
REMARK VINA RESULT:      -4.9      2.098      6.755
REMARK  5 active torsions:
REMARK  status: ('A' for Active; 'I' for Inactive)
REMARK    1  A    between atoms: C4_4  and  C5_5 
REMARK    2  A    between atoms: C8_8  and  O9_9 
REMARK    3  A    between atoms: C10_11  and  O11_12 
REMARK    4  A    between atoms: C16_18  and  O17_19 
REMARK    5  A    between atoms: C19_22  and  O20_23 
ROOT
HETATM    1  O1          0      69.652  79.522 -36.924  1.00  0.00    -0.286 OA
HETATM    2  C2          0      68.604  80.221 -36.994  1.00  0.00     0.201 C 
HETATM    3  C3          0      67.366  79.687 -37.308  1.00  0.00     0.067 C 
HETATM    4  C4          0      66.247  80.495 -37.479  1.00  0.00     0.103 C 
HETATM    5  O13         0      66.375  81.800 -37.315  1.00  0.00    -0.307 OA
HETATM    6  C14         0      67.535  82.361 -37.054  1.00  0.00     0.107 C 
HETATM    7  C15         0      67.759  83.712 -37.274  1.00  0.00     0.049 C 
HETATM    8  C16         0      69.042  84.246 -37.241  1.00  0.00     0.093 C 
HETATM    9  C18         0      69.958  83.525 -36.484  1.00  0.00     0.048 C 
HETATM   10  C19         0      69.741  82.182 -36.205  1.00  0.00     0.096 C 
HETATM   11  C21         0      68.609  81.568 -36.665  1.00  0.00     0.084 C 
ENDROOT
BRANCH  10  12
HETATM   12  O20         0      70.820  81.379 -35.846  1.00  0.00    -0.359 OA
HETATM   13  H20         0      71.214  80.837 -36.519  1.00  0.00     0.218 HD
ENDBRANCH  10  12
BRANCH   4  14
HETATM   14  C5          0      65.188  79.995 -38.358  1.00  0.00     0.025 C 
HETATM   15  C6          0      64.909  78.644 -38.507  1.00  0.00     0.004 C 
HETATM   16  C7          0      63.574  78.271 -38.625  1.00  0.00     0.026 C 
HETATM   17  C8          0      62.559  79.215 -38.728  1.00  0.00     0.112 C 
HETATM   18  C10         0      62.967  80.456 -39.199  1.00  0.00     0.112 C 
HETATM   19  C12         0      64.286  80.840 -38.992  1.00  0.00     0.028 C 
BRANCH  17  20
HETATM   20  O9          0      61.306  78.970 -38.194  1.00  0.00    -0.357 OA
HETATM   21  H9          0      61.097  79.067 -37.272  1.00  0.00     0.218 HD
ENDBRANCH  17  20
BRANCH  18  22
HETATM   22  O11         0      61.970  81.373 -39.499  1.00  0.00    -0.357 OA
HETATM   23  H11         0      61.174  81.031 -39.890  1.00  0.00     0.218 HD
ENDBRANCH  18  22
ENDBRANCH   4  14
BRANCH   8  24
HETATM   24  O17         0      69.450  85.220 -38.158  1.00  0.00    -0.359 OA
HETATM   25  H17         0      69.563  85.022 -39.080  1.00  0.00     0.218 HD
ENDBRANCH   8  24
TORSDOF 5
ENDMDL
MODEL 4
REMARK VINA RESULT:      -4.8      3.238      7.516
REMARK  5 active torsions:
REMARK  status: ('A' for Active; 'I' for Inactive)
REMARK    1  A    between atoms: C4_4  and  C5_5 
REMARK    2  A    between atoms: C8_8  and  O9_9 
REMARK    3  A    between atoms: C10_11  and  O11_12 
REMARK    4  A    between atoms: C16_18  and  O17_19 
REMARK    5  A    between atoms: C19_22  and  O20_23 
ROOT
HETATM    1  O1          0      59.875  78.156 -38.395  1.00  0.00    -0.286 OA
HETATM    2  C2          0      60.873  77.397 -38.255  1.00  0.00     0.201 C 
HETATM    3  C3          0      60.766  76.091 -37.809  1.00  0.00     0.067 C 
HETATM    4  C4          0      61.890  75.309 -37.566  1.00  0.00     0.103 C 
HETATM    5  O13         0      63.084  75.828 -37.789  1.00  0.00    -0.307 OA
HETATM    6  C14         0      63.243  77.075 -38.177  1.00  0.00     0.107 C 
HETATM    7  C15         0      64.453  77.737 -38.028  1.00  0.00     0.049 C 
HETATM    8  C16         0      64.548  79.113 -38.199  1.00  0.00     0.093 C 
HETATM    9  C18         0      63.568  79.673 -39.010  1.00  0.00     0.048 C 
HETATM   10  C19         0      62.363  79.015 -39.218  1.00  0.00     0.096 C 
HETATM   11  C21         0      62.146  77.797 -38.633  1.00  0.00     0.084 C 
ENDROOT
BRANCH  10  12
HETATM   12  O20         0      61.255  79.741 -39.644  1.00  0.00    -0.359 OA
HETATM   13  H20         0      60.580  79.938 -39.006  1.00  0.00     0.218 HD
ENDBRANCH  10  12
BRANCH   4  14
HETATM   14  C5          0      61.760  74.239 -36.575  1.00  0.00     0.025 C 
HETATM   15  C6          0      62.669  73.196 -36.471  1.00  0.00     0.004 C 
HETATM   16  C7          0      62.991  72.747 -35.194  1.00  0.00     0.026 C 
HETATM   17  C8          0      62.334  73.225 -34.065  1.00  0.00     0.112 C 
HETATM   18  C10         0      61.071  73.748 -34.308  1.00  0.00     0.112 C 
HETATM   19  C12         0      60.803  74.268 -35.569  1.00  0.00     0.028 C 
BRANCH  17  20
HETATM   20  O9          0      62.997  73.348 -32.858  1.00  0.00    -0.357 OA
HETATM   21  H9          0      63.943  73.398 -32.777  1.00  0.00     0.218 HD
ENDBRANCH  17  20
BRANCH  18  22
HETATM   22  O11         0      60.298  74.064 -33.200  1.00  0.00    -0.357 OA
HETATM   23  H11         0      59.386  73.795 -33.221  1.00  0.00     0.218 HD
ENDBRANCH  18  22
ENDBRANCH   4  14
BRANCH   8  24
HETATM   24  O17         0      65.346  79.899 -37.360  1.00  0.00    -0.359 OA
HETATM   25  H17         0      65.895  80.595 -37.701  1.00  0.00     0.218 HD
ENDBRANCH   8  24
TORSDOF 5
ENDMDL
MODEL 5
REMARK VINA RESULT:      -4.8      5.251      9.745
REMARK  5 active torsions:
REMARK  status: ('A' for Active; 'I' for Inactive)
REMARK    1  A    between atoms: C4_4  and  C5_5 
REMARK    2  A    between atoms: C8_8  and  O9_9 
REMARK    3  A    between atoms: C10_11  and  O11_12 
REMARK    4  A    between atoms: C16_18  and  O17_19 
REMARK    5  A    between atoms: C19_22  and  O20_23 
ROOT
HETATM    1  O1          0      73.782  83.793 -33.772  1.00  0.00    -0.286 OA
HETATM    2  C2          0      72.582  83.427 -33.641  1.00  0.00     0.201 C 
HETATM    3  C3          0      71.777  83.097 -34.718  1.00  0.00     0.067 C 
HETATM    4  C4          0      70.430  82.796 -34.555  1.00  0.00     0.103 C 
HETATM    5  O13         0      69.919  82.808 -33.336  1.00  0.00    -0.307 OA
HETATM    6  C14         0      70.630  83.151 -32.284  1.00  0.00     0.107 C 
HETATM    7  C15         0      70.034  83.551 -31.097  1.00  0.00     0.049 C 
HETATM    8  C16         0      70.772  84.150 -30.084  1.00  0.00     0.093 C 
HETATM    9  C18         0      72.128  83.845 -30.087  1.00  0.00     0.048 C 
HETATM   10  C19         0      72.748  83.398 -31.246  1.00  0.00     0.096 C 
HETATM   11  C21         0      72.014  83.239 -32.390  1.00  0.00     0.084 C 
ENDROOT
BRANCH  10  12
HETATM   12  O20         0      74.129  83.515 -31.368  1.00  0.00    -0.359 OA
HETATM   13  H20         0      74.501  83.508 -32.241  1.00  0.00     0.218 HD
ENDBRANCH  10  12
BRANCH   4  14
HETATM   14  C5          0      69.544  83.051 -35.692  1.00  0.00     0.025 C 
HETATM   15  C6          0      69.598  82.316 -36.867  1.00  0.00     0.004 C 
HETATM   16  C7          0      68.394  82.014 -37.495  1.00  0.00     0.026 C 
HETATM   17  C8          0      67.186  82.537 -37.046  1.00  0.00     0.112 C 
HETATM   18  C10         0      67.299  83.710 -36.311  1.00  0.00     0.112 C 
HETATM   19  C12         0      68.484  83.946 -35.624  1.00  0.00     0.028 C 
BRANCH  17  20
HETATM   20  O9          0      66.014  81.811 -37.158  1.00  0.00    -0.357 OA
HETATM   21  H9          0      65.248  82.114 -37.631  1.00  0.00     0.218 HD
ENDBRANCH  17  20
BRANCH  18  22
HETATM   22  O11         0      66.121  84.374 -36.002  1.00  0.00    -0.357 OA
HETATM   23  H11         0      65.547  83.958 -35.368  1.00  0.00     0.218 HD
ENDBRANCH  18  22
ENDBRANCH   4  14
BRANCH   8  24
HETATM   24  O17         0      70.261  85.223 -29.345  1.00  0.00    -0.359 OA
HETATM   25  H17         0      70.611  85.454 -28.493  1.00  0.00     0.218 HD
ENDBRANCH   8  24
TORSDOF 5
ENDMDL
MODEL 6
REMARK VINA RESULT:      -4.7      4.800      7.718
REMARK  5 active torsions:
REMARK  status: ('A' for Active; 'I' for Inactive)
REMARK    1  A    between atoms: C4_4  and  C5_5 
REMARK    2  A    between atoms: C8_8  and  O9_9 
REMARK    3  A    between atoms: C10_11  and  O11_12 
REMARK    4  A    between atoms: C16_18  and  O17_19 
REMARK    5  A    between atoms: C19_22  and  O20_23 
ROOT
HETATM    1  O1          0      70.090  79.987 -36.091  1.00  0.00    -0.286 OA
HETATM    2  C2          0      70.307  81.182 -36.430  1.00  0.00     0.201 C 
HETATM    3  C3          0      71.569  81.752 -36.405  1.00  0.00     0.067 C 
HETATM    4  C4          0      71.766  83.100 -36.685  1.00  0.00     0.103 C 
HETATM    5  O13         0      70.719  83.842 -37.001  1.00  0.00    -0.307 OA
HETATM    6  C14         0      69.496  83.360 -37.003  1.00  0.00     0.107 C 
HETATM    7  C15         0      68.384  84.187 -36.936  1.00  0.00     0.049 C 
HETATM    8  C16         0      67.117  83.675 -36.682  1.00  0.00     0.093 C 
HETATM    9  C18         0      66.944  82.340 -37.028  1.00  0.00     0.048 C 
HETATM   10  C19         0      68.039  81.495 -37.150  1.00  0.00     0.096 C 
HETATM   11  C21         0      69.300  81.984 -36.945  1.00  0.00     0.084 C 
ENDROOT
BRANCH  10  12
HETATM   12  O20         0      67.850  80.119 -37.060  1.00  0.00    -0.359 OA
HETATM   13  H20         0      67.168  79.728 -37.593  1.00  0.00     0.218 HD
ENDBRANCH  10  12
BRANCH   4  14
HETATM   14  C5          0      72.931  83.747 -36.079  1.00  0.00     0.025 C 
HETATM   15  C6          0      74.200  83.685 -36.636  1.00  0.00     0.004 C 
HETATM   16  C7          0      74.991  84.827 -36.565  1.00  0.00     0.026 C 
HETATM   17  C8          0      74.590  85.949 -35.849  1.00  0.00     0.112 C 
HETATM   18  C10         0      73.663  85.696 -34.846  1.00  0.00     0.112 C 
HETATM   19  C12         0      72.826  84.595 -34.984  1.00  0.00     0.028 C 
BRANCH  17  20
HETATM   20  O9          0      74.942  87.220 -36.266  1.00  0.00    -0.357 OA
HETATM   21  H9          0      75.508  87.394 -37.010  1.00  0.00     0.218 HD
ENDBRANCH  17  20
BRANCH  18  22
HETATM   22  O11         0      73.371  86.741 -33.981  1.00  0.00    -0.357 OA
HETATM   23  H11         0      74.002  86.917 -33.292  1.00  0.00     0.218 HD
ENDBRANCH  18  22
ENDBRANCH   4  14
BRANCH   8  24
HETATM   24  O17         0      66.215  84.341 -35.845  1.00  0.00    -0.359 OA
HETATM   25  H17         0      65.279  84.320 -36.004  1.00  0.00     0.218 HD
ENDBRANCH   8  24
TORSDOF 5
ENDMDL
MODEL 7
REMARK VINA RESULT:      -4.5      2.603      5.135
REMARK  5 active torsions:
REMARK  status: ('A' for Active; 'I' for Inactive)
REMARK    1  A    between atoms: C4_4  and  C5_5 
REMARK    2  A    between atoms: C8_8  and  O9_9 
REMARK    3  A    between atoms: C10_11  and  O11_12 
REMARK    4  A    between atoms: C16_18  and  O17_19 
REMARK    5  A    between atoms: C19_22  and  O20_23 
ROOT
HETATM    1  O1          0      65.187  82.959 -39.451  1.00  0.00    -0.286 OA
HETATM    2  C2          0      65.943  82.522 -38.541  1.00  0.00     0.201 C 
HETATM    3  C3          0      66.773  83.343 -37.796  1.00  0.00     0.067 C 
HETATM    4  C4          0      67.672  82.824 -36.871  1.00  0.00     0.103 C 
HETATM    5  O13         0      67.712  81.515 -36.691  1.00  0.00    -0.307 OA
HETATM    6  C14         0      66.973  80.689 -37.398  1.00  0.00     0.107 C 
HETATM    7  C15         0      67.284  79.341 -37.508  1.00  0.00     0.049 C 
HETATM    8  C16         0      66.660  78.531 -38.449  1.00  0.00     0.093 C 
HETATM    9  C18         0      65.409  78.969 -38.863  1.00  0.00     0.048 C 
HETATM   10  C19         0      65.047  80.303 -38.725  1.00  0.00     0.096 C 
HETATM   11  C21         0      65.923  81.189 -38.161  1.00  0.00     0.084 C 
ENDROOT
BRANCH  10  12
HETATM   12  O20         0      64.018  80.813 -39.510  1.00  0.00    -0.359 OA
HETATM   13  H20         0      63.360  80.208 -39.831  1.00  0.00     0.218 HD
ENDBRANCH  10  12
BRANCH   4  14
HETATM   14  C5          0      68.873  83.612 -36.589  1.00  0.00     0.025 C 
HETATM   15  C6          0      69.701  83.359 -35.505  1.00  0.00     0.004 C 
HETATM   16  C7          0      71.072  83.498 -35.694  1.00  0.00     0.026 C 
HETATM   17  C8          0      71.597  84.002 -36.879  1.00  0.00     0.112 C 
HETATM   18  C10         0      70.721  84.791 -37.612  1.00  0.00     0.112 C 
HETATM   19  C12         0      69.356  84.573 -37.467  1.00  0.00     0.028 C 
BRANCH  17  20
HETATM   20  O9          0      72.816  83.558 -37.359  1.00  0.00    -0.357 OA
HETATM   21  H9          0      72.928  83.128 -38.200  1.00  0.00     0.218 HD
ENDBRANCH  17  20
BRANCH  18  22
HETATM   22  O11         0      71.248  85.470 -38.702  1.00  0.00    -0.357 OA
HETATM   23  H11         0      72.179  85.661 -38.680  1.00  0.00     0.218 HD
ENDBRANCH  18  22
ENDBRANCH   4  14
BRANCH   8  24
HETATM   24  O17         0      67.372  77.558 -39.160  1.00  0.00    -0.359 OA
HETATM   25  H17         0      66.960  76.754 -39.454  1.00  0.00     0.218 HD
ENDBRANCH   8  24
TORSDOF 5
ENDMDL
MODEL 8
REMARK VINA RESULT:      -4.5     11.738     13.443
REMARK  5 active torsions:
REMARK  status: ('A' for Active; 'I' for Inactive)
REMARK    1  A    between atoms: C4_4  and  C5_5 
REMARK    2  A    between atoms: C8_8  and  O9_9 
REMARK    3  A    between atoms: C10_11  and  O11_12 
REMARK    4  A    between atoms: C16_18  and  O17_19 
REMARK    5  A    between atoms: C19_22  and  O20_23 
ROOT
HETATM    1  O1          0      62.921  88.210 -29.617  1.00  0.00    -0.286 OA
HETATM    2  C2          0      63.794  88.119 -28.710  1.00  0.00     0.201 C 
HETATM    3  C3          0      65.134  88.386 -28.930  1.00  0.00     0.067 C 
HETATM    4  C4          0      66.090  88.180 -27.941  1.00  0.00     0.103 C 
HETATM    5  O13         0      65.696  87.737 -26.760  1.00  0.00    -0.307 OA
HETATM    6  C14         0      64.441  87.433 -26.511  1.00  0.00     0.107 C 
HETATM    7  C15         0      64.084  86.613 -25.450  1.00  0.00     0.049 C 
HETATM    8  C16         0      62.801  86.090 -25.341  1.00  0.00     0.093 C 
HETATM    9  C18         0      61.813  86.821 -25.989  1.00  0.00     0.048 C 
HETATM   10  C19         0      62.140  87.687 -27.024  1.00  0.00     0.096 C 
HETATM   11  C21         0      63.448  87.834 -27.398  1.00  0.00     0.084 C 
ENDROOT
BRANCH  10  12
HETATM   12  O20         0      61.156  88.065 -27.932  1.00  0.00    -0.359 OA
HETATM   13  H20         0      60.817  88.950 -27.878  1.00  0.00     0.218 HD
ENDBRANCH  10  12
BRANCH   4  14
HETATM   14  C5          0      67.457  87.895 -28.380  1.00  0.00     0.025 C 
HETATM   15  C6          0      68.576  88.296 -27.663  1.00  0.00     0.004 C 
HETATM   16  C7          0      69.656  87.420 -27.612  1.00  0.00     0.026 C 
HETATM   17  C8          0      69.679  86.246 -28.357  1.00  0.00     0.112 C 
HETATM   18  C10         0      68.856  86.252 -29.475  1.00  0.00     0.112 C 
HETATM   19  C12         0      67.735  87.074 -29.465  1.00  0.00     0.028 C 
BRANCH  17  20
HETATM   20  O9          0      70.314  85.114 -27.877  1.00  0.00    -0.357 OA
HETATM   21  H9          0      71.252  84.973 -27.928  1.00  0.00     0.218 HD
ENDBRANCH  17  20
BRANCH  18  22
HETATM   22  O11         0      68.981  85.186 -30.354  1.00  0.00    -0.357 OA
HETATM   23  H11         0      69.833  85.057 -30.755  1.00  0.00     0.218 HD
ENDBRANCH  18  22
ENDBRANCH   4  14
BRANCH   8  24
HETATM   24  O17         0      62.583  84.776 -24.912  1.00  0.00    -0.359 OA
HETATM   25  H17         0      61.801  84.295 -25.156  1.00  0.00     0.218 HD
ENDBRANCH   8  24
TORSDOF 5
ENDMDL
MODEL 9
REMARK VINA RESULT:      -4.3      5.149      7.149
REMARK  5 active torsions:
REMARK  status: ('A' for Active; 'I' for Inactive)
REMARK    1  A    between atoms: C4_4  and  C5_5 
REMARK    2  A    between atoms: C8_8  and  O9_9 
REMARK    3  A    between atoms: C10_11  and  O11_12 
REMARK    4  A    between atoms: C16_18  and  O17_19 
REMARK    5  A    between atoms: C19_22  and  O20_23 
ROOT
HETATM    1  O1          0      71.555  81.621 -32.356  1.00  0.00    -0.286 OA
HETATM    2  C2          0      70.991  81.237 -33.418  1.00  0.00     0.201 C 
HETATM    3  C3          0      70.777  82.076 -34.498  1.00  0.00     0.067 C 
HETATM    4  C4          0      70.063  81.656 -35.615  1.00  0.00     0.103 C 
HETATM    5  O13         0      69.600  80.419 -35.645  1.00  0.00    -0.307 OA
HETATM    6  C14         0      69.743  79.594 -34.630  1.00  0.00     0.107 C 
HETATM    7  C15         0      68.942  78.471 -34.482  1.00  0.00     0.049 C 
HETATM    8  C16         0      68.922  77.751 -33.294  1.00  0.00     0.093 C 
HETATM    9  C18         0      70.067  77.869 -32.516  1.00  0.00     0.048 C 
HETATM   10  C19         0      70.916  78.957 -32.671  1.00  0.00     0.096 C 
HETATM   11  C21         0      70.631  79.912 -33.608  1.00  0.00     0.084 C 
ENDROOT
BRANCH  10  12
HETATM   12  O20         0      71.783  79.296 -31.637  1.00  0.00    -0.359 OA
HETATM   13  H20         0      72.189  80.154 -31.659  1.00  0.00     0.218 HD
ENDBRANCH  10  12
BRANCH   4  14
HETATM   14  C5          0      69.373  82.685 -36.395  1.00  0.00     0.025 C 
HETATM   15  C6          0      69.553  82.840 -37.762  1.00  0.00     0.004 C 
HETATM   16  C7          0      68.437  83.169 -38.525  1.00  0.00     0.026 C 
HETATM   17  C8          0      67.213  83.467 -37.937  1.00  0.00     0.112 C 
HETATM   18  C10         0      67.292  83.899 -36.620  1.00  0.00     0.112 C 
HETATM   19  C12         0      68.375  83.485 -35.853  1.00  0.00     0.028 C 
BRANCH  17  20
HETATM   20  O9          0      66.025  83.144 -38.569  1.00  0.00    -0.357 OA
HETATM   21  H9          0      65.259  83.706 -38.572  1.00  0.00     0.218 HD
ENDBRANCH  17  20
BRANCH  18  22
HETATM   22  O11         0      66.126  84.388 -36.048  1.00  0.00    -0.357 OA
HETATM   23  H11         0      66.156  84.595 -35.121  1.00  0.00     0.218 HD
ENDBRANCH  18  22
ENDBRANCH   4  14
BRANCH   8  24
HETATM   24  O17         0      67.729  77.236 -32.773  1.00  0.00    -0.359 OA
HETATM   25  H17         0      67.683  76.364 -32.400  1.00  0.00     0.218 HD
ENDBRANCH   8  24
TORSDOF 5
ENDMDL
