MODEL 1
REMARK VINA RESULT:      -3.7      0.000      0.000
REMARK  5 active torsions:
REMARK  status: ('A' for Active; 'I' for Inactive)
REMARK    1  A    between atoms: C4_4  and  C5_5 
REMARK    2  A    between atoms: C8_8  and  O9_9 
REMARK    3  A    between atoms: C10_11  and  O11_12 
REMARK    4  A    between atoms: C16_18  and  O17_19 
REMARK    5  A    between atoms: C19_22  and  O20_23 
ROOT
HETATM    1  O1          0      50.216  84.974  -0.942  1.00  0.00    -0.286 OA
HETATM    2  C2          0      50.242  84.394   0.178  1.00  0.00     0.201 C 
HETATM    3  C3          0      50.138  85.075   1.379  1.00  0.00     0.067 C 
HETATM    4  C4          0      50.274  84.424   2.600  1.00  0.00     0.103 C 
HETATM    5  O13         0      50.487  83.120   2.603  1.00  0.00    -0.307 OA
HETATM    6  C14         0      50.631  82.432   1.492  1.00  0.00     0.107 C 
HETATM    7  C15         0      51.238  81.184   1.478  1.00  0.00     0.049 C 
HETATM    8  C16         0      51.616  80.579   0.286  1.00  0.00     0.093 C 
HETATM    9  C18         0      50.908  80.997  -0.835  1.00  0.00     0.048 C 
HETATM   10  C19         0      50.250  82.219  -0.838  1.00  0.00     0.096 C 
HETATM   11  C21         0      50.284  83.012   0.276  1.00  0.00     0.084 C 
ENDROOT
BRANCH  10  12
HETATM   12  O20         0      49.930  82.816  -2.054  1.00  0.00    -0.359 OA
HETATM   13  H20         0      49.080  82.627  -2.432  1.00  0.00     0.218 HD
ENDBRANCH  10  12
BRANCH   4  14
HETATM   14  C5          0      50.749  85.219   3.733  1.00  0.00     0.025 C 
HETATM   15  C6          0      49.893  85.904   4.583  1.00  0.00     0.004 C 
HETATM   16  C7          0      50.210  85.925   5.938  1.00  0.00     0.026 C 
HETATM   17  C8          0      51.406  85.401   6.415  1.00  0.00     0.112 C 
HETATM   18  C10         0      52.425  85.332   5.474  1.00  0.00     0.112 C 
HETATM   19  C12         0      52.079  85.226   4.133  1.00  0.00     0.028 C 
BRANCH  17  20
HETATM   20  O9          0      51.473  84.811   7.665  1.00  0.00    -0.357 OA
HETATM   21  H9          0      52.279  84.491   8.055  1.00  0.00     0.218 HD
ENDBRANCH  17  20
BRANCH  18  22
HETATM   22  O11         0      53.689  84.997   5.940  1.00  0.00    -0.357 OA
HETATM   23  H11         0      53.891  85.227   6.839  1.00  0.00     0.218 HD
ENDBRANCH  18  22
ENDBRANCH   4  14
BRANCH   8  24
HETATM   24  O17         0      52.820  79.875   0.175  1.00  0.00    -0.359 OA
HETATM   25  H17         0      53.587  80.259  -0.234  1.00  0.00     0.218 HD
ENDBRANCH   8  24
TORSDOF 5
ENDMDL
MODEL 2
REMARK VINA RESULT:      -3.5      1.482      1.996
REMARK  5 active torsions:
REMARK  status: ('A' for Active; 'I' for Inactive)
REMARK    1  A    between atoms: C4_4  and  C5_5 
REMARK    2  A    between atoms: C8_8  and  O9_9 
REMARK    3  A    between atoms: C10_11  and  O11_12 
REMARK    4  A    between atoms: C16_18  and  O17_19 
REMARK    5  A    between atoms: C19_22  and  O20_23 
ROOT
HETATM    1  O1          0      50.133  84.808  -0.760  1.00  0.00    -0.286 OA
HETATM    2  C2          0      50.228  84.219   0.351  1.00  0.00     0.201 C 
HETATM    3  C3          0      50.114  84.878   1.563  1.00  0.00     0.067 C 
HETATM    4  C4          0      50.326  84.224   2.771  1.00  0.00     0.103 C 
HETATM    5  O13         0      50.622  82.936   2.752  1.00  0.00    -0.307 OA
HETATM    6  C14         0      50.779  82.271   1.629  1.00  0.00     0.107 C 
HETATM    7  C15         0      51.464  81.066   1.582  1.00  0.00     0.049 C 
HETATM    8  C16         0      51.846  80.499   0.373  1.00  0.00     0.093 C 
HETATM    9  C18         0      51.082  80.882  -0.723  1.00  0.00     0.048 C 
HETATM   10  C19         0      50.347  82.060  -0.693  1.00  0.00     0.096 C 
HETATM   11  C21         0      50.361  82.841   0.430  1.00  0.00     0.084 C 
ENDROOT
BRANCH  10  12
HETATM   12  O20         0      49.956  82.648  -1.892  1.00  0.00    -0.359 OA
HETATM   13  H20         0      50.482  83.362  -2.230  1.00  0.00     0.218 HD
ENDBRANCH  10  12
BRANCH   4  14
HETATM   14  C5          0      50.780  85.035   3.902  1.00  0.00     0.025 C 
HETATM   15  C6          0      52.064  84.949   4.421  1.00  0.00     0.004 C 
HETATM   16  C7          0      52.672  86.130   4.836  1.00  0.00     0.026 C 
HETATM   17  C8          0      51.981  87.336   4.861  1.00  0.00     0.112 C 
HETATM   18  C10         0      50.600  87.213   4.941  1.00  0.00     0.112 C 
HETATM   19  C12         0      50.011  86.058   4.441  1.00  0.00     0.028 C 
BRANCH  17  20
HETATM   20  O9          0      52.632  88.531   4.608  1.00  0.00    -0.357 OA
HETATM   21  H9          0      53.562  88.597   4.424  1.00  0.00     0.218 HD
ENDBRANCH  17  20
BRANCH  18  22
HETATM   22  O11         0      49.877  88.376   5.159  1.00  0.00    -0.357 OA
HETATM   23  H11         0      50.255  89.185   4.834  1.00  0.00     0.218 HD
ENDBRANCH  18  22
ENDBRANCH   4  14
BRANCH   8  24
HETATM   24  O17         0      53.090  79.876   0.220  1.00  0.00    -0.359 OA
HETATM   25  H17         0      53.418  79.255   0.860  1.00  0.00     0.218 HD
ENDBRANCH   8  24
TORSDOF 5
ENDMDL
MODEL 3
REMARK VINA RESULT:      -3.5      2.356      2.697
REMARK  5 active torsions:
REMARK  status: ('A' for Active; 'I' for Inactive)
REMARK    1  A    between atoms: C4_4  and  C5_5 
REMARK    2  A    between atoms: C8_8  and  O9_9 
REMARK    3  A    between atoms: C10_11  and  O11_12 
REMARK    4  A    between atoms: C16_18  and  O17_19 
REMARK    5  A    between atoms: C19_22  and  O20_23 
ROOT
HETATM    1  O1          0      51.372  85.456   0.391  1.00  0.00    -0.286 OA
HETATM    2  C2          0      51.210  84.401   1.065  1.00  0.00     0.201 C 
HETATM    3  C3          0      51.611  84.286   2.385  1.00  0.00     0.067 C 
HETATM    4  C4          0      51.515  83.081   3.073  1.00  0.00     0.103 C 
HETATM    5  O13         0      51.009  82.032   2.448  1.00  0.00    -0.307 OA
HETATM    6  C14         0      50.649  82.078   1.185  1.00  0.00     0.107 C 
HETATM    7  C15         0      50.503  80.927   0.424  1.00  0.00     0.049 C 
HETATM    8  C16         0      50.375  80.987  -0.959  1.00  0.00     0.093 C 
HETATM    9  C18         0      49.876  82.187  -1.450  1.00  0.00     0.048 C 
HETATM   10  C19         0      49.963  83.349  -0.696  1.00  0.00     0.096 C 
HETATM   11  C21         0      50.529  83.309   0.549  1.00  0.00     0.084 C 
ENDROOT
BRANCH  10  12
HETATM   12  O20         0      49.875  84.582  -1.334  1.00  0.00    -0.359 OA
HETATM   13  H20         0      49.010  84.927  -1.519  1.00  0.00     0.218 HD
ENDBRANCH  10  12
BRANCH   4  14
HETATM   14  C5          0      52.456  82.861   4.172  1.00  0.00     0.025 C 
HETATM   15  C6          0      52.739  83.828   5.126  1.00  0.00     0.004 C 
HETATM   16  C7          0      52.916  83.405   6.439  1.00  0.00     0.026 C 
HETATM   17  C8          0      52.945  82.056   6.774  1.00  0.00     0.112 C 
HETATM   18  C10         0      53.288  81.207   5.730  1.00  0.00     0.112 C 
HETATM   19  C12         0      53.022  81.619   4.430  1.00  0.00     0.028 C 
BRANCH  17  20
HETATM   20  O9          0      52.459  81.617   7.993  1.00  0.00    -0.357 OA
HETATM   21  H9          0      52.688  82.014   8.826  1.00  0.00     0.218 HD
ENDBRANCH  17  20
BRANCH  18  22
HETATM   22  O11         0      53.516  79.876   6.051  1.00  0.00    -0.357 OA
HETATM   23  H11         0      52.759  79.358   6.300  1.00  0.00     0.218 HD
ENDBRANCH  18  22
ENDBRANCH   4  14
BRANCH   8  24
HETATM   24  O17         0      51.009  80.057  -1.791  1.00  0.00    -0.359 OA
HETATM   25  H17         0      51.834  80.252  -2.218  1.00  0.00     0.218 HD
ENDBRANCH   8  24
TORSDOF 5
ENDMDL
MODEL 4
REMARK VINA RESULT:      -3.5      2.077      7.036
REMARK  5 active torsions:
REMARK  status: ('A' for Active; 'I' for Inactive)
REMARK    1  A    between atoms: C4_4  and  C5_5 
REMARK    2  A    between atoms: C8_8  and  O9_9 
REMARK    3  A    between atoms: C10_11  and  O11_12 
REMARK    4  A    between atoms: C16_18  and  O17_19 
REMARK    5  A    between atoms: C19_22  and  O20_23 
ROOT
HETATM    1  O1          0      51.939  83.213   3.877  1.00  0.00    -0.286 OA
HETATM    2  C2          0      51.286  83.384   2.811  1.00  0.00     0.201 C 
HETATM    3  C3          0      51.201  82.421   1.820  1.00  0.00     0.067 C 
HETATM    4  C4          0      50.561  82.673   0.612  1.00  0.00     0.103 C 
HETATM    5  O13         0      50.006  83.857   0.422  1.00  0.00    -0.307 OA
HETATM    6  C14         0      50.089  84.819   1.315  1.00  0.00     0.107 C 
HETATM    7  C15         0      49.875  86.148   0.980  1.00  0.00     0.049 C 
HETATM    8  C16         0      50.210  87.176   1.853  1.00  0.00     0.093 C 
HETATM    9  C18         0      50.248  86.817   3.195  1.00  0.00     0.048 C 
HETATM   10  C19         0      50.414  85.490   3.566  1.00  0.00     0.096 C 
HETATM   11  C21         0      50.525  84.524   2.603  1.00  0.00     0.084 C 
ENDROOT
BRANCH  10  12
HETATM   12  O20         0      50.880  85.194   4.843  1.00  0.00    -0.359 OA
HETATM   13  H20         0      51.794  85.366   5.034  1.00  0.00     0.218 HD
ENDBRANCH  10  12
BRANCH   4  14
HETATM   14  C5          0      51.008  81.909  -0.555  1.00  0.00     0.025 C 
HETATM   15  C6          0      50.535  80.638  -0.848  1.00  0.00     0.004 C 
HETATM   16  C7          0      50.318  80.324  -2.185  1.00  0.00     0.026 C 
HETATM   17  C8          0      50.684  81.193  -3.208  1.00  0.00     0.112 C 
HETATM   18  C10         0      51.683  82.096  -2.871  1.00  0.00     0.112 C 
HETATM   19  C12         0      51.823  82.458  -1.536  1.00  0.00     0.028 C 
BRANCH  17  20
HETATM   20  O9          0      49.947  81.263  -4.376  1.00  0.00    -0.357 OA
HETATM   21  H9          0      49.015  81.449  -4.402  1.00  0.00     0.218 HD
ENDBRANCH  17  20
BRANCH  18  22
HETATM   22  O11         0      52.217  82.856  -3.902  1.00  0.00    -0.357 OA
HETATM   23  H11         0      53.050  83.283  -3.735  1.00  0.00     0.218 HD
ENDBRANCH  18  22
ENDBRANCH   4  14
BRANCH   8  24
HETATM   24  O17         0      50.787  88.365   1.392  1.00  0.00    -0.359 OA
HETATM   25  H17         0      50.441  89.215   1.637  1.00  0.00     0.218 HD
ENDBRANCH   8  24
TORSDOF 5
ENDMDL
MODEL 5
REMARK VINA RESULT:      -3.4      3.222      7.800
REMARK  5 active torsions:
REMARK  status: ('A' for Active; 'I' for Inactive)
REMARK    1  A    between atoms: C4_4  and  C5_5 
REMARK    2  A    between atoms: C8_8  and  O9_9 
REMARK    3  A    between atoms: C10_11  and  O11_12 
REMARK    4  A    between atoms: C16_18  and  O17_19 
REMARK    5  A    between atoms: C19_22  and  O20_23 
ROOT
HETATM    1  O1          0      50.398  80.389   0.110  1.00  0.00    -0.286 OA
HETATM    2  C2          0      50.297  81.514  -0.453  1.00  0.00     0.201 C 
HETATM    3  C3          0      49.879  81.661  -1.765  1.00  0.00     0.067 C 
HETATM    4  C4          0      49.875  82.901  -2.393  1.00  0.00     0.103 C 
HETATM    5  O13         0      50.262  83.962  -1.707  1.00  0.00    -0.307 OA
HETATM    6  C14         0      50.703  83.872  -0.471  1.00  0.00     0.107 C 
HETATM    7  C15         0      51.469  84.875   0.106  1.00  0.00     0.049 C 
HETATM    8  C16         0      52.141  84.669   1.305  1.00  0.00     0.093 C 
HETATM    9  C18         0      51.602  83.680   2.118  1.00  0.00     0.048 C 
HETATM   10  C19         0      50.793  82.688   1.581  1.00  0.00     0.096 C 
HETATM   11  C21         0      50.511  82.694   0.242  1.00  0.00     0.084 C 
ENDROOT
BRANCH  10  12
HETATM   12  O20         0      50.624  81.496   2.278  1.00  0.00    -0.359 OA
HETATM   13  H20         0      49.772  81.079   2.247  1.00  0.00     0.218 HD
ENDBRANCH  10  12
BRANCH   4  14
HETATM   14  C5          0      50.018  82.914  -3.851  1.00  0.00     0.025 C 
HETATM   15  C6          0      50.073  84.087  -4.590  1.00  0.00     0.004 C 
HETATM   16  C7          0      50.945  84.125  -5.674  1.00  0.00     0.026 C 
HETATM   17  C8          0      51.639  82.994  -6.092  1.00  0.00     0.112 C 
HETATM   18  C10         0      51.058  81.788  -5.722  1.00  0.00     0.112 C 
HETATM   19  C12         0      50.260  81.761  -4.585  1.00  0.00     0.028 C 
BRANCH  17  20
HETATM   20  O9          0      52.905  83.102  -6.639  1.00  0.00    -0.357 OA
HETATM   21  H9          0      53.092  83.562  -7.449  1.00  0.00     0.218 HD
ENDBRANCH  17  20
BRANCH  18  22
HETATM   22  O11         0      51.602  80.635  -6.270  1.00  0.00    -0.357 OA
HETATM   23  H11         0      52.006  80.715  -7.127  1.00  0.00     0.218 HD
ENDBRANCH  18  22
ENDBRANCH   4  14
BRANCH   8  24
HETATM   24  O17         0      53.431  85.171   1.513  1.00  0.00    -0.359 OA
HETATM   25  H17         0      54.183  84.596   1.593  1.00  0.00     0.218 HD
ENDBRANCH   8  24
TORSDOF 5
ENDMDL
MODEL 6
REMARK VINA RESULT:      -3.3      2.428      6.731
REMARK  5 active torsions:
REMARK  status: ('A' for Active; 'I' for Inactive)
REMARK    1  A    between atoms: C4_4  and  C5_5 
REMARK    2  A    between atoms: C8_8  and  O9_9 
REMARK    3  A    between atoms: C10_11  and  O11_12 
REMARK    4  A    between atoms: C16_18  and  O17_19 
REMARK    5  A    between atoms: C19_22  and  O20_23 
ROOT
HETATM    1  O1          0      50.855  85.293   3.507  1.00  0.00    -0.286 OA
HETATM    2  C2          0      50.525  85.002   2.324  1.00  0.00     0.201 C 
HETATM    3  C3          0      50.520  83.704   1.844  1.00  0.00     0.067 C 
HETATM    4  C4          0      50.252  83.422   0.509  1.00  0.00     0.103 C 
HETATM    5  O13         0      49.976  84.423  -0.308  1.00  0.00    -0.307 OA
HETATM    6  C14         0      50.003  85.677   0.088  1.00  0.00     0.107 C 
HETATM    7  C15         0      50.113  86.726  -0.813  1.00  0.00     0.049 C 
HETATM    8  C16         0      50.397  88.017  -0.386  1.00  0.00     0.093 C 
HETATM    9  C18         0      50.040  88.293   0.928  1.00  0.00     0.048 C 
HETATM   10  C19         0      49.876  87.263   1.845  1.00  0.00     0.096 C 
HETATM   11  C21         0      50.050  85.966   1.448  1.00  0.00     0.084 C 
ENDROOT
BRANCH  10  12
HETATM   12  O20         0      49.954  87.545   3.205  1.00  0.00    -0.359 OA
HETATM   13  H20         0      49.192  87.924   3.626  1.00  0.00     0.218 HD
ENDBRANCH  10  12
BRANCH   4  14
HETATM   14  C5          0      50.832  82.198  -0.047  1.00  0.00     0.025 C 
HETATM   15  C6          0      50.059  81.144  -0.513  1.00  0.00     0.004 C 
HETATM   16  C7          0      50.498  80.478  -1.653  1.00  0.00     0.026 C 
HETATM   17  C8          0      51.731  80.759  -2.233  1.00  0.00     0.112 C 
HETATM   18  C10         0      52.660  81.329  -1.372  1.00  0.00     0.112 C 
HETATM   19  C12         0      52.193  82.062  -0.288  1.00  0.00     0.028 C 
BRANCH  17  20
HETATM   20  O9          0      51.909  80.665  -3.602  1.00  0.00    -0.357 OA
HETATM   21  H9          0      51.729  79.879  -4.104  1.00  0.00     0.218 HD
ENDBRANCH  17  20
BRANCH  18  22
HETATM   22  O11         0      53.959  81.455  -1.844  1.00  0.00    -0.357 OA
HETATM   23  H11         0      54.658  81.216  -1.247  1.00  0.00     0.218 HD
ENDBRANCH  18  22
ENDBRANCH   4  14
BRANCH   8  24
HETATM   24  O17         0      51.268  88.847  -1.101  1.00  0.00    -0.359 OA
HETATM   25  H17         0      52.091  89.144  -0.731  1.00  0.00     0.218 HD
ENDBRANCH   8  24
TORSDOF 5
ENDMDL
MODEL 7
REMARK VINA RESULT:      -3.3      2.846      4.836
REMARK  5 active torsions:
REMARK  status: ('A' for Active; 'I' for Inactive)
REMARK    1  A    between atoms: C4_4  and  C5_5 
REMARK    2  A    between atoms: C8_8  and  O9_9 
REMARK    3  A    between atoms: C10_11  and  O11_12 
REMARK    4  A    between atoms: C16_18  and  O17_19 
REMARK    5  A    between atoms: C19_22  and  O20_23 
ROOT
HETATM    1  O1          0      51.496  85.553  -2.902  1.00  0.00    -0.286 OA
HETATM    2  C2          0      50.934  84.465  -2.597  1.00  0.00     0.201 C 
HETATM    3  C3          0      50.653  84.108  -1.289  1.00  0.00     0.067 C 
HETATM    4  C4          0      50.127  82.860  -0.972  1.00  0.00     0.103 C 
HETATM    5  O13         0      49.875  82.010  -1.951  1.00  0.00    -0.307 OA
HETATM    6  C14         0      50.159  82.284  -3.206  1.00  0.00     0.107 C 
HETATM    7  C15         0      50.277  81.288  -4.163  1.00  0.00     0.049 C 
HETATM    8  C16         0      50.821  81.550  -5.415  1.00  0.00     0.093 C 
HETATM    9  C18         0      50.732  82.874  -5.827  1.00  0.00     0.048 C 
HETATM   10  C19         0      50.567  83.893  -4.899  1.00  0.00     0.096 C 
HETATM   11  C21         0      50.473  83.590  -3.568  1.00  0.00     0.084 C 
ENDROOT
BRANCH  10  12
HETATM   12  O20         0      50.911  85.195  -5.249  1.00  0.00    -0.359 OA
HETATM   13  H20         0      50.921  85.852  -4.564  1.00  0.00     0.218 HD
ENDBRANCH  10  12
BRANCH   4  14
HETATM   14  C5          0      50.414  82.332   0.364  1.00  0.00     0.025 C 
HETATM   15  C6          0      50.654  80.988   0.605  1.00  0.00     0.004 C 
HETATM   16  C7          0      51.628  80.665   1.544  1.00  0.00     0.026 C 
HETATM   17  C8          0      52.249  81.642   2.316  1.00  0.00     0.112 C 
HETATM   18  C10         0      51.523  82.816   2.459  1.00  0.00     0.112 C 
HETATM   19  C12         0      50.616  83.158   1.462  1.00  0.00     0.028 C 
BRANCH  17  20
HETATM   20  O9          0      53.568  81.501   2.710  1.00  0.00    -0.357 OA
HETATM   21  H9          0      54.233  81.071   2.185  1.00  0.00     0.218 HD
ENDBRANCH  17  20
BRANCH  18  22
HETATM   22  O11         0      52.006  83.747   3.368  1.00  0.00    -0.357 OA
HETATM   23  H11         0      51.864  84.663   3.161  1.00  0.00     0.218 HD
ENDBRANCH  18  22
ENDBRANCH   4  14
BRANCH   8  24
HETATM   24  O17         0      51.678  80.640  -6.043  1.00  0.00    -0.359 OA
HETATM   25  H17         0      51.395  79.761  -6.267  1.00  0.00     0.218 HD
ENDBRANCH   8  24
TORSDOF 5
ENDMDL
MODEL 8
REMARK VINA RESULT:      -3.2      1.133      1.268
REMARK  5 active torsions:
REMARK  status: ('A' for Active; 'I' for Inactive)
REMARK    1  A    between atoms: C4_4  and  C5_5 
REMARK    2  A    between atoms: C8_8  and  O9_9 
REMARK    3  A    between atoms: C10_11  and  O11_12 
REMARK    4  A    between atoms: C16_18  and  O17_19 
REMARK    5  A    between atoms: C19_22  and  O20_23 
ROOT
HETATM    1  O1          0      50.091  84.506   0.122  1.00  0.00    -0.286 OA
HETATM    2  C2          0      50.478  83.836   1.119  1.00  0.00     0.201 C 
HETATM    3  C3          0      50.567  84.370   2.393  1.00  0.00     0.067 C 
HETATM    4  C4          0      51.093  83.641   3.453  1.00  0.00     0.103 C 
HETATM    5  O13         0      51.496  82.402   3.233  1.00  0.00    -0.307 OA
HETATM    6  C14         0      51.468  81.860   2.036  1.00  0.00     0.107 C 
HETATM    7  C15         0      52.236  80.749   1.718  1.00  0.00     0.049 C 
HETATM    8  C16         0      52.400  80.337   0.401  1.00  0.00     0.093 C 
HETATM    9  C18         0      51.385  80.726  -0.466  1.00  0.00     0.048 C 
HETATM   10  C19         0      50.568  81.804  -0.157  1.00  0.00     0.096 C 
HETATM   11  C21         0      50.752  82.481   1.018  1.00  0.00     0.084 C 
ENDROOT
BRANCH  10  12
HETATM   12  O20         0      49.875  82.447  -1.178  1.00  0.00    -0.359 OA
HETATM   13  H20         0      50.067  82.195  -2.073  1.00  0.00     0.218 HD
ENDBRANCH  10  12
BRANCH   4  14
HETATM   14  C5          0      51.703  84.397   4.549  1.00  0.00     0.025 C 
HETATM   15  C6          0      51.131  85.543   5.081  1.00  0.00     0.004 C 
HETATM   16  C7          0      51.223  85.730   6.457  1.00  0.00     0.026 C 
HETATM   17  C8          0      51.973  84.877   7.260  1.00  0.00     0.112 C 
HETATM   18  C10         0      52.978  84.188   6.594  1.00  0.00     0.112 C 
HETATM   19  C12         0      52.821  83.941   5.236  1.00  0.00     0.028 C 
BRANCH  17  20
HETATM   20  O9          0      51.585  84.604   8.560  1.00  0.00    -0.357 OA
HETATM   21  H9          0      50.706  84.752   8.890  1.00  0.00     0.218 HD
ENDBRANCH  17  20
BRANCH  18  22
HETATM   22  O11         0      53.873  83.472   7.376  1.00  0.00    -0.357 OA
HETATM   23  H11         0      53.503  82.904   8.042  1.00  0.00     0.218 HD
ENDBRANCH  18  22
ENDBRANCH   4  14
BRANCH   8  24
HETATM   24  O17         0      53.634  79.875  -0.071  1.00  0.00    -0.359 OA
HETATM   25  H17         0      53.713  79.050  -0.534  1.00  0.00     0.218 HD
ENDBRANCH   8  24
TORSDOF 5
ENDMDL
MODEL 9
REMARK VINA RESULT:      -3.1      2.074      2.613
REMARK  5 active torsions:
REMARK  status: ('A' for Active; 'I' for Inactive)
REMARK    1  A    between atoms: C4_4  and  C5_5 
REMARK    2  A    between atoms: C8_8  and  O9_9 
REMARK    3  A    between atoms: C10_11  and  O11_12 
REMARK    4  A    between atoms: C16_18  and  O17_19 
REMARK    5  A    between atoms: C19_22  and  O20_23 
ROOT
HETATM    1  O1          0      51.109  85.662  -2.787  1.00  0.00    -0.286 OA
HETATM    2  C2          0      50.687  85.216  -1.685  1.00  0.00     0.201 C 
HETATM    3  C3          0      50.708  85.960  -0.517  1.00  0.00     0.067 C 
HETATM    4  C4          0      50.332  85.410   0.704  1.00  0.00     0.103 C 
HETATM    5  O13         0      49.928  84.153   0.736  1.00  0.00    -0.307 OA
HETATM    6  C14         0      49.925  83.391  -0.336  1.00  0.00     0.107 C 
HETATM    7  C15         0      49.894  82.007  -0.250  1.00  0.00     0.049 C 
HETATM    8  C16         0      50.147  81.209  -1.359  1.00  0.00     0.093 C 
HETATM    9  C18         0      49.898  81.813  -2.586  1.00  0.00     0.048 C 
HETATM   10  C19         0      49.875  83.197  -2.699  1.00  0.00     0.096 C 
HETATM   11  C21         0      50.082  83.972  -1.590  1.00  0.00     0.084 C 
ENDROOT
BRANCH  10  12
HETATM   12  O20         0      50.063  83.781  -3.947  1.00  0.00    -0.359 OA
HETATM   13  H20         0      50.607  84.558  -3.998  1.00  0.00     0.218 HD
ENDBRANCH  10  12
BRANCH   4  14
HETATM   14  C5          0      50.924  85.992   1.910  1.00  0.00     0.025 C 
HETATM   15  C6          0      51.487  87.259   1.935  1.00  0.00     0.004 C 
HETATM   16  C7          0      51.284  88.032   3.074  1.00  0.00     0.026 C 
HETATM   17  C8          0      50.658  87.516   4.204  1.00  0.00     0.112 C 
HETATM   18  C10         0      50.713  86.134   4.316  1.00  0.00     0.112 C 
HETATM   19  C12         0      50.830  85.381   3.154  1.00  0.00     0.028 C 
BRANCH  17  20
HETATM   20  O9          0      49.875  88.323   5.011  1.00  0.00    -0.357 OA
HETATM   21  H9          0      50.097  88.547   5.907  1.00  0.00     0.218 HD
ENDBRANCH  17  20
BRANCH  18  22
HETATM   22  O11         0      50.273  85.582   5.511  1.00  0.00    -0.357 OA
HETATM   23  H11         0      50.815  85.730   6.278  1.00  0.00     0.218 HD
ENDBRANCH  18  22
ENDBRANCH   4  14
BRANCH   8  24
HETATM   24  O17         0      50.902  80.036  -1.257  1.00  0.00    -0.359 OA
HETATM   25  H17         0      51.314  79.777  -0.441  1.00  0.00     0.218 HD
ENDBRANCH   8  24
TORSDOF 5
ENDMDL
