MODEL 1
REMARK VINA RESULT:      -4.0      0.000      0.000
REMARK  5 active torsions:
REMARK  status: ('A' for Active; 'I' for Inactive)
REMARK    1  A    between atoms: C4_4  and  C5_5 
REMARK    2  A    between atoms: C8_8  and  O9_9 
REMARK    3  A    between atoms: C10_11  and  O11_12 
REMARK    4  A    between atoms: C16_18  and  O17_19 
REMARK    5  A    between atoms: C19_22  and  O20_23 
ROOT
HETATM    1  O1          0      22.966  18.699   2.279  1.00  0.00    -0.286 OA
HETATM    2  C2          0      23.232  19.202   3.405  1.00  0.00     0.201 C 
HETATM    3  C3          0      24.515  19.562   3.781  1.00  0.00     0.067 C 
HETATM    4  C4          0      24.797  20.017   5.064  1.00  0.00     0.103 C 
HETATM    5  O13         0      23.806  20.125   5.932  1.00  0.00    -0.307 OA
HETATM    6  C14         0      22.577  19.761   5.638  1.00  0.00     0.107 C 
HETATM    7  C15         0      21.639  19.492   6.624  1.00  0.00     0.049 C 
HETATM    8  C16         0      20.434  18.868   6.322  1.00  0.00     0.093 C 
HETATM    9  C18         0      20.007  19.021   5.009  1.00  0.00     0.048 C 
HETATM   10  C19         0      20.912  19.337   4.005  1.00  0.00     0.096 C 
HETATM   11  C21         0      22.233  19.516   4.313  1.00  0.00     0.084 C 
ENDROOT
BRANCH  10  12
HETATM   12  O20         0      20.582  19.063   2.681  1.00  0.00    -0.359 OA
HETATM   13  H20         0      21.290  18.890   2.072  1.00  0.00     0.218 HD
ENDBRANCH  10  12
BRANCH   4  14
HETATM   14  C5          0      26.155  19.802   5.568  1.00  0.00     0.025 C 
HETATM   15  C6          0      26.477  19.871   6.916  1.00  0.00     0.004 C 
HETATM   16  C7          0      27.406  18.957   7.404  1.00  0.00     0.026 C 
HETATM   17  C8          0      28.093  18.093   6.558  1.00  0.00     0.112 C 
HETATM   18  C10         0      28.180  18.520   5.240  1.00  0.00     0.112 C 
HETATM   19  C12         0      27.191  19.366   4.752  1.00  0.00     0.028 C 
BRANCH  17  20
HETATM   20  O9          0      28.456  16.827   6.981  1.00  0.00    -0.357 OA
HETATM   21  H9          0      27.851  16.097   7.044  1.00  0.00     0.218 HD
ENDBRANCH  17  20
BRANCH  18  22
HETATM   22  O11         0      29.012  17.795   4.398  1.00  0.00    -0.357 OA
HETATM   23  H11         0      29.600  18.292   3.842  1.00  0.00     0.218 HD
ENDBRANCH  18  22
ENDBRANCH   4  14
BRANCH   8  24
HETATM   24  O17         0      19.884  17.898   7.167  1.00  0.00    -0.359 OA
HETATM   25  H17         0      19.585  18.111   8.043  1.00  0.00     0.218 HD
ENDBRANCH   8  24
TORSDOF 5
ENDMDL
MODEL 2
REMARK VINA RESULT:      -3.9      1.401      1.863
REMARK  5 active torsions:
REMARK  status: ('A' for Active; 'I' for Inactive)
REMARK    1  A    between atoms: C4_4  and  C5_5 
REMARK    2  A    between atoms: C8_8  and  O9_9 
REMARK    3  A    between atoms: C10_11  and  O11_12 
REMARK    4  A    between atoms: C16_18  and  O17_19 
REMARK    5  A    between atoms: C19_22  and  O20_23 
ROOT
HETATM    1  O1          0      21.897  17.828   2.605  1.00  0.00    -0.286 OA
HETATM    2  C2          0      22.395  18.415   3.605  1.00  0.00     0.201 C 
HETATM    3  C3          0      23.717  18.260   3.985  1.00  0.00     0.067 C 
HETATM    4  C4          0      24.213  18.836   5.149  1.00  0.00     0.103 C 
HETATM    5  O13         0      23.399  19.565   5.893  1.00  0.00    -0.307 OA
HETATM    6  C14         0      22.126  19.713   5.597  1.00  0.00     0.107 C 
HETATM    7  C15         0      21.198  20.119   6.546  1.00  0.00     0.049 C 
HETATM    8  C16         0      19.833  20.029   6.304  1.00  0.00     0.093 C 
HETATM    9  C18         0      19.473  20.037   4.961  1.00  0.00     0.048 C 
HETATM   10  C19         0      20.391  19.682   3.983  1.00  0.00     0.096 C 
HETATM   11  C21         0      21.665  19.336   4.340  1.00  0.00     0.084 C 
ENDROOT
BRANCH  10  12
HETATM   12  O20         0      19.930  19.274   2.734  1.00  0.00    -0.359 OA
HETATM   13  H20         0      19.010  19.058   2.648  1.00  0.00     0.218 HD
ENDBRANCH  10  12
BRANCH   4  14
HETATM   14  C5          0      25.354  18.179   5.788  1.00  0.00     0.025 C 
HETATM   15  C6          0      26.063  17.150   5.186  1.00  0.00     0.004 C 
HETATM   16  C7          0      27.443  17.127   5.366  1.00  0.00     0.026 C 
HETATM   17  C8          0      28.081  18.016   6.224  1.00  0.00     0.112 C 
HETATM   18  C10         0      27.270  18.545   7.219  1.00  0.00     0.112 C 
HETATM   19  C12         0      25.904  18.635   6.979  1.00  0.00     0.028 C 
BRANCH  17  20
HETATM   20  O9          0      29.358  18.474   5.949  1.00  0.00    -0.357 OA
HETATM   21  H9          0      30.150  18.012   6.200  1.00  0.00     0.218 HD
ENDBRANCH  17  20
BRANCH  18  22
HETATM   22  O11         0      27.896  19.286   8.211  1.00  0.00    -0.357 OA
HETATM   23  H11         0      27.392  19.463   8.998  1.00  0.00     0.218 HD
ENDBRANCH  18  22
ENDBRANCH   4  14
BRANCH   8  24
HETATM   24  O17         0      18.940  19.624   7.302  1.00  0.00    -0.359 OA
HETATM   25  H17         0      19.181  19.634   8.221  1.00  0.00     0.218 HD
ENDBRANCH   8  24
TORSDOF 5
ENDMDL
MODEL 3
REMARK VINA RESULT:      -3.8      1.541      6.821
REMARK  5 active torsions:
REMARK  status: ('A' for Active; 'I' for Inactive)
REMARK    1  A    between atoms: C4_4  and  C5_5 
REMARK    2  A    between atoms: C8_8  and  O9_9 
REMARK    3  A    between atoms: C10_11  and  O11_12 
REMARK    4  A    between atoms: C16_18  and  O17_19 
REMARK    5  A    between atoms: C19_22  and  O20_23 
ROOT
HETATM    1  O1          0      26.216  16.793   7.122  1.00  0.00    -0.286 OA
HETATM    2  C2          0      26.003  17.870   6.500  1.00  0.00     0.201 C 
HETATM    3  C3          0      24.753  18.459   6.425  1.00  0.00     0.067 C 
HETATM    4  C4          0      24.525  19.590   5.649  1.00  0.00     0.103 C 
HETATM    5  O13         0      25.539  20.120   4.987  1.00  0.00    -0.307 OA
HETATM    6  C14         0      26.737  19.579   4.995  1.00  0.00     0.107 C 
HETATM    7  C15         0      27.678  19.875   4.019  1.00  0.00     0.049 C 
HETATM    8  C16         0      28.838  19.120   3.882  1.00  0.00     0.093 C 
HETATM    9  C18         0      29.246  18.457   5.033  1.00  0.00     0.048 C 
HETATM   10  C19         0      28.340  18.186   6.050  1.00  0.00     0.096 C 
HETATM   11  C21         0      27.039  18.591   5.925  1.00  0.00     0.084 C 
ENDROOT
BRANCH  10  12
HETATM   12  O20         0      28.625  17.176   6.963  1.00  0.00    -0.359 OA
HETATM   13  H20         0      29.051  16.391   6.640  1.00  0.00     0.218 HD
ENDBRANCH  10  12
BRANCH   4  14
HETATM   14  C5          0      23.168  19.789   5.138  1.00  0.00     0.025 C 
HETATM   15  C6          0      22.812  19.518   3.825  1.00  0.00     0.004 C 
HETATM   16  C7          0      21.559  18.957   3.599  1.00  0.00     0.026 C 
HETATM   17  C8          0      20.637  18.794   4.628  1.00  0.00     0.112 C 
HETATM   18  C10         0      20.822  19.642   5.712  1.00  0.00     0.112 C 
HETATM   19  C12         0      22.102  20.121   5.965  1.00  0.00     0.028 C 
BRANCH  17  20
HETATM   20  O9          0      19.758  17.726   4.629  1.00  0.00    -0.357 OA
HETATM   21  H9          0      18.858  17.783   4.931  1.00  0.00     0.218 HD
ENDBRANCH  17  20
BRANCH  18  22
HETATM   22  O11         0      19.826  19.654   6.678  1.00  0.00    -0.357 OA
HETATM   23  H11         0      19.728  18.869   7.204  1.00  0.00     0.218 HD
ENDBRANCH  18  22
ENDBRANCH   4  14
BRANCH   8  24
HETATM   24  O17         0      29.347  18.788   2.622  1.00  0.00    -0.359 OA
HETATM   25  H17         0      29.184  17.941   2.225  1.00  0.00     0.218 HD
ENDBRANCH   8  24
TORSDOF 5
ENDMDL
MODEL 4
REMARK VINA RESULT:      -3.5      2.057      6.618
REMARK  5 active torsions:
REMARK  status: ('A' for Active; 'I' for Inactive)
REMARK    1  A    between atoms: C4_4  and  C5_5 
REMARK    2  A    between atoms: C8_8  and  O9_9 
REMARK    3  A    between atoms: C10_11  and  O11_12 
REMARK    4  A    between atoms: C16_18  and  O17_19 
REMARK    5  A    between atoms: C19_22  and  O20_23 
ROOT
HETATM    1  O1          0      27.628  15.626   6.374  1.00  0.00    -0.286 OA
HETATM    2  C2          0      26.898  16.652   6.466  1.00  0.00     0.201 C 
HETATM    3  C3          0      25.675  16.647   7.115  1.00  0.00     0.067 C 
HETATM    4  C4          0      24.845  17.762   7.112  1.00  0.00     0.103 C 
HETATM    5  O13         0      25.251  18.855   6.490  1.00  0.00    -0.307 OA
HETATM    6  C14         0      26.386  18.901   5.827  1.00  0.00     0.107 C 
HETATM    7  C15         0      26.631  19.868   4.863  1.00  0.00     0.049 C 
HETATM    8  C16         0      27.711  19.764   3.994  1.00  0.00     0.093 C 
HETATM    9  C18         0      28.770  18.997   4.464  1.00  0.00     0.048 C 
HETATM   10  C19         0      28.569  18.052   5.461  1.00  0.00     0.096 C 
HETATM   11  C21         0      27.322  17.886   5.998  1.00  0.00     0.084 C 
ENDROOT
BRANCH  10  12
HETATM   12  O20         0      29.488  17.018   5.613  1.00  0.00    -0.359 OA
HETATM   13  H20         0      29.741  16.530   4.839  1.00  0.00     0.218 HD
ENDBRANCH  10  12
BRANCH   4  14
HETATM   14  C5          0      23.407  17.527   7.257  1.00  0.00     0.025 C 
HETATM   15  C6          0      22.769  17.506   8.489  1.00  0.00     0.004 C 
HETATM   16  C7          0      21.500  18.070   8.567  1.00  0.00     0.026 C 
HETATM   17  C8          0      20.830  18.519   7.434  1.00  0.00     0.112 C 
HETATM   18  C10         0      21.248  17.938   6.245  1.00  0.00     0.112 C 
HETATM   19  C12         0      22.550  17.458   6.166  1.00  0.00     0.028 C 
BRANCH  17  20
HETATM   20  O9          0      19.978  19.607   7.499  1.00  0.00    -0.357 OA
HETATM   21  H9          0      19.788  20.083   8.300  1.00  0.00     0.218 HD
ENDBRANCH  17  20
BRANCH  18  22
HETATM   22  O11         0      20.491  18.207   5.113  1.00  0.00    -0.357 OA
HETATM   23  H11         0      19.639  17.790   5.057  1.00  0.00     0.218 HD
ENDBRANCH  18  22
ENDBRANCH   4  14
BRANCH   8  24
HETATM   24  O17         0      27.596  20.112   2.644  1.00  0.00    -0.359 OA
HETATM   25  H17         0      27.382  20.997   2.373  1.00  0.00     0.218 HD
ENDBRANCH   8  24
TORSDOF 5
ENDMDL
MODEL 5
REMARK VINA RESULT:      -3.4      2.060      2.908
REMARK  5 active torsions:
REMARK  status: ('A' for Active; 'I' for Inactive)
REMARK    1  A    between atoms: C4_4  and  C5_5 
REMARK    2  A    between atoms: C8_8  and  O9_9 
REMARK    3  A    between atoms: C10_11  and  O11_12 
REMARK    4  A    between atoms: C16_18  and  O17_19 
REMARK    5  A    between atoms: C19_22  and  O20_23 
ROOT
HETATM    1  O1          0      24.281  17.251   0.701  1.00  0.00    -0.286 OA
HETATM    2  C2          0      24.001  17.838   1.782  1.00  0.00     0.201 C 
HETATM    3  C3          0      24.899  17.950   2.830  1.00  0.00     0.067 C 
HETATM    4  C4          0      24.531  18.511   4.048  1.00  0.00     0.103 C 
HETATM    5  O13         0      23.298  18.964   4.191  1.00  0.00    -0.307 OA
HETATM    6  C14         0      22.396  18.849   3.242  1.00  0.00     0.107 C 
HETATM    7  C15         0      21.038  18.945   3.508  1.00  0.00     0.049 C 
HETATM    8  C16         0      20.089  18.573   2.563  1.00  0.00     0.093 C 
HETATM    9  C18         0      20.522  18.626   1.244  1.00  0.00     0.048 C 
HETATM   10  C19         0      21.877  18.580   0.944  1.00  0.00     0.096 C 
HETATM   11  C21         0      22.794  18.498   1.956  1.00  0.00     0.084 C 
ENDROOT
BRANCH  10  12
HETATM   12  O20         0      22.278  18.198  -0.332  1.00  0.00    -0.359 OA
HETATM   13  H20         0      22.015  18.744  -1.064  1.00  0.00     0.218 HD
ENDBRANCH  10  12
BRANCH   4  14
HETATM   14  C5          0      25.263  18.070   5.237  1.00  0.00     0.025 C 
HETATM   15  C6          0      26.001  16.896   5.273  1.00  0.00     0.004 C 
HETATM   16  C7          0      27.204  16.913   5.972  1.00  0.00     0.026 C 
HETATM   17  C8          0      27.597  18.016   6.722  1.00  0.00     0.112 C 
HETATM   18  C10         0      26.556  18.838   7.132  1.00  0.00     0.112 C 
HETATM   19  C12         0      25.396  18.866   6.367  1.00  0.00     0.028 C 
BRANCH  17  20
HETATM   20  O9          0      28.934  18.349   6.847  1.00  0.00    -0.357 OA
HETATM   21  H9          0      29.647  17.748   6.666  1.00  0.00     0.218 HD
ENDBRANCH  17  20
BRANCH  18  22
HETATM   22  O11         0      26.867  19.843   8.037  1.00  0.00    -0.357 OA
HETATM   23  H11         0      26.592  20.724   7.813  1.00  0.00     0.218 HD
ENDBRANCH  18  22
ENDBRANCH   4  14
BRANCH   8  24
HETATM   24  O17         0      18.926  17.886   2.929  1.00  0.00    -0.359 OA
HETATM   25  H17         0      18.929  17.231   3.617  1.00  0.00     0.218 HD
ENDBRANCH   8  24
TORSDOF 5
ENDMDL
MODEL 6
REMARK VINA RESULT:      -3.2      2.352      3.402
REMARK  5 active torsions:
REMARK  status: ('A' for Active; 'I' for Inactive)
REMARK    1  A    between atoms: C4_4  and  C5_5 
REMARK    2  A    between atoms: C8_8  and  O9_9 
REMARK    3  A    between atoms: C10_11  and  O11_12 
REMARK    4  A    between atoms: C16_18  and  O17_19 
REMARK    5  A    between atoms: C19_22  and  O20_23 
ROOT
HETATM    1  O1          0      21.218  14.658   5.900  1.00  0.00    -0.286 OA
HETATM    2  C2          0      21.398  15.903   5.800  1.00  0.00     0.201 C 
HETATM    3  C3          0      22.567  16.455   5.305  1.00  0.00     0.067 C 
HETATM    4  C4          0      22.780  17.829   5.302  1.00  0.00     0.103 C 
HETATM    5  O13         0      21.828  18.620   5.766  1.00  0.00    -0.307 OA
HETATM    6  C14         0      20.715  18.146   6.282  1.00  0.00     0.107 C 
HETATM    7  C15         0      19.912  18.911   7.115  1.00  0.00     0.049 C 
HETATM    8  C16         0      18.885  18.336   7.855  1.00  0.00     0.093 C 
HETATM    9  C18         0      18.382  17.149   7.336  1.00  0.00     0.048 C 
HETATM   10  C19         0      19.141  16.382   6.463  1.00  0.00     0.096 C 
HETATM   11  C21         0      20.389  16.807   6.096  1.00  0.00     0.084 C 
ENDROOT
BRANCH  10  12
HETATM   12  O20         0      18.836  15.035   6.300  1.00  0.00    -0.359 OA
HETATM   13  H20         0      19.555  14.414   6.286  1.00  0.00     0.218 HD
ENDBRANCH  10  12
BRANCH   4  14
HETATM   14  C5          0      24.168  18.292   5.352  1.00  0.00     0.025 C 
HETATM   15  C6          0      24.524  19.621   5.171  1.00  0.00     0.004 C 
HETATM   16  C7          0      25.555  20.125   5.958  1.00  0.00     0.026 C 
HETATM   17  C8          0      26.298  19.304   6.800  1.00  0.00     0.112 C 
HETATM   18  C10         0      26.300  17.961   6.447  1.00  0.00     0.112 C 
HETATM   19  C12         0      25.215  17.464   5.734  1.00  0.00     0.028 C 
BRANCH  17  20
HETATM   20  O9          0      26.800  19.785   7.996  1.00  0.00    -0.357 OA
HETATM   21  H9          0      26.375  19.656   8.837  1.00  0.00     0.218 HD
ENDBRANCH  17  20
BRANCH  18  22
HETATM   22  O11         0      27.172  17.132   7.137  1.00  0.00    -0.357 OA
HETATM   23  H11         0      27.902  16.771   6.646  1.00  0.00     0.218 HD
ENDBRANCH  18  22
ENDBRANCH   4  14
BRANCH   8  24
HETATM   24  O17         0      18.624  18.734   9.171  1.00  0.00    -0.359 OA
HETATM   25  H17         0      18.863  18.191   9.913  1.00  0.00     0.218 HD
ENDBRANCH   8  24
TORSDOF 5
ENDMDL
MODEL 7
REMARK VINA RESULT:      -3.2      2.455      6.783
REMARK  5 active torsions:
REMARK  status: ('A' for Active; 'I' for Inactive)
REMARK    1  A    between atoms: C4_4  and  C5_5 
REMARK    2  A    between atoms: C8_8  and  O9_9 
REMARK    3  A    between atoms: C10_11  and  O11_12 
REMARK    4  A    between atoms: C16_18  and  O17_19 
REMARK    5  A    between atoms: C19_22  and  O20_23 
ROOT
HETATM    1  O1          0      24.270  14.470   5.831  1.00  0.00    -0.286 OA
HETATM    2  C2          0      24.440  15.623   6.314  1.00  0.00     0.201 C 
HETATM    3  C3          0      23.414  16.546   6.431  1.00  0.00     0.067 C 
HETATM    4  C4          0      23.649  17.844   6.871  1.00  0.00     0.103 C 
HETATM    5  O13         0      24.881  18.189   7.202  1.00  0.00    -0.307 OA
HETATM    6  C14         0      25.897  17.363   7.073  1.00  0.00     0.107 C 
HETATM    7  C15         0      27.207  17.817   7.029  1.00  0.00     0.049 C 
HETATM    8  C16         0      28.248  16.982   6.642  1.00  0.00     0.093 C 
HETATM    9  C18         0      28.010  15.625   6.825  1.00  0.00     0.048 C 
HETATM   10  C19         0      26.712  15.142   6.921  1.00  0.00     0.096 C 
HETATM   11  C21         0      25.658  16.011   6.851  1.00  0.00     0.084 C 
ENDROOT
BRANCH  10  12
HETATM   12  O20         0      26.466  13.796   6.667  1.00  0.00    -0.359 OA
HETATM   13  H20         0      26.902  13.153   7.214  1.00  0.00     0.218 HD
ENDBRANCH  10  12
BRANCH   4  14
HETATM   14  C5          0      22.725  18.884   6.414  1.00  0.00     0.025 C 
HETATM   15  C6          0      23.039  19.776   5.400  1.00  0.00     0.004 C 
HETATM   16  C7          0      22.026  20.125   4.512  1.00  0.00     0.026 C 
HETATM   17  C8          0      20.714  19.707   4.702  1.00  0.00     0.112 C 
HETATM   18  C10         0      20.392  19.385   6.014  1.00  0.00     0.112 C 
HETATM   19  C12         0      21.411  18.958   6.857  1.00  0.00     0.028 C 
BRANCH  17  20
HETATM   20  O9          0      19.890  19.443   3.622  1.00  0.00    -0.357 OA
HETATM   21  H9          0      19.059  19.879   3.473  1.00  0.00     0.218 HD
ENDBRANCH  17  20
BRANCH  18  22
HETATM   22  O11         0      19.054  19.145   6.292  1.00  0.00    -0.357 OA
HETATM   23  H11         0      18.680  18.343   5.947  1.00  0.00     0.218 HD
ENDBRANCH  18  22
ENDBRANCH   4  14
BRANCH   8  24
HETATM   24  O17         0      29.289  17.443   5.829  1.00  0.00    -0.359 OA
HETATM   25  H17         0      29.564  16.969   5.053  1.00  0.00     0.218 HD
ENDBRANCH   8  24
TORSDOF 5
ENDMDL
MODEL 8
REMARK VINA RESULT:      -2.9      3.273      6.652
REMARK  5 active torsions:
REMARK  status: ('A' for Active; 'I' for Inactive)
REMARK    1  A    between atoms: C4_4  and  C5_5 
REMARK    2  A    between atoms: C8_8  and  O9_9 
REMARK    3  A    between atoms: C10_11  and  O11_12 
REMARK    4  A    between atoms: C16_18  and  O17_19 
REMARK    5  A    between atoms: C19_22  and  O20_23 
ROOT
HETATM    1  O1          0      24.355  13.558   5.537  1.00  0.00    -0.286 OA
HETATM    2  C2          0      24.851  14.607   6.031  1.00  0.00     0.201 C 
HETATM    3  C3          0      24.201  15.830   6.004  1.00  0.00     0.067 C 
HETATM    4  C4          0      24.813  16.990   6.463  1.00  0.00     0.103 C 
HETATM    5  O13         0      26.037  16.911   6.955  1.00  0.00    -0.307 OA
HETATM    6  C14         0      26.713  15.782   6.970  1.00  0.00     0.107 C 
HETATM    7  C15         0      28.094  15.759   7.100  1.00  0.00     0.049 C 
HETATM    8  C16         0      28.821  14.599   6.861  1.00  0.00     0.093 C 
HETATM    9  C18         0      28.109  13.416   7.019  1.00  0.00     0.048 C 
HETATM   10  C19         0      26.723  13.412   6.942  1.00  0.00     0.096 C 
HETATM   11  C21         0      26.051  14.584   6.725  1.00  0.00     0.084 C 
ENDROOT
BRANCH  10  12
HETATM   12  O20         0      26.061  12.220   6.665  1.00  0.00    -0.359 OA
HETATM   13  H20         0      25.882  12.010   5.756  1.00  0.00     0.218 HD
ENDBRANCH  10  12
BRANCH   4  14
HETATM   14  C5          0      24.369  18.258   5.880  1.00  0.00     0.025 C 
HETATM   15  C6          0      25.205  19.356   5.743  1.00  0.00     0.004 C 
HETATM   16  C7          0      25.076  20.125   4.590  1.00  0.00     0.026 C 
HETATM   17  C8          0      24.061  19.892   3.669  1.00  0.00     0.112 C 
HETATM   18  C10         0      22.950  19.237   4.183  1.00  0.00     0.112 C 
HETATM   19  C12         0      23.124  18.407   5.284  1.00  0.00     0.028 C 
BRANCH  17  20
HETATM   20  O9          0      24.265  20.115   2.318  1.00  0.00    -0.357 OA
HETATM   21  H9          0      23.564  20.153   1.678  1.00  0.00     0.218 HD
ENDBRANCH  17  20
BRANCH  18  22
HETATM   22  O11         0      21.837  19.147   3.359  1.00  0.00    -0.357 OA
HETATM   23  H11         0      21.995  18.979   2.438  1.00  0.00     0.218 HD
ENDBRANCH  18  22
ENDBRANCH   4  14
BRANCH   8  24
HETATM   24  O17         0      30.051  14.634   6.194  1.00  0.00    -0.359 OA
HETATM   25  H17         0      30.146  14.311   5.306  1.00  0.00     0.218 HD
ENDBRANCH   8  24
TORSDOF 5
ENDMDL
MODEL 9
REMARK VINA RESULT:      -2.7      3.936      5.079
REMARK  5 active torsions:
REMARK  status: ('A' for Active; 'I' for Inactive)
REMARK    1  A    between atoms: C4_4  and  C5_5 
REMARK    2  A    between atoms: C8_8  and  O9_9 
REMARK    3  A    between atoms: C10_11  and  O11_12 
REMARK    4  A    between atoms: C16_18  and  O17_19 
REMARK    5  A    between atoms: C19_22  and  O20_23 
ROOT
HETATM    1  O1          0      26.703  17.937   5.096  1.00  0.00    -0.286 OA
HETATM    2  C2          0      25.695  17.858   5.850  1.00  0.00     0.201 C 
HETATM    3  C3          0      25.627  16.984   6.922  1.00  0.00     0.067 C 
HETATM    4  C4          0      24.466  16.843   7.674  1.00  0.00     0.103 C 
HETATM    5  O13         0      23.414  17.580   7.363  1.00  0.00    -0.307 OA
HETATM    6  C14         0      23.414  18.397   6.333  1.00  0.00     0.107 C 
HETATM    7  C15         0      22.234  18.857   5.765  1.00  0.00     0.049 C 
HETATM    8  C16         0      22.229  19.506   4.536  1.00  0.00     0.093 C 
HETATM    9  C18         0      23.427  20.120   4.192  1.00  0.00     0.048 C 
HETATM   10  C19         0      24.620  19.716   4.776  1.00  0.00     0.096 C 
HETATM   11  C21         0      24.615  18.716   5.709  1.00  0.00     0.084 C 
ENDROOT
BRANCH  10  12
HETATM   12  O20         0      25.822  20.007   4.137  1.00  0.00    -0.359 OA
HETATM   13  H20         0      26.584  20.174   4.678  1.00  0.00     0.218 HD
ENDBRANCH  10  12
BRANCH   4  14
HETATM   14  C5          0      24.253  15.558   8.342  1.00  0.00     0.025 C 
HETATM   15  C6          0      23.040  15.198   8.912  1.00  0.00     0.004 C 
HETATM   16  C7          0      22.636  13.873   8.784  1.00  0.00     0.026 C 
HETATM   17  C8          0      23.467  12.907   8.228  1.00  0.00     0.112 C 
HETATM   18  C10         0      24.822  13.207   8.283  1.00  0.00     0.112 C 
HETATM   19  C12         0      25.201  14.543   8.324  1.00  0.00     0.028 C 
BRANCH  17  20
HETATM   20  O9          0      22.943  11.853   7.500  1.00  0.00    -0.357 OA
HETATM   21  H9          0      22.107  11.444   7.693  1.00  0.00     0.218 HD
ENDBRANCH  17  20
BRANCH  18  22
HETATM   22  O11         0      25.704  12.200   7.917  1.00  0.00    -0.357 OA
HETATM   23  H11         0      25.340  11.462   7.440  1.00  0.00     0.218 HD
ENDBRANCH  18  22
ENDBRANCH   4  14
BRANCH   8  24
HETATM   24  O17         0      21.226  19.268   3.590  1.00  0.00    -0.359 OA
HETATM   25  H17         0      21.391  19.344   2.658  1.00  0.00     0.218 HD
ENDBRANCH   8  24
TORSDOF 5
ENDMDL
