MODEL 1
REMARK VINA RESULT:      -2.7      0.000      0.000
REMARK  5 active torsions:
REMARK  status: ('A' for Active; 'I' for Inactive)
REMARK    1  A    between atoms: C4_4  and  C5_5 
REMARK    2  A    between atoms: C8_8  and  O9_9 
REMARK    3  A    between atoms: C10_11  and  O11_12 
REMARK    4  A    between atoms: C16_18  and  O17_19 
REMARK    5  A    between atoms: C19_22  and  O20_23 
ROOT
HETATM    1  O1          0      32.937  39.388 -21.289  1.00  0.00    -0.286 OA
HETATM    2  C2          0      33.725  38.629 -21.916  1.00  0.00     0.201 C 
HETATM    3  C3          0      34.917  38.175 -21.377  1.00  0.00     0.067 C 
HETATM    4  C4          0      35.816  37.424 -22.126  1.00  0.00     0.103 C 
HETATM    5  O13         0      35.507  37.125 -23.375  1.00  0.00    -0.307 OA
HETATM    6  C14         0      34.407  37.562 -23.947  1.00  0.00     0.107 C 
HETATM    7  C15         0      34.266  37.600 -25.327  1.00  0.00     0.049 C 
HETATM    8  C16         0      33.220  38.291 -25.926  1.00  0.00     0.093 C 
HETATM    9  C18         0      32.094  38.460 -25.129  1.00  0.00     0.048 C 
HETATM   10  C19         0      32.191  38.382 -23.746  1.00  0.00     0.096 C 
HETATM   11  C21         0      33.402  38.120 -23.164  1.00  0.00     0.084 C 
ENDROOT
BRANCH  10  12
HETATM   12  O20         0      31.203  38.967 -22.961  1.00  0.00    -0.359 OA
HETATM   13  H20         0      30.671  39.651 -23.350  1.00  0.00     0.218 HD
ENDBRANCH  10  12
BRANCH   4  14
HETATM   14  C5          0      37.228  37.497 -21.747  1.00  0.00     0.025 C 
HETATM   15  C6          0      38.220  36.778 -22.398  1.00  0.00     0.004 C 
HETATM   16  C7          0      39.446  37.404 -22.595  1.00  0.00     0.026 C 
HETATM   17  C8          0      39.725  38.651 -22.047  1.00  0.00     0.112 C 
HETATM   18  C10         0      38.959  38.980 -20.936  1.00  0.00     0.112 C 
HETATM   19  C12         0      37.701  38.404 -20.808  1.00  0.00     0.028 C 
BRANCH  17  20
HETATM   20  O9          0      40.549  39.547 -22.705  1.00  0.00    -0.357 OA
HETATM   21  H9          0      41.217  40.066 -22.272  1.00  0.00     0.218 HD
ENDBRANCH  17  20
BRANCH  18  22
HETATM   22  O11         0      39.323  40.123 -20.239  1.00  0.00    -0.357 OA
HETATM   23  H11         0      38.930  40.248 -19.382  1.00  0.00     0.218 HD
ENDBRANCH  18  22
ENDBRANCH   4  14
BRANCH   8  24
HETATM   24  O17         0      33.414  39.039 -27.093  1.00  0.00    -0.359 OA
HETATM   25  H17         0      33.781  38.652 -27.879  1.00  0.00     0.218 HD
ENDBRANCH   8  24
TORSDOF 5
ENDMDL
MODEL 2
REMARK VINA RESULT:      -2.4      1.714      6.632
REMARK  5 active torsions:
REMARK  status: ('A' for Active; 'I' for Inactive)
REMARK    1  A    between atoms: C4_4  and  C5_5 
REMARK    2  A    between atoms: C8_8  and  O9_9 
REMARK    3  A    between atoms: C10_11  and  O11_12 
REMARK    4  A    between atoms: C16_18  and  O17_19 
REMARK    5  A    between atoms: C19_22  and  O20_23 
ROOT
HETATM    1  O1          0      38.225  38.300 -26.237  1.00  0.00    -0.286 OA
HETATM    2  C2          0      37.578  37.906 -25.228  1.00  0.00     0.201 C 
HETATM    3  C3          0      36.255  37.503 -25.296  1.00  0.00     0.067 C 
HETATM    4  C4          0      35.535  37.171 -24.154  1.00  0.00     0.103 C 
HETATM    5  O13         0      36.143  37.225 -22.982  1.00  0.00    -0.307 OA
HETATM    6  C14         0      37.386  37.636 -22.858  1.00  0.00     0.107 C 
HETATM    7  C15         0      37.893  38.073 -21.643  1.00  0.00     0.049 C 
HETATM    8  C16         0      39.110  38.740 -21.566  1.00  0.00     0.093 C 
HETATM    9  C18         0      39.990  38.475 -22.608  1.00  0.00     0.048 C 
HETATM   10  C19         0      39.522  37.992 -23.822  1.00  0.00     0.096 C 
HETATM   11  C21         0      38.184  37.760 -23.990  1.00  0.00     0.084 C 
ENDROOT
BRANCH  10  12
HETATM   12  O20         0      40.306  38.143 -24.962  1.00  0.00    -0.359 OA
HETATM   13  H20         0      40.488  37.370 -25.483  1.00  0.00     0.218 HD
ENDBRANCH  10  12
BRANCH   4  14
HETATM   14  C5          0      34.082  37.347 -24.203  1.00  0.00     0.025 C 
HETATM   15  C6          0      33.217  36.704 -23.331  1.00  0.00     0.004 C 
HETATM   16  C7          0      32.115  37.419 -22.871  1.00  0.00     0.026 C 
HETATM   17  C8          0      31.808  38.683 -23.365  1.00  0.00     0.112 C 
HETATM   18  C10         0      32.322  38.953 -24.626  1.00  0.00     0.112 C 
HETATM   19  C12         0      33.474  38.286 -25.027  1.00  0.00     0.028 C 
BRANCH  17  20
HETATM   20  O9          0      31.223  39.638 -22.553  1.00  0.00    -0.357 OA
HETATM   21  H9          0      31.708  40.179 -21.941  1.00  0.00     0.218 HD
ENDBRANCH  17  20
BRANCH  18  22
HETATM   22  O11         0      31.892  40.119 -25.243  1.00  0.00    -0.357 OA
HETATM   23  H11         0      32.556  40.652 -25.665  1.00  0.00     0.218 HD
ENDBRANCH  18  22
ENDBRANCH   4  14
BRANCH   8  24
HETATM   24  O17         0      39.291  39.830 -20.709  1.00  0.00    -0.359 OA
HETATM   25  H17         0      39.093  39.774 -19.781  1.00  0.00     0.218 HD
ENDBRANCH   8  24
TORSDOF 5
ENDMDL
MODEL 3
REMARK VINA RESULT:      -2.4      1.786      6.311
REMARK  5 active torsions:
REMARK  status: ('A' for Active; 'I' for Inactive)
REMARK    1  A    between atoms: C4_4  and  C5_5 
REMARK    2  A    between atoms: C8_8  and  O9_9 
REMARK    3  A    between atoms: C10_11  and  O11_12 
REMARK    4  A    between atoms: C16_18  and  O17_19 
REMARK    5  A    between atoms: C19_22  and  O20_23 
ROOT
HETATM    1  O1          0      38.042  37.454 -19.876  1.00  0.00    -0.286 OA
HETATM    2  C2          0      37.432  37.919 -20.877  1.00  0.00     0.201 C 
HETATM    3  C3          0      36.078  38.211 -20.861  1.00  0.00     0.067 C 
HETATM    4  C4          0      35.409  38.625 -22.007  1.00  0.00     0.103 C 
HETATM    5  O13         0      36.095  38.760 -23.129  1.00  0.00    -0.307 OA
HETATM    6  C14         0      37.373  38.461 -23.207  1.00  0.00     0.107 C 
HETATM    7  C15         0      37.993  38.215 -24.424  1.00  0.00     0.049 C 
HETATM    8  C16         0      39.263  37.656 -24.486  1.00  0.00     0.093 C 
HETATM    9  C18         0      40.049  37.857 -23.358  1.00  0.00     0.048 C 
HETATM   10  C19         0      39.464  38.151 -22.134  1.00  0.00     0.096 C 
HETATM   11  C21         0      38.103  38.261 -22.041  1.00  0.00     0.084 C 
ENDROOT
BRANCH  10  12
HETATM   12  O20         0      40.181  37.921 -20.964  1.00  0.00    -0.359 OA
HETATM   13  H20         0      40.745  38.615 -20.644  1.00  0.00     0.218 HD
ENDBRANCH  10  12
BRANCH   4  14
HETATM   14  C5          0      33.976  38.335 -22.088  1.00  0.00     0.025 C 
HETATM   15  C6          0      33.089  38.641 -21.066  1.00  0.00     0.004 C 
HETATM   16  C7          0      31.826  39.103 -21.426  1.00  0.00     0.026 C 
HETATM   17  C8          0      31.411  39.133 -22.753  1.00  0.00     0.112 C 
HETATM   18  C10         0      32.081  38.250 -23.590  1.00  0.00     0.112 C 
HETATM   19  C12         0      33.375  37.871 -23.250  1.00  0.00     0.028 C 
BRANCH  17  20
HETATM   20  O9          0      30.554  40.119 -23.206  1.00  0.00    -0.357 OA
HETATM   21  H9          0      30.847  40.938 -23.589  1.00  0.00     0.218 HD
ENDBRANCH  17  20
BRANCH  18  22
HETATM   22  O11         0      31.582  38.102 -24.876  1.00  0.00    -0.357 OA
HETATM   23  H11         0      30.941  38.741 -25.165  1.00  0.00     0.218 HD
ENDBRANCH  18  22
ENDBRANCH   4  14
BRANCH   8  24
HETATM   24  O17         0      39.590  36.695 -25.449  1.00  0.00    -0.359 OA
HETATM   25  H17         0      39.787  35.796 -25.211  1.00  0.00     0.218 HD
ENDBRANCH   8  24
TORSDOF 5
ENDMDL
MODEL 4
REMARK VINA RESULT:      -2.4      2.165      6.695
REMARK  5 active torsions:
REMARK  status: ('A' for Active; 'I' for Inactive)
REMARK    1  A    between atoms: C4_4  and  C5_5 
REMARK    2  A    between atoms: C8_8  and  O9_9 
REMARK    3  A    between atoms: C10_11  and  O11_12 
REMARK    4  A    between atoms: C16_18  and  O17_19 
REMARK    5  A    between atoms: C19_22  and  O20_23 
ROOT
HETATM    1  O1          0      36.733  35.725 -23.785  1.00  0.00    -0.286 OA
HETATM    2  C2          0      36.302  36.222 -22.708  1.00  0.00     0.201 C 
HETATM    3  C3          0      34.959  36.241 -22.375  1.00  0.00     0.067 C 
HETATM    4  C4          0      34.501  36.885 -21.231  1.00  0.00     0.103 C 
HETATM    5  O13         0      35.380  37.473 -20.438  1.00  0.00    -0.307 OA
HETATM    6  C14         0      36.662  37.516 -20.727  1.00  0.00     0.107 C 
HETATM    7  C15         0      37.513  38.443 -20.142  1.00  0.00     0.049 C 
HETATM    8  C16         0      38.796  38.654 -20.630  1.00  0.00     0.093 C 
HETATM    9  C18         0      39.344  37.582 -21.325  1.00  0.00     0.048 C 
HETATM   10  C19         0      38.524  36.611 -21.884  1.00  0.00     0.096 C 
HETATM   11  C21         0      37.166  36.701 -21.735  1.00  0.00     0.084 C 
ENDROOT
BRANCH  10  12
HETATM   12  O20         0      39.016  35.816 -22.914  1.00  0.00    -0.359 OA
HETATM   13  H20         0      39.845  36.060 -23.307  1.00  0.00     0.218 HD
ENDBRANCH  10  12
BRANCH   4  14
HETATM   14  C5          0      33.124  37.383 -21.248  1.00  0.00     0.025 C 
HETATM   15  C6          0      32.715  38.488 -20.515  1.00  0.00     0.004 C 
HETATM   16  C7          0      31.797  39.349 -21.106  1.00  0.00     0.026 C 
HETATM   17  C8          0      31.202  39.056 -22.328  1.00  0.00     0.112 C 
HETATM   18  C10         0      31.181  37.706 -22.653  1.00  0.00     0.112 C 
HETATM   19  C12         0      32.162  36.881 -22.115  1.00  0.00     0.028 C 
BRANCH  17  20
HETATM   20  O9          0      30.867  40.064 -23.214  1.00  0.00    -0.357 OA
HETATM   21  H9          0      30.410  39.916 -24.034  1.00  0.00     0.218 HD
ENDBRANCH  17  20
BRANCH  18  22
HETATM   22  O11         0      30.436  37.338 -23.765  1.00  0.00    -0.357 OA
HETATM   23  H11         0      29.562  37.704 -23.837  1.00  0.00     0.218 HD
ENDBRANCH  18  22
ENDBRANCH   4  14
BRANCH   8  24
HETATM   24  O17         0      39.344  39.939 -20.709  1.00  0.00    -0.359 OA
HETATM   25  H17         0      40.282  40.085 -20.667  1.00  0.00     0.218 HD
ENDBRANCH   8  24
TORSDOF 5
ENDMDL
MODEL 5
REMARK VINA RESULT:      -2.3      1.603      2.964
REMARK  5 active torsions:
REMARK  status: ('A' for Active; 'I' for Inactive)
REMARK    1  A    between atoms: C4_4  and  C5_5 
REMARK    2  A    between atoms: C8_8  and  O9_9 
REMARK    3  A    between atoms: C10_11  and  O11_12 
REMARK    4  A    between atoms: C16_18  and  O17_19 
REMARK    5  A    between atoms: C19_22  and  O20_23 
ROOT
HETATM    1  O1          0      32.945  36.718 -25.035  1.00  0.00    -0.286 OA
HETATM    2  C2          0      33.400  37.441 -24.107  1.00  0.00     0.201 C 
HETATM    3  C3          0      34.756  37.612 -23.885  1.00  0.00     0.067 C 
HETATM    4  C4          0      35.230  38.331 -22.793  1.00  0.00     0.103 C 
HETATM    5  O13         0      34.357  38.877 -21.965  1.00  0.00    -0.307 OA
HETATM    6  C14         0      33.060  38.713 -22.108  1.00  0.00     0.107 C 
HETATM    7  C15         0      32.177  38.926 -21.060  1.00  0.00     0.049 C 
HETATM    8  C16         0      30.852  38.512 -21.137  1.00  0.00     0.093 C 
HETATM    9  C18         0      30.351  38.386 -22.427  1.00  0.00     0.048 C 
HETATM   10  C19         0      31.210  38.219 -23.505  1.00  0.00     0.096 C 
HETATM   11  C21         0      32.562  38.193 -23.298  1.00  0.00     0.084 C 
ENDROOT
BRANCH  10  12
HETATM   12  O20         0      30.720  37.669 -24.686  1.00  0.00    -0.359 OA
HETATM   13  H20         0      29.804  37.805 -24.894  1.00  0.00     0.218 HD
ENDBRANCH  10  12
BRANCH   4  14
HETATM   14  C5          0      36.559  37.982 -22.288  1.00  0.00     0.025 C 
HETATM   15  C6          0      37.481  37.261 -23.033  1.00  0.00     0.004 C 
HETATM   16  C7          0      38.820  37.626 -22.928  1.00  0.00     0.026 C 
HETATM   17  C8          0      39.246  38.584 -22.015  1.00  0.00     0.112 C 
HETATM   18  C10         0      38.400  38.765 -20.928  1.00  0.00     0.112 C 
HETATM   19  C12         0      37.051  38.473 -21.085  1.00  0.00     0.028 C 
BRANCH  17  20
HETATM   20  O9          0      40.312  39.416 -22.305  1.00  0.00    -0.357 OA
HETATM   21  H9          0      40.311  40.048 -23.015  1.00  0.00     0.218 HD
ENDBRANCH  17  20
BRANCH  18  22
HETATM   22  O11         0      38.867  39.567 -19.896  1.00  0.00    -0.357 OA
HETATM   23  H11         0      38.593  39.337 -19.015  1.00  0.00     0.218 HD
ENDBRANCH  18  22
ENDBRANCH   4  14
BRANCH   8  24
HETATM   24  O17         0      30.200  37.947 -20.036  1.00  0.00    -0.359 OA
HETATM   25  H17         0      30.493  38.106 -19.147  1.00  0.00     0.218 HD
ENDBRANCH   8  24
TORSDOF 5
ENDMDL
MODEL 6
REMARK VINA RESULT:      -2.3      2.210      2.679
REMARK  5 active torsions:
REMARK  status: ('A' for Active; 'I' for Inactive)
REMARK    1  A    between atoms: C4_4  and  C5_5 
REMARK    2  A    between atoms: C8_8  and  O9_9 
REMARK    3  A    between atoms: C10_11  and  O11_12 
REMARK    4  A    between atoms: C16_18  and  O17_19 
REMARK    5  A    between atoms: C19_22  and  O20_23 
ROOT
HETATM    1  O1          0      33.897  39.100 -21.649  1.00  0.00    -0.286 OA
HETATM    2  C2          0      34.122  38.541 -22.758  1.00  0.00     0.201 C 
HETATM    3  C3          0      35.361  38.025 -23.100  1.00  0.00     0.067 C 
HETATM    4  C4          0      35.610  37.506 -24.365  1.00  0.00     0.103 C 
HETATM    5  O13         0      34.628  37.491 -25.249  1.00  0.00    -0.307 OA
HETATM    6  C14         0      33.444  38.002 -24.989  1.00  0.00     0.107 C 
HETATM    7  C15         0      32.560  38.352 -25.999  1.00  0.00     0.049 C 
HETATM    8  C16         0      31.431  39.118 -25.737  1.00  0.00     0.093 C 
HETATM    9  C18         0      30.966  39.050 -24.428  1.00  0.00     0.048 C 
HETATM   10  C19         0      31.812  38.658 -23.399  1.00  0.00     0.096 C 
HETATM   11  C21         0      33.108  38.320 -23.677  1.00  0.00     0.084 C 
ENDROOT
BRANCH  10  12
HETATM   12  O20         0      31.494  39.003 -22.089  1.00  0.00    -0.359 OA
HETATM   13  H20         0      31.620  39.906 -21.824  1.00  0.00     0.218 HD
ENDBRANCH  10  12
BRANCH   4  14
HETATM   14  C5          0      36.991  37.550 -24.848  1.00  0.00     0.025 C 
HETATM   15  C6          0      37.340  37.259 -26.159  1.00  0.00     0.004 C 
HETATM   16  C7          0      38.345  38.024 -26.743  1.00  0.00     0.026 C 
HETATM   17  C8          0      39.073  38.955 -26.010  1.00  0.00     0.112 C 
HETATM   18  C10         0      39.097  38.724 -24.641  1.00  0.00     0.112 C 
HETATM   19  C12         0      38.036  38.031 -24.069  1.00  0.00     0.028 C 
BRANCH  17  20
HETATM   20  O9          0      39.538  40.116 -26.602  1.00  0.00    -0.357 OA
HETATM   21  H9          0      39.214  40.983 -26.389  1.00  0.00     0.218 HD
ENDBRANCH  17  20
BRANCH  18  22
HETATM   22  O11         0      39.958  39.508 -23.886  1.00  0.00    -0.357 OA
HETATM   23  H11         0      40.268  40.313 -24.285  1.00  0.00     0.218 HD
ENDBRANCH  18  22
ENDBRANCH   4  14
BRANCH   8  24
HETATM   24  O17         0      31.011  40.122 -26.615  1.00  0.00    -0.359 OA
HETATM   25  H17         0      31.630  40.703 -27.042  1.00  0.00     0.218 HD
ENDBRANCH   8  24
TORSDOF 5
ENDMDL
MODEL 7
REMARK VINA RESULT:      -2.3      2.357      6.147
REMARK  5 active torsions:
REMARK  status: ('A' for Active; 'I' for Inactive)
REMARK    1  A    between atoms: C4_4  and  C5_5 
REMARK    2  A    between atoms: C8_8  and  O9_9 
REMARK    3  A    between atoms: C10_11  and  O11_12 
REMARK    4  A    between atoms: C16_18  and  O17_19 
REMARK    5  A    between atoms: C19_22  and  O20_23 
ROOT
HETATM    1  O1          0      35.691  38.259 -28.017  1.00  0.00    -0.286 OA
HETATM    2  C2          0      35.871  37.886 -26.826  1.00  0.00     0.201 C 
HETATM    3  C3          0      34.844  37.423 -26.021  1.00  0.00     0.067 C 
HETATM    4  C4          0      35.050  37.116 -24.681  1.00  0.00     0.103 C 
HETATM    5  O13         0      36.264  37.253 -24.178  1.00  0.00    -0.307 OA
HETATM    6  C14         0      37.266  37.725 -24.888  1.00  0.00     0.107 C 
HETATM    7  C15         0      38.406  38.242 -24.290  1.00  0.00     0.049 C 
HETATM    8  C16         0      39.340  38.965 -25.022  1.00  0.00     0.093 C 
HETATM    9  C18         0      39.360  38.688 -26.384  1.00  0.00     0.048 C 
HETATM   10  C19         0      38.253  38.127 -27.006  1.00  0.00     0.096 C 
HETATM   11  C21         0      37.139  37.828 -26.269  1.00  0.00     0.084 C 
ENDROOT
BRANCH  10  12
HETATM   12  O20         0      38.108  38.256 -28.383  1.00  0.00    -0.359 OA
HETATM   13  H20         0      38.504  39.010 -28.804  1.00  0.00     0.218 HD
ENDBRANCH  10  12
BRANCH   4  14
HETATM   14  C5          0      33.899  37.225 -23.783  1.00  0.00     0.025 C 
HETATM   15  C6          0      33.906  36.731 -22.487  1.00  0.00     0.004 C 
HETATM   16  C7          0      33.261  37.480 -21.508  1.00  0.00     0.026 C 
HETATM   17  C8          0      32.519  38.612 -21.827  1.00  0.00     0.112 C 
HETATM   18  C10         0      32.056  38.653 -23.135  1.00  0.00     0.112 C 
HETATM   19  C12         0      32.769  37.964 -24.110  1.00  0.00     0.028 C 
BRANCH  17  20
HETATM   20  O9          0      32.450  39.684 -20.954  1.00  0.00    -0.357 OA
HETATM   21  H9          0      33.155  39.932 -20.367  1.00  0.00     0.218 HD
ENDBRANCH  17  20
BRANCH  18  22
HETATM   22  O11         0      31.157  39.661 -23.453  1.00  0.00    -0.357 OA
HETATM   23  H11         0      31.207  40.460 -22.940  1.00  0.00     0.218 HD
ENDBRANCH  18  22
ENDBRANCH   4  14
BRANCH   8  24
HETATM   24  O17         0      39.959  40.103 -24.493  1.00  0.00    -0.359 OA
HETATM   25  H17         0      39.786  40.971 -24.838  1.00  0.00     0.218 HD
ENDBRANCH   8  24
TORSDOF 5
ENDMDL
MODEL 8
REMARK VINA RESULT:      -2.3      1.627      2.755
REMARK  5 active torsions:
REMARK  status: ('A' for Active; 'I' for Inactive)
REMARK    1  A    between atoms: C4_4  and  C5_5 
REMARK    2  A    between atoms: C8_8  and  O9_9 
REMARK    3  A    between atoms: C10_11  and  O11_12 
REMARK    4  A    between atoms: C16_18  and  O17_19 
REMARK    5  A    between atoms: C19_22  and  O20_23 
ROOT
HETATM    1  O1          0      31.157  38.869 -24.308  1.00  0.00    -0.286 OA
HETATM    2  C2          0      32.327  38.399 -24.343  1.00  0.00     0.201 C 
HETATM    3  C3          0      33.110  38.250 -23.211  1.00  0.00     0.067 C 
HETATM    4  C4          0      34.432  37.827 -23.290  1.00  0.00     0.103 C 
HETATM    5  O13         0      34.938  37.545 -24.477  1.00  0.00    -0.307 OA
HETATM    6  C14         0      34.251  37.705 -25.587  1.00  0.00     0.107 C 
HETATM    7  C15         0      34.871  37.800 -26.824  1.00  0.00     0.049 C 
HETATM    8  C16         0      34.174  38.221 -27.950  1.00  0.00     0.093 C 
HETATM    9  C18         0      32.800  38.020 -27.899  1.00  0.00     0.048 C 
HETATM   10  C19         0      32.154  37.874 -26.679  1.00  0.00     0.096 C 
HETATM   11  C21         0      32.877  37.911 -25.519  1.00  0.00     0.084 C 
ENDROOT
BRANCH  10  12
HETATM   12  O20         0      30.785  38.110 -26.603  1.00  0.00    -0.359 OA
HETATM   13  H20         0      30.203  37.503 -27.044  1.00  0.00     0.218 HD
ENDBRANCH  10  12
BRANCH   4  14
HETATM   14  C5          0      35.337  38.256 -22.222  1.00  0.00     0.025 C 
HETATM   15  C6          0      35.078  38.024 -20.879  1.00  0.00     0.004 C 
HETATM   16  C7          0      36.155  37.692 -20.063  1.00  0.00     0.026 C 
HETATM   17  C8          0      37.463  37.720 -20.534  1.00  0.00     0.112 C 
HETATM   18  C10         0      37.666  38.544 -21.632  1.00  0.00     0.112 C 
HETATM   19  C12         0      36.592  38.792 -22.480  1.00  0.00     0.028 C 
BRANCH  17  20
HETATM   20  O9          0      38.407  36.827 -20.058  1.00  0.00    -0.357 OA
HETATM   21  H9          0      39.078  36.429 -20.601  1.00  0.00     0.218 HD
ENDBRANCH  17  20
BRANCH  18  22
HETATM   22  O11         0      38.980  38.757 -22.024  1.00  0.00    -0.357 OA
HETATM   23  H11         0      39.550  37.997 -22.047  1.00  0.00     0.218 HD
ENDBRANCH  18  22
ENDBRANCH   4  14
BRANCH   8  24
HETATM   24  O17         0      34.759  39.074 -28.893  1.00  0.00    -0.359 OA
HETATM   25  H17         0      34.424  39.949 -29.049  1.00  0.00     0.218 HD
ENDBRANCH   8  24
TORSDOF 5
ENDMDL
MODEL 9
REMARK VINA RESULT:      -2.3      3.339      4.809
REMARK  5 active torsions:
REMARK  status: ('A' for Active; 'I' for Inactive)
REMARK    1  A    between atoms: C4_4  and  C5_5 
REMARK    2  A    between atoms: C8_8  and  O9_9 
REMARK    3  A    between atoms: C10_11  and  O11_12 
REMARK    4  A    between atoms: C16_18  and  O17_19 
REMARK    5  A    between atoms: C19_22  and  O20_23 
ROOT
HETATM    1  O1          0      38.122  38.695 -21.115  1.00  0.00    -0.286 OA
HETATM    2  C2          0      37.578  38.339 -22.197  1.00  0.00     0.201 C 
HETATM    3  C3          0      38.270  38.262 -23.394  1.00  0.00     0.067 C 
HETATM    4  C4          0      37.625  37.967 -24.590  1.00  0.00     0.103 C 
HETATM    5  O13         0      36.324  37.737 -24.570  1.00  0.00    -0.307 OA
HETATM    6  C14         0      35.614  37.834 -23.467  1.00  0.00     0.107 C 
HETATM    7  C15         0      34.236  37.992 -23.497  1.00  0.00     0.049 C 
HETATM    8  C16         0      33.525  38.348 -22.357  1.00  0.00     0.093 C 
HETATM    9  C18         0      34.140  38.017 -21.155  1.00  0.00     0.048 C 
HETATM   10  C19         0      35.511  37.806 -21.099  1.00  0.00     0.096 C 
HETATM   11  C21         0      36.261  37.908 -22.239  1.00  0.00     0.084 C 
ENDROOT
BRANCH  10  12
HETATM   12  O20         0      36.166  37.912 -19.875  1.00  0.00    -0.359 OA
HETATM   13  H20         0      36.437  38.775 -19.588  1.00  0.00     0.218 HD
ENDBRANCH  10  12
BRANCH   4  14
HETATM   14  C5          0      38.231  38.476 -25.821  1.00  0.00     0.025 C 
HETATM   15  C6          0      38.894  39.693 -25.886  1.00  0.00     0.004 C 
HETATM   16  C7          0      40.036  39.765 -26.677  1.00  0.00     0.026 C 
HETATM   17  C8          0      40.432  38.703 -27.484  1.00  0.00     0.112 C 
HETATM   18  C10         0      39.412  37.827 -27.831  1.00  0.00     0.112 C 
HETATM   19  C12         0      38.321  37.712 -26.978  1.00  0.00     0.028 C 
BRANCH  17  20
HETATM   20  O9          0      41.772  38.455 -27.722  1.00  0.00    -0.357 OA
HETATM   21  H9          0      42.109  37.619 -28.023  1.00  0.00     0.218 HD
ENDBRANCH  17  20
BRANCH  18  22
HETATM   22  O11         0      39.709  36.862 -28.783  1.00  0.00    -0.357 OA
HETATM   23  H11         0      39.479  37.061 -29.683  1.00  0.00     0.218 HD
ENDBRANCH  18  22
ENDBRANCH   4  14
BRANCH   8  24
HETATM   24  O17         0      32.461  39.255 -22.414  1.00  0.00    -0.359 OA
HETATM   25  H17         0      31.564  38.965 -22.528  1.00  0.00     0.218 HD
ENDBRANCH   8  24
TORSDOF 5
ENDMDL
