MODEL 1
REMARK VINA RESULT:      -5.6      0.000      0.000
REMARK  5 active torsions:
REMARK  status: ('A' for Active; 'I' for Inactive)
REMARK    1  A    between atoms: C4_4  and  C5_5 
REMARK    2  A    between atoms: C8_8  and  O9_9 
REMARK    3  A    between atoms: C10_11  and  O11_12 
REMARK    4  A    between atoms: C16_18  and  O17_19 
REMARK    5  A    between atoms: C19_22  and  O20_23 
ROOT
HETATM    1  O1          0      25.154  58.093 -20.884  1.00  0.00    -0.286 OA
HETATM    2  C2          0      25.632  57.411 -21.832  1.00  0.00     0.201 C 
HETATM    3  C3          0      25.569  56.028 -21.867  1.00  0.00     0.067 C 
HETATM    4  C4          0      26.193  55.296 -22.871  1.00  0.00     0.103 C 
HETATM    5  O13         0      26.842  55.946 -23.820  1.00  0.00    -0.307 OA
HETATM    6  C14         0      26.964  57.256 -23.813  1.00  0.00     0.107 C 
HETATM    7  C15         0      27.948  57.902 -24.547  1.00  0.00     0.049 C 
HETATM    8  C16         0      28.236  59.246 -24.342  1.00  0.00     0.093 C 
HETATM    9  C18         0      27.195  59.994 -23.805  1.00  0.00     0.048 C 
HETATM   10  C19         0      26.169  59.374 -23.105  1.00  0.00     0.096 C 
HETATM   11  C21         0      26.174  58.014 -22.956  1.00  0.00     0.084 C 
ENDROOT
BRANCH  10  12
HETATM   12  O20         0      25.397  60.124 -22.223  1.00  0.00    -0.359 OA
HETATM   13  H20         0      24.482  60.258 -22.436  1.00  0.00     0.218 HD
ENDBRANCH  10  12
BRANCH   4  14
HETATM   14  C5          0      26.602  53.929 -22.546  1.00  0.00     0.025 C 
HETATM   15  C6          0      26.519  53.403 -21.265  1.00  0.00     0.004 C 
HETATM   16  C7          0      26.134  52.072 -21.139  1.00  0.00     0.026 C 
HETATM   17  C8          0      25.967  51.252 -22.250  1.00  0.00     0.112 C 
HETATM   18  C10         0      26.664  51.658 -23.380  1.00  0.00     0.112 C 
HETATM   19  C12         0      26.962  53.008 -23.522  1.00  0.00     0.028 C 
BRANCH  17  20
HETATM   20  O9          0      25.014  50.249 -22.254  1.00  0.00    -0.357 OA
HETATM   21  H9          0      25.024  49.513 -22.855  1.00  0.00     0.218 HD
ENDBRANCH  17  20
BRANCH  18  22
HETATM   22  O11         0      26.686  50.780 -24.454  1.00  0.00    -0.357 OA
HETATM   23  H11         0      27.493  50.730 -24.952  1.00  0.00     0.218 HD
ENDBRANCH  18  22
ENDBRANCH   4  14
BRANCH   8  24
HETATM   24  O17         0      29.553  59.720 -24.354  1.00  0.00    -0.359 OA
HETATM   25  H17         0      30.053  59.783 -25.158  1.00  0.00     0.218 HD
ENDBRANCH   8  24
TORSDOF 5
ENDMDL
MODEL 2
REMARK VINA RESULT:      -5.6      3.553      6.586
REMARK  5 active torsions:
REMARK  status: ('A' for Active; 'I' for Inactive)
REMARK    1  A    between atoms: C4_4  and  C5_5 
REMARK    2  A    between atoms: C8_8  and  O9_9 
REMARK    3  A    between atoms: C10_11  and  O11_12 
REMARK    4  A    between atoms: C16_18  and  O17_19 
REMARK    5  A    between atoms: C19_22  and  O20_23 
ROOT
HETATM    1  O1          0      23.403  55.934 -20.818  1.00  0.00    -0.286 OA
HETATM    2  C2          0      23.534  56.180 -22.048  1.00  0.00     0.201 C 
HETATM    3  C3          0      24.689  56.721 -22.586  1.00  0.00     0.067 C 
HETATM    4  C4          0      24.769  57.078 -23.928  1.00  0.00     0.103 C 
HETATM    5  O13         0      23.720  56.872 -24.704  1.00  0.00    -0.307 OA
HETATM    6  C14         0      22.587  56.396 -24.235  1.00  0.00     0.107 C 
HETATM    7  C15         0      21.391  56.550 -24.921  1.00  0.00     0.049 C 
HETATM    8  C16         0      20.171  56.277 -24.313  1.00  0.00     0.093 C 
HETATM    9  C18         0      20.230  55.379 -23.254  1.00  0.00     0.048 C 
HETATM   10  C19         0      21.423  55.166 -22.576  1.00  0.00     0.096 C 
HETATM   11  C21         0      22.553  55.833 -22.964  1.00  0.00     0.084 C 
ENDROOT
BRANCH  10  12
HETATM   12  O20         0      21.389  54.632 -21.292  1.00  0.00    -0.359 OA
HETATM   13  H20         0      20.647  54.847 -20.740  1.00  0.00     0.218 HD
ENDBRANCH  10  12
BRANCH   4  14
HETATM   14  C5          0      25.710  58.142 -24.282  1.00  0.00     0.025 C 
HETATM   15  C6          0      25.922  59.256 -23.483  1.00  0.00     0.004 C 
HETATM   16  C7          0      27.222  59.741 -23.383  1.00  0.00     0.026 C 
HETATM   17  C8          0      28.255  59.221 -24.156  1.00  0.00     0.112 C 
HETATM   18  C10         0      27.846  58.595 -25.325  1.00  0.00     0.112 C 
HETATM   19  C12         0      26.571  58.044 -25.368  1.00  0.00     0.028 C 
BRANCH  17  20
HETATM   20  O9          0      29.547  59.163 -23.664  1.00  0.00    -0.357 OA
HETATM   21  H9          0      30.299  58.906 -24.186  1.00  0.00     0.218 HD
ENDBRANCH  17  20
BRANCH  18  22
HETATM   22  O11         0      28.839  58.227 -26.222  1.00  0.00    -0.357 OA
HETATM   23  H11         0      29.022  58.831 -26.933  1.00  0.00     0.218 HD
ENDBRANCH  18  22
ENDBRANCH   4  14
BRANCH   8  24
HETATM   24  O17         0      19.051  57.089 -24.528  1.00  0.00    -0.359 OA
HETATM   25  H17         0      18.917  57.547 -25.349  1.00  0.00     0.218 HD
ENDBRANCH   8  24
TORSDOF 5
ENDMDL
MODEL 3
REMARK VINA RESULT:      -5.6      2.653      5.772
REMARK  5 active torsions:
REMARK  status: ('A' for Active; 'I' for Inactive)
REMARK    1  A    between atoms: C4_4  and  C5_5 
REMARK    2  A    between atoms: C8_8  and  O9_9 
REMARK    3  A    between atoms: C10_11  and  O11_12 
REMARK    4  A    between atoms: C16_18  and  O17_19 
REMARK    5  A    between atoms: C19_22  and  O20_23 
ROOT
HETATM    1  O1          0      25.600  60.125 -22.439  1.00  0.00    -0.286 OA
HETATM    2  C2          0      26.514  59.284 -22.659  1.00  0.00     0.201 C 
HETATM    3  C3          0      27.438  59.429 -23.680  1.00  0.00     0.067 C 
HETATM    4  C4          0      28.370  58.439 -23.966  1.00  0.00     0.103 C 
HETATM    5  O13         0      28.380  57.344 -23.226  1.00  0.00    -0.307 OA
HETATM    6  C14         0      27.502  57.139 -22.269  1.00  0.00     0.107 C 
HETATM    7  C15         0      27.247  55.870 -21.771  1.00  0.00     0.049 C 
HETATM    8  C16         0      26.151  55.622 -20.952  1.00  0.00     0.093 C 
HETATM    9  C18         0      25.678  56.727 -20.256  1.00  0.00     0.048 C 
HETATM   10  C19         0      25.953  58.013 -20.701  1.00  0.00     0.096 C 
HETATM   11  C21         0      26.712  58.194 -21.825  1.00  0.00     0.084 C 
ENDROOT
BRANCH  10  12
HETATM   12  O20         0      25.145  59.066 -20.283  1.00  0.00    -0.359 OA
HETATM   13  H20         0      24.311  58.854 -19.882  1.00  0.00     0.218 HD
ENDBRANCH  10  12
BRANCH   4  14
HETATM   14  C5          0      28.870  58.365 -25.340  1.00  0.00     0.025 C 
HETATM   15  C6          0      29.923  57.544 -25.715  1.00  0.00     0.004 C 
HETATM   16  C7          0      29.839  56.911 -26.951  1.00  0.00     0.026 C 
HETATM   17  C8          0      28.810  57.189 -27.844  1.00  0.00     0.112 C 
HETATM   18  C10         0      28.206  58.426 -27.666  1.00  0.00     0.112 C 
HETATM   19  C12         0      28.231  58.997 -26.399  1.00  0.00     0.028 C 
BRANCH  17  20
HETATM   20  O9          0      28.316  56.206 -28.684  1.00  0.00    -0.357 OA
HETATM   21  H9          0      28.728  55.359 -28.805  1.00  0.00     0.218 HD
ENDBRANCH  17  20
BRANCH  18  22
HETATM   22  O11         0      27.306  58.833 -28.642  1.00  0.00    -0.357 OA
HETATM   23  H11         0      26.547  58.279 -28.783  1.00  0.00     0.218 HD
ENDBRANCH  18  22
ENDBRANCH   4  14
BRANCH   8  24
HETATM   24  O17         0      25.392  54.454 -21.084  1.00  0.00    -0.359 OA
HETATM   25  H17         0      24.737  54.210 -20.441  1.00  0.00     0.218 HD
ENDBRANCH   8  24
TORSDOF 5
ENDMDL
MODEL 4
REMARK VINA RESULT:      -5.3      4.509      7.077
REMARK  5 active torsions:
REMARK  status: ('A' for Active; 'I' for Inactive)
REMARK    1  A    between atoms: C4_4  and  C5_5 
REMARK    2  A    between atoms: C8_8  and  O9_9 
REMARK    3  A    between atoms: C10_11  and  O11_12 
REMARK    4  A    between atoms: C16_18  and  O17_19 
REMARK    5  A    between atoms: C19_22  and  O20_23 
ROOT
HETATM    1  O1          0      28.428  60.121 -25.530  1.00  0.00    -0.286 OA
HETATM    2  C2          0      27.960  59.037 -25.975  1.00  0.00     0.201 C 
HETATM    3  C3          0      28.065  58.663 -27.304  1.00  0.00     0.067 C 
HETATM    4  C4          0      27.451  57.513 -27.788  1.00  0.00     0.103 C 
HETATM    5  O13         0      26.770  56.755 -26.947  1.00  0.00    -0.307 OA
HETATM    6  C14         0      26.608  57.084 -25.684  1.00  0.00     0.107 C 
HETATM    7  C15         0      25.595  56.535 -24.911  1.00  0.00     0.049 C 
HETATM    8  C16         0      25.268  57.065 -23.668  1.00  0.00     0.093 C 
HETATM    9  C18         0      26.292  57.764 -23.041  1.00  0.00     0.048 C 
HETATM   10  C19         0      27.346  58.286 -23.779  1.00  0.00     0.096 C 
HETATM   11  C21         0      27.385  58.097 -25.133  1.00  0.00     0.084 C 
ENDROOT
BRANCH  10  12
HETATM   12  O20         0      28.105  59.322 -23.243  1.00  0.00    -0.359 OA
HETATM   13  H20         0      28.391  59.243 -22.340  1.00  0.00     0.218 HD
ENDBRANCH  10  12
BRANCH   4  14
HETATM   14  C5          0      27.089  57.494 -29.206  1.00  0.00     0.025 C 
HETATM   15  C6          0      26.926  56.319 -29.925  1.00  0.00     0.004 C 
HETATM   16  C7          0      25.900  56.274 -30.863  1.00  0.00     0.026 C 
HETATM   17  C8          0      25.146  57.400 -31.174  1.00  0.00     0.112 C 
HETATM   18  C10         0      25.771  58.610 -30.901  1.00  0.00     0.112 C 
HETATM   19  C12         0      26.733  58.644 -29.899  1.00  0.00     0.028 C 
BRANCH  17  20
HETATM   20  O9          0      23.812  57.286 -31.522  1.00  0.00    -0.357 OA
HETATM   21  H9          0      23.191  56.735 -31.060  1.00  0.00     0.218 HD
ENDBRANCH  17  20
BRANCH  18  22
HETATM   22  O11         0      25.145  59.759 -31.364  1.00  0.00    -0.357 OA
HETATM   23  H11         0      25.228  59.950 -32.291  1.00  0.00     0.218 HD
ENDBRANCH  18  22
ENDBRANCH   4  14
BRANCH   8  24
HETATM   24  O17         0      23.938  57.176 -23.250  1.00  0.00    -0.359 OA
HETATM   25  H17         0      23.676  56.978 -22.358  1.00  0.00     0.218 HD
ENDBRANCH   8  24
TORSDOF 5
ENDMDL
MODEL 5
REMARK VINA RESULT:      -5.3      2.671      6.042
REMARK  5 active torsions:
REMARK  status: ('A' for Active; 'I' for Inactive)
REMARK    1  A    between atoms: C4_4  and  C5_5 
REMARK    2  A    between atoms: C8_8  and  O9_9 
REMARK    3  A    between atoms: C10_11  and  O11_12 
REMARK    4  A    between atoms: C16_18  and  O17_19 
REMARK    5  A    between atoms: C19_22  and  O20_23 
ROOT
HETATM    1  O1          0      24.161  57.140 -22.845  1.00  0.00    -0.286 OA
HETATM    2  C2          0      25.401  57.352 -22.751  1.00  0.00     0.201 C 
HETATM    3  C3          0      26.073  58.248 -23.565  1.00  0.00     0.067 C 
HETATM    4  C4          0      27.455  58.388 -23.510  1.00  0.00     0.103 C 
HETATM    5  O13         0      28.133  57.656 -22.643  1.00  0.00    -0.307 OA
HETATM    6  C14         0      27.549  56.764 -21.874  1.00  0.00     0.107 C 
HETATM    7  C15         0      28.263  55.738 -21.272  1.00  0.00     0.049 C 
HETATM    8  C16         0      27.617  54.661 -20.677  1.00  0.00     0.093 C 
HETATM    9  C18         0      26.318  54.917 -20.253  1.00  0.00     0.048 C 
HETATM   10  C19         0      25.591  55.965 -20.801  1.00  0.00     0.096 C 
HETATM   11  C21         0      26.163  56.763 -21.754  1.00  0.00     0.084 C 
ENDROOT
BRANCH  10  12
HETATM   12  O20         0      24.203  55.951 -20.709  1.00  0.00    -0.359 OA
HETATM   13  H20         0      23.769  55.108 -20.654  1.00  0.00     0.218 HD
ENDBRANCH  10  12
BRANCH   4  14
HETATM   14  C5          0      28.130  58.846 -24.725  1.00  0.00     0.025 C 
HETATM   15  C6          0      29.509  58.970 -24.818  1.00  0.00     0.004 C 
HETATM   16  C7          0      30.108  58.612 -26.022  1.00  0.00     0.026 C 
HETATM   17  C8          0      29.354  58.272 -27.140  1.00  0.00     0.112 C 
HETATM   18  C10         0      28.062  58.779 -27.143  1.00  0.00     0.112 C 
HETATM   19  C12         0      27.454  59.048 -25.922  1.00  0.00     0.028 C 
BRANCH  17  20
HETATM   20  O9          0      29.813  57.332 -28.045  1.00  0.00    -0.357 OA
HETATM   21  H9          0      30.730  57.214 -28.264  1.00  0.00     0.218 HD
ENDBRANCH  17  20
BRANCH  18  22
HETATM   22  O11         0      27.331  58.631 -28.314  1.00  0.00    -0.357 OA
HETATM   23  H11         0      27.794  58.777 -29.131  1.00  0.00     0.218 HD
ENDBRANCH  18  22
ENDBRANCH   4  14
BRANCH   8  24
HETATM   24  O17         0      28.105  53.356 -20.805  1.00  0.00    -0.359 OA
HETATM   25  H17         0      28.606  53.083 -21.564  1.00  0.00     0.218 HD
ENDBRANCH   8  24
TORSDOF 5
ENDMDL
MODEL 6
REMARK VINA RESULT:      -5.2      1.996      2.678
REMARK  5 active torsions:
REMARK  status: ('A' for Active; 'I' for Inactive)
REMARK    1  A    between atoms: C4_4  and  C5_5 
REMARK    2  A    between atoms: C8_8  and  O9_9 
REMARK    3  A    between atoms: C10_11  and  O11_12 
REMARK    4  A    between atoms: C16_18  and  O17_19 
REMARK    5  A    between atoms: C19_22  and  O20_23 
ROOT
HETATM    1  O1          0      24.872  57.578 -21.253  1.00  0.00    -0.286 OA
HETATM    2  C2          0      24.999  57.376 -22.491  1.00  0.00     0.201 C 
HETATM    3  C3          0      24.470  56.266 -23.129  1.00  0.00     0.067 C 
HETATM    4  C4          0      24.712  56.015 -24.475  1.00  0.00     0.103 C 
HETATM    5  O13         0      25.449  56.873 -25.158  1.00  0.00    -0.307 OA
HETATM    6  C14         0      26.005  57.922 -24.593  1.00  0.00     0.107 C 
HETATM    7  C15         0      27.075  58.586 -25.176  1.00  0.00     0.049 C 
HETATM    8  C16         0      27.817  59.522 -24.467  1.00  0.00     0.093 C 
HETATM    9  C18         0      27.145  60.125 -23.410  1.00  0.00     0.048 C 
HETATM   10  C19         0      26.042  59.511 -22.833  1.00  0.00     0.096 C 
HETATM   11  C21         0      25.602  58.310 -23.319  1.00  0.00     0.084 C 
ENDROOT
BRANCH  10  12
HETATM   12  O20         0      25.657  59.874 -21.547  1.00  0.00    -0.359 OA
HETATM   13  H20         0      25.896  59.298 -20.831  1.00  0.00     0.218 HD
ENDBRANCH  10  12
BRANCH   4  14
HETATM   14  C5          0      24.666  54.619 -24.915  1.00  0.00     0.025 C 
HETATM   15  C6          0      24.117  54.232 -26.129  1.00  0.00     0.004 C 
HETATM   16  C7          0      24.753  53.209 -26.826  1.00  0.00     0.026 C 
HETATM   17  C8          0      25.818  52.504 -26.276  1.00  0.00     0.112 C 
HETATM   18  C10         0      25.870  52.521 -24.888  1.00  0.00     0.112 C 
HETATM   19  C12         0      25.301  53.598 -24.220  1.00  0.00     0.028 C 
BRANCH  17  20
HETATM   20  O9          0      26.837  52.021 -27.077  1.00  0.00    -0.357 OA
HETATM   21  H9          0      27.223  51.158 -26.977  1.00  0.00     0.218 HD
ENDBRANCH  17  20
BRANCH  18  22
HETATM   22  O11         0      26.796  51.683 -24.284  1.00  0.00    -0.357 OA
HETATM   23  H11         0      26.606  50.752 -24.297  1.00  0.00     0.218 HD
ENDBRANCH  18  22
ENDBRANCH   4  14
BRANCH   8  24
HETATM   24  O17         0      29.209  59.596 -24.592  1.00  0.00    -0.359 OA
HETATM   25  H17         0      29.778  58.923 -24.237  1.00  0.00     0.218 HD
ENDBRANCH   8  24
TORSDOF 5
ENDMDL
MODEL 7
REMARK VINA RESULT:      -5.1      3.231      5.787
REMARK  5 active torsions:
REMARK  status: ('A' for Active; 'I' for Inactive)
REMARK    1  A    between atoms: C4_4  and  C5_5 
REMARK    2  A    between atoms: C8_8  and  O9_9 
REMARK    3  A    between atoms: C10_11  and  O11_12 
REMARK    4  A    between atoms: C16_18  and  O17_19 
REMARK    5  A    between atoms: C19_22  and  O20_23 
ROOT
HETATM    1  O1          0      25.007  54.900 -26.367  1.00  0.00    -0.286 OA
HETATM    2  C2          0      25.963  55.702 -26.176  1.00  0.00     0.201 C 
HETATM    3  C3          0      26.438  56.017 -24.915  1.00  0.00     0.067 C 
HETATM    4  C4          0      27.423  56.980 -24.727  1.00  0.00     0.103 C 
HETATM    5  O13         0      27.926  57.589 -25.786  1.00  0.00    -0.307 OA
HETATM    6  C14         0      27.485  57.354 -27.003  1.00  0.00     0.107 C 
HETATM    7  C15         0      27.705  58.242 -28.045  1.00  0.00     0.049 C 
HETATM    8  C16         0      27.029  58.121 -29.253  1.00  0.00     0.093 C 
HETATM    9  C18         0      26.574  56.840 -29.544  1.00  0.00     0.048 C 
HETATM   10  C19         0      26.387  55.911 -28.530  1.00  0.00     0.096 C 
HETATM   11  C21         0      26.668  56.252 -27.236  1.00  0.00     0.084 C 
ENDROOT
BRANCH  10  12
HETATM   12  O20         0      25.545  54.824 -28.750  1.00  0.00    -0.359 OA
HETATM   13  H20         0      25.244  54.334 -27.995  1.00  0.00     0.218 HD
ENDBRANCH  10  12
BRANCH   4  14
HETATM   14  C5          0      27.442  57.676 -23.439  1.00  0.00     0.025 C 
HETATM   15  C6          0      27.180  59.033 -23.313  1.00  0.00     0.004 C 
HETATM   16  C7          0      26.450  59.448 -22.204  1.00  0.00     0.026 C 
HETATM   17  C8          0      26.107  58.567 -21.185  1.00  0.00     0.112 C 
HETATM   18  C10         0      26.924  57.448 -21.087  1.00  0.00     0.112 C 
HETATM   19  C12         0      27.575  57.003 -22.231  1.00  0.00     0.028 C 
BRANCH  17  20
HETATM   20  O9          0      24.922  58.716 -20.487  1.00  0.00    -0.357 OA
HETATM   21  H9          0      24.873  59.016 -19.587  1.00  0.00     0.218 HD
ENDBRANCH  17  20
BRANCH  18  22
HETATM   22  O11         0      26.745  56.635 -19.976  1.00  0.00    -0.357 OA
HETATM   23  H11         0      26.196  56.974 -19.279  1.00  0.00     0.218 HD
ENDBRANCH  18  22
ENDBRANCH   4  14
BRANCH   8  24
HETATM   24  O17         0      26.556  59.244 -29.940  1.00  0.00    -0.359 OA
HETATM   25  H17         0      26.849  59.450 -30.820  1.00  0.00     0.218 HD
ENDBRANCH   8  24
TORSDOF 5
ENDMDL
MODEL 8
REMARK VINA RESULT:      -5.1      3.235      4.475
REMARK  5 active torsions:
REMARK  status: ('A' for Active; 'I' for Inactive)
REMARK    1  A    between atoms: C4_4  and  C5_5 
REMARK    2  A    between atoms: C8_8  and  O9_9 
REMARK    3  A    between atoms: C10_11  and  O11_12 
REMARK    4  A    between atoms: C16_18  and  O17_19 
REMARK    5  A    between atoms: C19_22  and  O20_23 
ROOT
HETATM    1  O1          0      28.076  55.662 -22.552  1.00  0.00    -0.286 OA
HETATM    2  C2          0      27.127  56.363 -22.998  1.00  0.00     0.201 C 
HETATM    3  C3          0      25.798  56.000 -22.862  1.00  0.00     0.067 C 
HETATM    4  C4          0      24.777  56.738 -23.452  1.00  0.00     0.103 C 
HETATM    5  O13         0      25.093  57.820 -24.140  1.00  0.00    -0.307 OA
HETATM    6  C14         0      26.341  58.188 -24.332  1.00  0.00     0.107 C 
HETATM    7  C15         0      26.698  59.056 -25.353  1.00  0.00     0.049 C 
HETATM    8  C16         0      28.029  59.240 -25.711  1.00  0.00     0.093 C 
HETATM    9  C18         0      28.950  58.963 -24.708  1.00  0.00     0.048 C 
HETATM   10  C19         0      28.610  58.136 -23.647  1.00  0.00     0.096 C 
HETATM   11  C21         0      27.352  57.602 -23.578  1.00  0.00     0.084 C 
ENDROOT
BRANCH  10  12
HETATM   12  O20         0      29.620  57.524 -22.911  1.00  0.00    -0.359 OA
HETATM   13  H20         0      29.547  57.530 -21.964  1.00  0.00     0.218 HD
ENDBRANCH  10  12
BRANCH   4  14
HETATM   14  C5          0      23.543  56.025 -23.786  1.00  0.00     0.025 C 
HETATM   15  C6          0      23.191  54.816 -23.203  1.00  0.00     0.004 C 
HETATM   16  C7          0      21.848  54.611 -22.903  1.00  0.00     0.026 C 
HETATM   17  C8          0      20.868  55.518 -23.291  1.00  0.00     0.112 C 
HETATM   18  C10         0      21.214  56.319 -24.372  1.00  0.00     0.112 C 
HETATM   19  C12         0      22.561  56.577 -24.598  1.00  0.00     0.028 C 
BRANCH  17  20
HETATM   20  O9          0      19.744  55.725 -22.511  1.00  0.00    -0.357 OA
HETATM   21  H9          0      19.619  56.487 -21.957  1.00  0.00     0.218 HD
ENDBRANCH  17  20
BRANCH  18  22
HETATM   22  O11         0      20.210  57.105 -24.918  1.00  0.00    -0.357 OA
HETATM   23  H11         0      19.369  57.098 -24.476  1.00  0.00     0.218 HD
ENDBRANCH  18  22
ENDBRANCH   4  14
BRANCH   8  24
HETATM   24  O17         0      28.413  59.360 -27.051  1.00  0.00    -0.359 OA
HETATM   25  H17         0      27.985  58.866 -27.740  1.00  0.00     0.218 HD
ENDBRANCH   8  24
TORSDOF 5
ENDMDL
MODEL 9
REMARK VINA RESULT:      -5.0      5.791      7.978
REMARK  5 active torsions:
REMARK  status: ('A' for Active; 'I' for Inactive)
REMARK    1  A    between atoms: C4_4  and  C5_5 
REMARK    2  A    between atoms: C8_8  and  O9_9 
REMARK    3  A    between atoms: C10_11  and  O11_12 
REMARK    4  A    between atoms: C16_18  and  O17_19 
REMARK    5  A    between atoms: C19_22  and  O20_23 
ROOT
HETATM    1  O1          0      25.123  54.871 -30.129  1.00  0.00    -0.286 OA
HETATM    2  C2          0      25.741  55.949 -29.911  1.00  0.00     0.201 C 
HETATM    3  C3          0      26.522  56.153 -28.786  1.00  0.00     0.067 C 
HETATM    4  C4          0      27.108  57.385 -28.519  1.00  0.00     0.103 C 
HETATM    5  O13         0      26.926  58.373 -29.377  1.00  0.00    -0.307 OA
HETATM    6  C14         0      26.164  58.245 -30.441  1.00  0.00     0.107 C 
HETATM    7  C15         0      25.650  59.346 -31.109  1.00  0.00     0.049 C 
HETATM    8  C16         0      24.651  59.209 -32.065  1.00  0.00     0.093 C 
HETATM    9  C18         0      24.589  57.962 -32.674  1.00  0.00     0.048 C 
HETATM   10  C19         0      25.134  56.846 -32.054  1.00  0.00     0.096 C 
HETATM   11  C21         0      25.753  56.978 -30.841  1.00  0.00     0.084 C 
ENDROOT
BRANCH  10  12
HETATM   12  O20         0      24.701  55.578 -32.431  1.00  0.00    -0.359 OA
HETATM   13  H20         0      24.673  54.901 -31.766  1.00  0.00     0.218 HD
ENDBRANCH  10  12
BRANCH   4  14
HETATM   14  C5          0      27.378  57.709 -27.117  1.00  0.00     0.025 C 
HETATM   15  C6          0      27.927  58.918 -26.717  1.00  0.00     0.004 C 
HETATM   16  C7          0      27.448  59.486 -25.541  1.00  0.00     0.026 C 
HETATM   17  C8          0      26.550  58.813 -24.719  1.00  0.00     0.112 C 
HETATM   18  C10         0      26.562  57.432 -24.856  1.00  0.00     0.112 C 
HETATM   19  C12         0      26.965  56.892 -26.072  1.00  0.00     0.028 C 
BRANCH  17  20
HETATM   20  O9          0      25.594  59.506 -23.997  1.00  0.00    -0.357 OA
HETATM   21  H9          0      25.347  59.289 -23.105  1.00  0.00     0.218 HD
ENDBRANCH  17  20
BRANCH  18  22
HETATM   22  O11         0      25.827  56.702 -23.933  1.00  0.00    -0.357 OA
HETATM   23  H11         0      26.240  55.927 -23.570  1.00  0.00     0.218 HD
ENDBRANCH  18  22
ENDBRANCH   4  14
BRANCH   8  24
HETATM   24  O17         0      23.597  60.125 -32.155  1.00  0.00    -0.359 OA
HETATM   25  H17         0      22.824  59.947 -32.678  1.00  0.00     0.218 HD
ENDBRANCH   8  24
TORSDOF 5
ENDMDL
