MODEL 1
REMARK VINA RESULT:      -2.1      0.000      0.000
REMARK  5 active torsions:
REMARK  status: ('A' for Active; 'I' for Inactive)
REMARK    1  A    between atoms: C4_4  and  C5_5 
REMARK    2  A    between atoms: C8_8  and  O9_9 
REMARK    3  A    between atoms: C10_11  and  O11_12 
REMARK    4  A    between atoms: C16_18  and  O17_19 
REMARK    5  A    between atoms: C19_22  and  O20_23 
ROOT
HETATM    1  O1          0      55.550  49.325 -20.997  1.00  0.00    -0.286 OA
HETATM    2  C2          0      54.354  49.543 -21.333  1.00  0.00     0.201 C 
HETATM    3  C3          0      53.838  50.818 -21.487  1.00  0.00     0.067 C 
HETATM    4  C4          0      52.491  51.031 -21.758  1.00  0.00     0.103 C 
HETATM    5  O13         0      51.696  49.983 -21.890  1.00  0.00    -0.307 OA
HETATM    6  C14         0      52.127  48.753 -21.716  1.00  0.00     0.107 C 
HETATM    7  C15         0      51.258  47.704 -21.457  1.00  0.00     0.049 C 
HETATM    8  C16         0      51.726  46.468 -21.025  1.00  0.00     0.093 C 
HETATM    9  C18         0      53.040  46.184 -21.376  1.00  0.00     0.048 C 
HETATM   10  C19         0      53.925  47.207 -21.687  1.00  0.00     0.096 C 
HETATM   11  C21         0      53.495  48.506 -21.665  1.00  0.00     0.084 C 
ENDROOT
BRANCH  10  12
HETATM   12  O20         0      55.294  46.972 -21.606  1.00  0.00    -0.359 OA
HETATM   13  H20         0      55.776  46.866 -22.417  1.00  0.00     0.218 HD
ENDBRANCH  10  12
BRANCH   4  14
HETATM   14  C5          0      51.913  52.303 -21.321  1.00  0.00     0.025 C 
HETATM   15  C6          0      52.487  53.090 -20.333  1.00  0.00     0.004 C 
HETATM   16  C7          0      52.448  54.470 -20.504  1.00  0.00     0.026 C 
HETATM   17  C8          0      51.745  55.056 -21.552  1.00  0.00     0.112 C 
HETATM   18  C10         0      50.726  54.272 -22.076  1.00  0.00     0.112 C 
HETATM   19  C12         0      50.832  52.890 -21.966  1.00  0.00     0.028 C 
BRANCH  17  20
HETATM   20  O9          0      52.190  56.228 -22.136  1.00  0.00    -0.357 OA
HETATM   21  H9          0      51.671  56.747 -22.740  1.00  0.00     0.218 HD
ENDBRANCH  17  20
BRANCH  18  22
HETATM   22  O11         0      49.875  54.876 -22.991  1.00  0.00    -0.357 OA
HETATM   23  H11         0      49.724  55.809 -22.886  1.00  0.00     0.218 HD
ENDBRANCH  18  22
ENDBRANCH   4  14
BRANCH   8  24
HETATM   24  O17         0      51.051  45.736 -20.042  1.00  0.00    -0.359 OA
HETATM   25  H17         0      51.282  45.804 -19.123  1.00  0.00     0.218 HD
ENDBRANCH   8  24
TORSDOF 5
ENDMDL
MODEL 2
REMARK VINA RESULT:      -2.1      1.369      1.630
REMARK  5 active torsions:
REMARK  status: ('A' for Active; 'I' for Inactive)
REMARK    1  A    between atoms: C4_4  and  C5_5 
REMARK    2  A    between atoms: C8_8  and  O9_9 
REMARK    3  A    between atoms: C10_11  and  O11_12 
REMARK    4  A    between atoms: C16_18  and  O17_19 
REMARK    5  A    between atoms: C19_22  and  O20_23 
ROOT
HETATM    1  O1          0      55.456  50.815 -20.789  1.00  0.00    -0.286 OA
HETATM    2  C2          0      54.433  50.563 -21.483  1.00  0.00     0.201 C 
HETATM    3  C3          0      53.754  51.534 -22.199  1.00  0.00     0.067 C 
HETATM    4  C4          0      52.572  51.249 -22.872  1.00  0.00     0.103 C 
HETATM    5  O13         0      52.103  50.014 -22.838  1.00  0.00    -0.307 OA
HETATM    6  C14         0      52.688  49.064 -22.143  1.00  0.00     0.107 C 
HETATM    7  C15         0      52.016  47.907 -21.775  1.00  0.00     0.049 C 
HETATM    8  C16         0      52.546  47.031 -20.836  1.00  0.00     0.093 C 
HETATM    9  C18         0      53.929  47.077 -20.706  1.00  0.00     0.048 C 
HETATM   10  C19         0      54.638  48.201 -21.107  1.00  0.00     0.096 C 
HETATM   11  C21         0      53.973  49.266 -21.650  1.00  0.00     0.084 C 
ENDROOT
BRANCH  10  12
HETATM   12  O20         0      55.912  48.422 -20.591  1.00  0.00    -0.359 OA
HETATM   13  H20         0      56.295  49.282 -20.705  1.00  0.00     0.218 HD
ENDBRANCH  10  12
BRANCH   4  14
HETATM   14  C5          0      51.632  52.354 -23.072  1.00  0.00     0.025 C 
HETATM   15  C6          0      50.547  52.578 -22.238  1.00  0.00     0.004 C 
HETATM   16  C7          0      50.223  53.899 -21.942  1.00  0.00     0.026 C 
HETATM   17  C8          0      50.870  54.964 -22.558  1.00  0.00     0.112 C 
HETATM   18  C10         0      51.450  54.660 -23.783  1.00  0.00     0.112 C 
HETATM   19  C12         0      51.842  53.348 -24.020  1.00  0.00     0.028 C 
BRANCH  17  20
HETATM   20  O9          0      51.081  56.153 -21.882  1.00  0.00    -0.357 OA
HETATM   21  H9          0      51.915  56.402 -21.501  1.00  0.00     0.218 HD
ENDBRANCH  17  20
BRANCH  18  22
HETATM   22  O11         0      51.941  55.723 -24.527  1.00  0.00    -0.357 OA
HETATM   23  H11         0      51.415  56.514 -24.546  1.00  0.00     0.218 HD
ENDBRANCH  18  22
ENDBRANCH   4  14
BRANCH   8  24
HETATM   24  O17         0      51.737  46.415 -19.875  1.00  0.00    -0.359 OA
HETATM   25  H17         0      51.172  45.682 -20.094  1.00  0.00     0.218 HD
ENDBRANCH   8  24
TORSDOF 5
ENDMDL
MODEL 3
REMARK VINA RESULT:      -2.0      1.889      6.840
REMARK  5 active torsions:
REMARK  status: ('A' for Active; 'I' for Inactive)
REMARK    1  A    between atoms: C4_4  and  C5_5 
REMARK    2  A    between atoms: C8_8  and  O9_9 
REMARK    3  A    between atoms: C10_11  and  O11_12 
REMARK    4  A    between atoms: C16_18  and  O17_19 
REMARK    5  A    between atoms: C19_22  and  O20_23 
ROOT
HETATM    1  O1          0      53.261  50.864 -24.204  1.00  0.00    -0.286 OA
HETATM    2  C2          0      53.482  50.727 -22.969  1.00  0.00     0.201 C 
HETATM    3  C3          0      53.837  49.516 -22.400  1.00  0.00     0.067 C 
HETATM    4  C4          0      53.975  49.370 -21.025  1.00  0.00     0.103 C 
HETATM    5  O13         0      53.781  50.424 -20.252  1.00  0.00    -0.307 OA
HETATM    6  C14         0      53.407  51.587 -20.737  1.00  0.00     0.107 C 
HETATM    7  C15         0      52.824  52.560 -19.938  1.00  0.00     0.049 C 
HETATM    8  C16         0      52.204  53.673 -20.492  1.00  0.00     0.093 C 
HETATM    9  C18         0      52.648  54.022 -21.761  1.00  0.00     0.048 C 
HETATM   10  C19         0      53.278  53.086 -22.570  1.00  0.00     0.096 C 
HETATM   11  C21         0      53.477  51.813 -22.108  1.00  0.00     0.084 C 
ENDROOT
BRANCH  10  12
HETATM   12  O20         0      53.321  53.294 -23.945  1.00  0.00    -0.359 OA
HETATM   13  H20         0      52.558  53.676 -24.362  1.00  0.00     0.218 HD
ENDBRANCH  10  12
BRANCH   4  14
HETATM   14  C5          0      53.748  48.035 -20.467  1.00  0.00     0.025 C 
HETATM   15  C6          0      52.550  47.661 -19.875  1.00  0.00     0.004 C 
HETATM   16  C7          0      52.095  46.367 -20.103  1.00  0.00     0.026 C 
HETATM   17  C8          0      52.867  45.431 -20.784  1.00  0.00     0.112 C 
HETATM   18  C10         0      54.233  45.684 -20.766  1.00  0.00     0.112 C 
HETATM   19  C12         0      54.659  46.999 -20.622  1.00  0.00     0.028 C 
BRANCH  17  20
HETATM   20  O9          0      52.275  44.466 -21.578  1.00  0.00    -0.357 OA
HETATM   21  H9          0      51.387  44.150 -21.452  1.00  0.00     0.218 HD
ENDBRANCH  17  20
BRANCH  18  22
HETATM   22  O11         0      55.062  44.689 -21.264  1.00  0.00    -0.357 OA
HETATM   23  H11         0      54.640  43.922 -21.634  1.00  0.00     0.218 HD
ENDBRANCH  18  22
ENDBRANCH   4  14
BRANCH   8  24
HETATM   24  O17         0      51.011  54.181 -19.964  1.00  0.00    -0.359 OA
HETATM   25  H17         0      50.621  54.982 -20.293  1.00  0.00     0.218 HD
ENDBRANCH   8  24
TORSDOF 5
ENDMDL
MODEL 4
REMARK VINA RESULT:      -2.0      1.992      3.314
REMARK  5 active torsions:
REMARK  status: ('A' for Active; 'I' for Inactive)
REMARK    1  A    between atoms: C4_4  and  C5_5 
REMARK    2  A    between atoms: C8_8  and  O9_9 
REMARK    3  A    between atoms: C10_11  and  O11_12 
REMARK    4  A    between atoms: C16_18  and  O17_19 
REMARK    5  A    between atoms: C19_22  and  O20_23 
ROOT
HETATM    1  O1          0      50.404  48.072 -22.056  1.00  0.00    -0.286 OA
HETATM    2  C2          0      51.468  48.382 -21.453  1.00  0.00     0.201 C 
HETATM    3  C3          0      51.960  49.675 -21.417  1.00  0.00     0.067 C 
HETATM    4  C4          0      53.188  49.971 -20.834  1.00  0.00     0.103 C 
HETATM    5  O13         0      53.884  48.990 -20.287  1.00  0.00    -0.307 OA
HETATM    6  C14         0      53.480  47.740 -20.327  1.00  0.00     0.107 C 
HETATM    7  C15         0      54.355  46.682 -20.127  1.00  0.00     0.049 C 
HETATM    8  C16         0      53.986  45.375 -20.420  1.00  0.00     0.093 C 
HETATM    9  C18         0      52.618  45.131 -20.395  1.00  0.00     0.048 C 
HETATM   10  C19         0      51.713  46.173 -20.545  1.00  0.00     0.096 C 
HETATM   11  C21         0      52.172  47.453 -20.702  1.00  0.00     0.084 C 
ENDROOT
BRANCH  10  12
HETATM   12  O20         0      50.413  45.892 -20.951  1.00  0.00    -0.359 OA
HETATM   13  H20         0      49.894  46.603 -21.307  1.00  0.00     0.218 HD
ENDBRANCH  10  12
BRANCH   4  14
HETATM   14  C5          0      53.901  51.147 -21.336  1.00  0.00     0.025 C 
HETATM   15  C6          0      54.096  51.388 -22.688  1.00  0.00     0.004 C 
HETATM   16  C7          0      54.004  52.705 -23.128  1.00  0.00     0.026 C 
HETATM   17  C8          0      53.858  53.763 -22.238  1.00  0.00     0.112 C 
HETATM   18  C10         0      54.304  53.501 -20.949  1.00  0.00     0.112 C 
HETATM   19  C12         0      54.304  52.184 -20.505  1.00  0.00     0.028 C 
BRANCH  17  20
HETATM   20  O9          0      53.132  54.888 -22.586  1.00  0.00    -0.357 OA
HETATM   21  H9          0      53.292  55.397 -23.373  1.00  0.00     0.218 HD
ENDBRANCH  17  20
BRANCH  18  22
HETATM   22  O11         0      54.357  54.576 -20.072  1.00  0.00    -0.357 OA
HETATM   23  H11         0      54.374  55.444 -20.457  1.00  0.00     0.218 HD
ENDBRANCH  18  22
ENDBRANCH   4  14
BRANCH   8  24
HETATM   24  O17         0      54.882  44.480 -21.017  1.00  0.00    -0.359 OA
HETATM   25  H17         0      54.866  44.307 -21.951  1.00  0.00     0.218 HD
ENDBRANCH   8  24
TORSDOF 5
ENDMDL
MODEL 5
REMARK VINA RESULT:      -2.0      1.968      2.930
REMARK  5 active torsions:
REMARK  status: ('A' for Active; 'I' for Inactive)
REMARK    1  A    between atoms: C4_4  and  C5_5 
REMARK    2  A    between atoms: C8_8  and  O9_9 
REMARK    3  A    between atoms: C10_11  and  O11_12 
REMARK    4  A    between atoms: C16_18  and  O17_19 
REMARK    5  A    between atoms: C19_22  and  O20_23 
ROOT
HETATM    1  O1          0      54.776  51.758 -20.118  1.00  0.00    -0.286 OA
HETATM    2  C2          0      53.868  52.131 -20.911  1.00  0.00     0.201 C 
HETATM    3  C3          0      53.630  53.462 -21.206  1.00  0.00     0.067 C 
HETATM    4  C4          0      52.559  53.852 -22.002  1.00  0.00     0.103 C 
HETATM    5  O13         0      51.766  52.919 -22.501  1.00  0.00    -0.307 OA
HETATM    6  C14         0      51.926  51.644 -22.221  1.00  0.00     0.107 C 
HETATM    7  C15         0      50.902  50.724 -22.396  1.00  0.00     0.049 C 
HETATM    8  C16         0      50.986  49.442 -21.867  1.00  0.00     0.093 C 
HETATM    9  C18         0      52.278  48.979 -21.652  1.00  0.00     0.048 C 
HETATM   10  C19         0      53.334  49.871 -21.520  1.00  0.00     0.096 C 
HETATM   11  C21         0      53.103  51.216 -21.618  1.00  0.00     0.084 C 
ENDROOT
BRANCH  10  12
HETATM   12  O20         0      54.501  49.454 -20.888  1.00  0.00    -0.359 OA
HETATM   13  H20         0      54.565  49.570 -19.948  1.00  0.00     0.218 HD
ENDBRANCH  10  12
BRANCH   4  14
HETATM   14  C5          0      52.018  55.195 -21.786  1.00  0.00     0.025 C 
HETATM   15  C6          0      52.588  56.103 -20.906  1.00  0.00     0.004 C 
HETATM   16  C7          0      52.610  57.441 -21.285  1.00  0.00     0.026 C 
HETATM   17  C8          0      51.969  57.884 -22.437  1.00  0.00     0.112 C 
HETATM   18  C10         0      50.938  57.065 -22.878  1.00  0.00     0.112 C 
HETATM   19  C12         0      50.985  55.714 -22.556  1.00  0.00     0.028 C 
BRANCH  17  20
HETATM   20  O9          0      52.482  58.938 -23.173  1.00  0.00    -0.357 OA
HETATM   21  H9          0      53.387  59.223 -23.126  1.00  0.00     0.218 HD
ENDBRANCH  17  20
BRANCH  18  22
HETATM   22  O11         0      50.146  57.552 -23.907  1.00  0.00    -0.357 OA
HETATM   23  H11         0      49.205  57.477 -23.798  1.00  0.00     0.218 HD
ENDBRANCH  18  22
ENDBRANCH   4  14
BRANCH   8  24
HETATM   24  O17         0      49.875  48.817 -21.289  1.00  0.00    -0.359 OA
HETATM   25  H17         0      49.968  48.076 -20.702  1.00  0.00     0.218 HD
ENDBRANCH   8  24
TORSDOF 5
ENDMDL
MODEL 6
REMARK VINA RESULT:      -1.9      2.415      7.451
REMARK  5 active torsions:
REMARK  status: ('A' for Active; 'I' for Inactive)
REMARK    1  A    between atoms: C4_4  and  C5_5 
REMARK    2  A    between atoms: C8_8  and  O9_9 
REMARK    3  A    between atoms: C10_11  and  O11_12 
REMARK    4  A    between atoms: C16_18  and  O17_19 
REMARK    5  A    between atoms: C19_22  and  O20_23 
ROOT
HETATM    1  O1          0      55.371  48.678 -20.785  1.00  0.00    -0.286 OA
HETATM    2  C2          0      54.213  48.178 -20.757  1.00  0.00     0.201 C 
HETATM    3  C3          0      53.984  46.824 -20.586  1.00  0.00     0.067 C 
HETATM    4  C4          0      52.704  46.286 -20.662  1.00  0.00     0.103 C 
HETATM    5  O13         0      51.686  47.099 -20.882  1.00  0.00    -0.307 OA
HETATM    6  C14         0      51.852  48.388 -21.088  1.00  0.00     0.107 C 
HETATM    7  C15         0      50.878  49.161 -21.703  1.00  0.00     0.049 C 
HETATM    8  C16         0      51.152  50.449 -22.146  1.00  0.00     0.093 C 
HETATM    9  C18         0      52.204  51.082 -21.495  1.00  0.00     0.048 C 
HETATM   10  C19         0      53.172  50.340 -20.831  1.00  0.00     0.096 C 
HETATM   11  C21         0      53.079  48.975 -20.802  1.00  0.00     0.084 C 
ENDROOT
BRANCH  10  12
HETATM   12  O20         0      54.411  50.916 -20.571  1.00  0.00    -0.359 OA
HETATM   13  H20         0      55.087  50.366 -20.193  1.00  0.00     0.218 HD
ENDBRANCH  10  12
BRANCH   4  14
HETATM   14  C5          0      52.589  44.886 -21.072  1.00  0.00     0.025 C 
HETATM   15  C6          0      53.290  43.861 -20.454  1.00  0.00     0.004 C 
HETATM   16  C7          0      52.634  42.646 -20.277  1.00  0.00     0.026 C 
HETATM   17  C8          0      51.373  42.413 -20.816  1.00  0.00     0.112 C 
HETATM   18  C10         0      51.050  43.213 -21.904  1.00  0.00     0.112 C 
HETATM   19  C12         0      51.657  44.459 -22.010  1.00  0.00     0.028 C 
BRANCH  17  20
HETATM   20  O9          0      50.465  41.598 -20.165  1.00  0.00    -0.357 OA
HETATM   21  H9          0      49.548  41.818 -20.046  1.00  0.00     0.218 HD
ENDBRANCH  17  20
BRANCH  18  22
HETATM   22  O11         0      49.889  42.896 -22.594  1.00  0.00    -0.357 OA
HETATM   23  H11         0      49.197  42.473 -22.099  1.00  0.00     0.218 HD
ENDBRANCH  18  22
ENDBRANCH   4  14
BRANCH   8  24
HETATM   24  O17         0      50.643  50.927 -23.359  1.00  0.00    -0.359 OA
HETATM   25  H17         0      51.129  51.541 -23.896  1.00  0.00     0.218 HD
ENDBRANCH   8  24
TORSDOF 5
ENDMDL
MODEL 7
REMARK VINA RESULT:      -1.9      2.455      7.502
REMARK  5 active torsions:
REMARK  status: ('A' for Active; 'I' for Inactive)
REMARK    1  A    between atoms: C4_4  and  C5_5 
REMARK    2  A    between atoms: C8_8  and  O9_9 
REMARK    3  A    between atoms: C10_11  and  O11_12 
REMARK    4  A    between atoms: C16_18  and  O17_19 
REMARK    5  A    between atoms: C19_22  and  O20_23 
ROOT
HETATM    1  O1          0      55.356  48.529 -20.751  1.00  0.00    -0.286 OA
HETATM    2  C2          0      54.184  48.060 -20.733  1.00  0.00     0.201 C 
HETATM    3  C3          0      53.918  46.713 -20.562  1.00  0.00     0.067 C 
HETATM    4  C4          0      52.625  46.209 -20.648  1.00  0.00     0.103 C 
HETATM    5  O13         0      51.631  47.048 -20.878  1.00  0.00    -0.307 OA
HETATM    6  C14         0      51.833  48.331 -21.084  1.00  0.00     0.107 C 
HETATM    7  C15         0      50.885  49.129 -21.708  1.00  0.00     0.049 C 
HETATM    8  C16         0      51.197  50.409 -22.151  1.00  0.00     0.093 C 
HETATM    9  C18         0      52.260  51.015 -21.492  1.00  0.00     0.048 C 
HETATM   10  C19         0      53.201  50.249 -20.818  1.00  0.00     0.096 C 
HETATM   11  C21         0      53.073  48.887 -20.788  1.00  0.00     0.084 C 
ENDROOT
BRANCH  10  12
HETATM   12  O20         0      54.454  50.792 -20.549  1.00  0.00    -0.359 OA
HETATM   13  H20         0      54.670  50.985 -19.645  1.00  0.00     0.218 HD
ENDBRANCH  10  12
BRANCH   4  14
HETATM   14  C5          0      52.477  44.811 -21.057  1.00  0.00     0.025 C 
HETATM   15  C6          0      51.288  44.295 -21.552  1.00  0.00     0.004 C 
HETATM   16  C7          0      51.369  43.371 -22.590  1.00  0.00     0.026 C 
HETATM   17  C8          0      52.591  42.875 -23.031  1.00  0.00     0.112 C 
HETATM   18  C10         0      53.617  42.948 -22.098  1.00  0.00     0.112 C 
HETATM   19  C12         0      53.553  43.936 -21.122  1.00  0.00     0.028 C 
BRANCH  17  20
HETATM   20  O9          0      52.783  42.543 -24.360  1.00  0.00    -0.357 OA
HETATM   21  H9          0      52.881  41.651 -24.673  1.00  0.00     0.218 HD
ENDBRANCH  17  20
BRANCH  18  22
HETATM   22  O11         0      54.802  42.299 -22.415  1.00  0.00    -0.357 OA
HETATM   23  H11         0      54.766  41.654 -23.112  1.00  0.00     0.218 HD
ENDBRANCH  18  22
ENDBRANCH   4  14
BRANCH   8  24
HETATM   24  O17         0      50.711  50.898 -23.369  1.00  0.00    -0.359 OA
HETATM   25  H17         0      51.103  51.649 -23.797  1.00  0.00     0.218 HD
ENDBRANCH   8  24
TORSDOF 5
ENDMDL
MODEL 8
REMARK VINA RESULT:      -1.9      1.662      2.244
REMARK  5 active torsions:
REMARK  status: ('A' for Active; 'I' for Inactive)
REMARK    1  A    between atoms: C4_4  and  C5_5 
REMARK    2  A    between atoms: C8_8  and  O9_9 
REMARK    3  A    between atoms: C10_11  and  O11_12 
REMARK    4  A    between atoms: C16_18  and  O17_19 
REMARK    5  A    between atoms: C19_22  and  O20_23 
ROOT
HETATM    1  O1          0      56.053  49.979 -20.789  1.00  0.00    -0.286 OA
HETATM    2  C2          0      55.084  49.636 -21.520  1.00  0.00     0.201 C 
HETATM    3  C3          0      54.244  50.552 -22.131  1.00  0.00     0.067 C 
HETATM    4  C4          0      53.123  50.148 -22.846  1.00  0.00     0.103 C 
HETATM    5  O13         0      52.872  48.856 -22.957  1.00  0.00    -0.307 OA
HETATM    6  C14         0      53.615  47.946 -22.366  1.00  0.00     0.107 C 
HETATM    7  C15         0      53.152  46.658 -22.140  1.00  0.00     0.049 C 
HETATM    8  C16         0      53.830  45.785 -21.298  1.00  0.00     0.093 C 
HETATM    9  C18         0      55.186  46.050 -21.146  1.00  0.00     0.048 C 
HETATM   10  C19         0      55.691  47.316 -21.409  1.00  0.00     0.096 C 
HETATM   11  C21         0      54.850  48.307 -21.837  1.00  0.00     0.084 C 
ENDROOT
BRANCH  10  12
HETATM   12  O20         0      56.911  47.690 -20.855  1.00  0.00    -0.359 OA
HETATM   13  H20         0      57.246  48.555 -21.059  1.00  0.00     0.218 HD
ENDBRANCH  10  12
BRANCH   4  14
HETATM   14  C5          0      52.007  51.093 -22.932  1.00  0.00     0.025 C 
HETATM   15  C6          0      50.690  50.724 -22.698  1.00  0.00     0.004 C 
HETATM   16  C7          0      49.878  51.630 -22.023  1.00  0.00     0.026 C 
HETATM   17  C8          0      50.318  52.912 -21.710  1.00  0.00     0.112 C 
HETATM   18  C10         0      51.349  53.383 -22.512  1.00  0.00     0.112 C 
HETATM   19  C12         0      52.199  52.457 -23.106  1.00  0.00     0.028 C 
BRANCH  17  20
HETATM   20  O9          0      49.889  53.547 -20.559  1.00  0.00    -0.357 OA
HETATM   21  H9          0      49.153  53.250 -20.035  1.00  0.00     0.218 HD
ENDBRANCH  17  20
BRANCH  18  22
HETATM   22  O11         0      51.697  54.718 -22.368  1.00  0.00    -0.357 OA
HETATM   23  H11         0      51.019  55.309 -22.060  1.00  0.00     0.218 HD
ENDBRANCH  18  22
ENDBRANCH   4  14
BRANCH   8  24
HETATM   24  O17         0      53.144  44.935 -20.423  1.00  0.00    -0.359 OA
HETATM   25  H17         0      53.588  44.485 -19.714  1.00  0.00     0.218 HD
ENDBRANCH   8  24
TORSDOF 5
ENDMDL
MODEL 9
REMARK VINA RESULT:      -1.8      2.489      7.002
REMARK  5 active torsions:
REMARK  status: ('A' for Active; 'I' for Inactive)
REMARK    1  A    between atoms: C4_4  and  C5_5 
REMARK    2  A    between atoms: C8_8  and  O9_9 
REMARK    3  A    between atoms: C10_11  and  O11_12 
REMARK    4  A    between atoms: C16_18  and  O17_19 
REMARK    5  A    between atoms: C19_22  and  O20_23 
ROOT
HETATM    1  O1          0      53.734  53.223 -21.183  1.00  0.00    -0.286 OA
HETATM    2  C2          0      52.516  53.085 -21.479  1.00  0.00     0.201 C 
HETATM    3  C3          0      51.900  51.848 -21.565  1.00  0.00     0.067 C 
HETATM    4  C4          0      50.584  51.717 -21.994  1.00  0.00     0.103 C 
HETATM    5  O13         0      49.907  52.808 -22.304  1.00  0.00    -0.307 OA
HETATM    6  C14         0      50.454  54.003 -22.276  1.00  0.00     0.107 C 
HETATM    7  C15         0      49.905  55.076 -22.963  1.00  0.00     0.049 C 
HETATM    8  C16         0      50.613  56.258 -23.140  1.00  0.00     0.093 C 
HETATM    9  C18         0      51.599  56.500 -22.191  1.00  0.00     0.048 C 
HETATM   10  C19         0      52.138  55.455 -21.452  1.00  0.00     0.096 C 
HETATM   11  C21         0      51.683  54.180 -21.648  1.00  0.00     0.084 C 
ENDROOT
BRANCH  10  12
HETATM   12  O20         0      53.381  55.619 -20.849  1.00  0.00    -0.359 OA
HETATM   13  H20         0      53.486  56.333 -20.232  1.00  0.00     0.218 HD
ENDBRANCH  10  12
BRANCH   4  14
HETATM   14  C5          0      50.208  50.450 -22.623  1.00  0.00     0.025 C 
HETATM   15  C6          0      50.293  50.235 -23.991  1.00  0.00     0.004 C 
HETATM   16  C7          0      50.711  48.980 -24.422  1.00  0.00     0.026 C 
HETATM   17  C8          0      50.909  47.932 -23.530  1.00  0.00     0.112 C 
HETATM   18  C10         0      50.211  48.048 -22.335  1.00  0.00     0.112 C 
HETATM   19  C12         0      49.880  49.320 -21.885  1.00  0.00     0.028 C 
BRANCH  17  20
HETATM   20  O9          0      51.888  46.981 -23.759  1.00  0.00    -0.357 OA
HETATM   21  H9          0      52.816  47.137 -23.628  1.00  0.00     0.218 HD
ENDBRANCH  17  20
BRANCH  18  22
HETATM   22  O11         0      50.222  46.946 -21.492  1.00  0.00    -0.357 OA
HETATM   23  H11         0      51.042  46.474 -21.411  1.00  0.00     0.218 HD
ENDBRANCH  18  22
ENDBRANCH   4  14
BRANCH   8  24
HETATM   24  O17         0      50.567  56.962 -24.349  1.00  0.00    -0.359 OA
HETATM   25  H17         0      51.202  57.637 -24.558  1.00  0.00     0.218 HD
ENDBRANCH   8  24
TORSDOF 5
ENDMDL
