MODEL 1
REMARK VINA RESULT:      -5.3      0.000      0.000
REMARK  5 active torsions:
REMARK  status: ('A' for Active; 'I' for Inactive)
REMARK    1  A    between atoms: C4_4  and  C5_5 
REMARK    2  A    between atoms: C8_8  and  O9_9 
REMARK    3  A    between atoms: C10_11  and  O11_12 
REMARK    4  A    between atoms: C16_18  and  O17_19 
REMARK    5  A    between atoms: C19_22  and  O20_23 
ROOT
HETATM    1  O1          0      34.063  21.858  45.564  1.00  0.00    -0.286 OA
HETATM    2  C2          0      34.622  22.301  46.605  1.00  0.00     0.201 C 
HETATM    3  C3          0      34.118  23.366  47.333  1.00  0.00     0.067 C 
HETATM    4  C4          0      34.807  23.899  48.416  1.00  0.00     0.103 C 
HETATM    5  O13         0      35.960  23.355  48.765  1.00  0.00    -0.307 OA
HETATM    6  C14         0      36.501  22.368  48.086  1.00  0.00     0.107 C 
HETATM    7  C15         0      37.851  22.065  48.186  1.00  0.00     0.049 C 
HETATM    8  C16         0      38.465  21.200  47.289  1.00  0.00     0.093 C 
HETATM    9  C18         0      37.614  20.288  46.677  1.00  0.00     0.048 C 
HETATM   10  C19         0      36.251  20.537  46.600  1.00  0.00     0.096 C 
HETATM   11  C21         0      35.738  21.682  47.147  1.00  0.00     0.084 C 
ENDROOT
BRANCH  10  12
HETATM   12  O20         0      35.491  19.875  45.641  1.00  0.00    -0.359 OA
HETATM   13  H20         0      34.580  20.127  45.542  1.00  0.00     0.218 HD
ENDBRANCH  10  12
BRANCH   4  14
HETATM   14  C5          0      34.566  25.307  48.736  1.00  0.00     0.025 C 
HETATM   15  C6          0      34.846  25.854  49.979  1.00  0.00     0.004 C 
HETATM   16  C7          0      35.364  27.145  50.013  1.00  0.00     0.026 C 
HETATM   17  C8          0      35.474  27.917  48.862  1.00  0.00     0.112 C 
HETATM   18  C10         0      34.616  27.552  47.834  1.00  0.00     0.112 C 
HETATM   19  C12         0      34.180  26.233  47.775  1.00  0.00     0.028 C 
BRANCH  17  20
HETATM   20  O9          0      36.509  28.824  48.713  1.00  0.00    -0.357 OA
HETATM   21  H9          0      36.533  29.672  49.140  1.00  0.00     0.218 HD
ENDBRANCH  17  20
BRANCH  18  22
HETATM   22  O11         0      34.549  28.400  46.739  1.00  0.00    -0.357 OA
HETATM   23  H11         0      35.254  29.031  46.640  1.00  0.00     0.218 HD
ENDBRANCH  18  22
ENDBRANCH   4  14
BRANCH   8  24
HETATM   24  O17         0      39.751  21.451  46.797  1.00  0.00    -0.359 OA
HETATM   25  H17         0      40.238  20.794  46.314  1.00  0.00     0.218 HD
ENDBRANCH   8  24
TORSDOF 5
ENDMDL
MODEL 2
REMARK VINA RESULT:      -5.2     11.147     14.071
REMARK  5 active torsions:
REMARK  status: ('A' for Active; 'I' for Inactive)
REMARK    1  A    between atoms: C4_4  and  C5_5 
REMARK    2  A    between atoms: C8_8  and  O9_9 
REMARK    3  A    between atoms: C10_11  and  O11_12 
REMARK    4  A    between atoms: C16_18  and  O17_19 
REMARK    5  A    between atoms: C19_22  and  O20_23 
ROOT
HETATM    1  O1          0      36.234  36.671  45.229  1.00  0.00    -0.286 OA
HETATM    2  C2          0      36.679  36.418  44.076  1.00  0.00     0.201 C 
HETATM    3  C3          0      36.072  36.880  42.920  1.00  0.00     0.067 C 
HETATM    4  C4          0      36.522  36.502  41.660  1.00  0.00     0.103 C 
HETATM    5  O13         0      37.568  35.699  41.574  1.00  0.00    -0.307 OA
HETATM    6  C14         0      38.158  35.203  42.639  1.00  0.00     0.107 C 
HETATM    7  C15         0      38.969  34.079  42.569  1.00  0.00     0.049 C 
HETATM    8  C16         0      39.379  33.412  43.717  1.00  0.00     0.093 C 
HETATM    9  C18         0      39.400  34.188  44.870  1.00  0.00     0.048 C 
HETATM   10  C19         0      38.637  35.344  44.957  1.00  0.00     0.096 C 
HETATM   11  C21         0      37.870  35.733  43.892  1.00  0.00     0.084 C 
ENDROOT
BRANCH  10  12
HETATM   12  O20         0      38.321  35.859  46.211  1.00  0.00    -0.359 OA
HETATM   13  H20         0      37.675  35.397  46.731  1.00  0.00     0.218 HD
ENDBRANCH  10  12
BRANCH   4  14
HETATM   14  C5          0      35.544  36.505  40.571  1.00  0.00     0.025 C 
HETATM   15  C6          0      34.277  35.953  40.696  1.00  0.00     0.004 C 
HETATM   16  C7          0      33.221  36.618  40.083  1.00  0.00     0.026 C 
HETATM   17  C8          0      33.431  37.719  39.260  1.00  0.00     0.112 C 
HETATM   18  C10         0      34.702  37.793  38.704  1.00  0.00     0.112 C 
HETATM   19  C12         0      35.755  37.191  39.382  1.00  0.00     0.028 C 
BRANCH  17  20
HETATM   20  O9          0      32.504  38.744  39.196  1.00  0.00    -0.357 OA
HETATM   21  H9          0      31.782  38.765  38.578  1.00  0.00     0.218 HD
ENDBRANCH  17  20
BRANCH  18  22
HETATM   22  O11         0      34.907  38.761  37.731  1.00  0.00    -0.357 OA
HETATM   23  H11         0      34.545  39.624  37.900  1.00  0.00     0.218 HD
ENDBRANCH  18  22
ENDBRANCH   4  14
BRANCH   8  24
HETATM   24  O17         0      39.433  32.015  43.769  1.00  0.00    -0.359 OA
HETATM   25  H17         0      38.659  31.480  43.638  1.00  0.00     0.218 HD
ENDBRANCH   8  24
TORSDOF 5
ENDMDL
MODEL 3
REMARK VINA RESULT:      -5.0     12.632     15.006
REMARK  5 active torsions:
REMARK  status: ('A' for Active; 'I' for Inactive)
REMARK    1  A    between atoms: C4_4  and  C5_5 
REMARK    2  A    between atoms: C8_8  and  O9_9 
REMARK    3  A    between atoms: C10_11  and  O11_12 
REMARK    4  A    between atoms: C16_18  and  O17_19 
REMARK    5  A    between atoms: C19_22  and  O20_23 
ROOT
HETATM    1  O1          0      32.492  33.871  40.419  1.00  0.00    -0.286 OA
HETATM    2  C2          0      33.064  34.995  40.444  1.00  0.00     0.201 C 
HETATM    3  C3          0      34.404  35.149  40.760  1.00  0.00     0.067 C 
HETATM    4  C4          0      34.984  36.406  40.880  1.00  0.00     0.103 C 
HETATM    5  O13         0      34.236  37.474  40.666  1.00  0.00    -0.307 OA
HETATM    6  C14         0      32.951  37.385  40.400  1.00  0.00     0.107 C 
HETATM    7  C15         0      32.093  38.462  40.569  1.00  0.00     0.049 C 
HETATM    8  C16         0      30.713  38.299  40.534  1.00  0.00     0.093 C 
HETATM    9  C18         0      30.272  37.191  39.821  1.00  0.00     0.048 C 
HETATM   10  C19         0      31.118  36.115  39.594  1.00  0.00     0.096 C 
HETATM   11  C21         0      32.404  36.152  40.060  1.00  0.00     0.084 C 
ENDROOT
BRANCH  10  12
HETATM   12  O20         0      30.572  34.873  39.285  1.00  0.00    -0.359 OA
HETATM   13  H20         0      30.956  34.383  38.568  1.00  0.00     0.218 HD
ENDBRANCH  10  12
BRANCH   4  14
HETATM   14  C5          0      36.146  36.526  41.763  1.00  0.00     0.025 C 
HETATM   15  C6          0      36.251  37.505  42.739  1.00  0.00     0.004 C 
HETATM   16  C7          0      36.834  37.148  43.951  1.00  0.00     0.026 C 
HETATM   17  C8          0      37.415  35.899  44.140  1.00  0.00     0.112 C 
HETATM   18  C10         0      37.819  35.264  42.973  1.00  0.00     0.112 C 
HETATM   19  C12         0      37.161  35.578  41.789  1.00  0.00     0.028 C 
BRANCH  17  20
HETATM   20  O9          0      37.382  35.281  45.378  1.00  0.00    -0.357 OA
HETATM   21  H9          0      37.090  34.387  45.514  1.00  0.00     0.218 HD
ENDBRANCH  17  20
BRANCH  18  22
HETATM   22  O11         0      38.571  34.107  43.114  1.00  0.00    -0.357 OA
HETATM   23  H11         0      38.168  33.387  43.585  1.00  0.00     0.218 HD
ENDBRANCH  18  22
ENDBRANCH   4  14
BRANCH   8  24
HETATM   24  O17         0      29.875  38.988  41.417  1.00  0.00    -0.359 OA
HETATM   25  H17         0      30.125  39.148  42.320  1.00  0.00     0.218 HD
ENDBRANCH   8  24
TORSDOF 5
ENDMDL
MODEL 4
REMARK VINA RESULT:      -5.0     11.240     13.223
REMARK  5 active torsions:
REMARK  status: ('A' for Active; 'I' for Inactive)
REMARK    1  A    between atoms: C4_4  and  C5_5 
REMARK    2  A    between atoms: C8_8  and  O9_9 
REMARK    3  A    between atoms: C10_11  and  O11_12 
REMARK    4  A    between atoms: C16_18  and  O17_19 
REMARK    5  A    between atoms: C19_22  and  O20_23 
ROOT
HETATM    1  O1          0      36.964  36.469  46.150  1.00  0.00    -0.286 OA
HETATM    2  C2          0      36.978  36.291  44.901  1.00  0.00     0.201 C 
HETATM    3  C3          0      36.004  36.801  44.060  1.00  0.00     0.067 C 
HETATM    4  C4          0      35.986  36.504  42.702  1.00  0.00     0.103 C 
HETATM    5  O13         0      36.938  35.732  42.208  1.00  0.00    -0.307 OA
HETATM    6  C14         0      37.865  35.192  42.969  1.00  0.00     0.107 C 
HETATM    7  C15         0      38.603  34.093  42.554  1.00  0.00     0.049 C 
HETATM    8  C16         0      39.391  33.374  43.444  1.00  0.00     0.093 C 
HETATM    9  C18         0      39.812  34.086  44.561  1.00  0.00     0.048 C 
HETATM   10  C19         0      39.124  35.217  44.978  1.00  0.00     0.096 C 
HETATM   11  C21         0      38.032  35.646  44.273  1.00  0.00     0.084 C 
ENDROOT
BRANCH  10  12
HETATM   12  O20         0      39.265  35.654  46.291  1.00  0.00    -0.359 OA
HETATM   13  H20         0      39.549  35.024  46.942  1.00  0.00     0.218 HD
ENDBRANCH  10  12
BRANCH   4  14
HETATM   14  C5          0      34.688  36.543  42.025  1.00  0.00     0.025 C 
HETATM   15  C6          0      34.559  36.737  40.657  1.00  0.00     0.004 C 
HETATM   16  C7          0      33.570  36.017  39.994  1.00  0.00     0.026 C 
HETATM   17  C8          0      32.653  35.232  40.684  1.00  0.00     0.112 C 
HETATM   18  C10         0      32.462  35.594  42.011  1.00  0.00     0.112 C 
HETATM   19  C12         0      33.499  36.238  42.676  1.00  0.00     0.028 C 
BRANCH  17  20
HETATM   20  O9          0      32.154  34.069  40.126  1.00  0.00    -0.357 OA
HETATM   21  H9          0      31.284  33.993  39.752  1.00  0.00     0.218 HD
ENDBRANCH  17  20
BRANCH  18  22
HETATM   22  O11         0      31.425  34.970  42.690  1.00  0.00    -0.357 OA
HETATM   23  H11         0      31.073  35.424  43.447  1.00  0.00     0.218 HD
ENDBRANCH  18  22
ENDBRANCH   4  14
BRANCH   8  24
HETATM   24  O17         0      39.464  31.978  43.391  1.00  0.00    -0.359 OA
HETATM   25  H17         0      39.083  31.486  42.673  1.00  0.00     0.218 HD
ENDBRANCH   8  24
TORSDOF 5
ENDMDL
MODEL 5
REMARK VINA RESULT:      -5.0      2.635      5.698
REMARK  5 active torsions:
REMARK  status: ('A' for Active; 'I' for Inactive)
REMARK    1  A    between atoms: C4_4  and  C5_5 
REMARK    2  A    between atoms: C8_8  and  O9_9 
REMARK    3  A    between atoms: C10_11  and  O11_12 
REMARK    4  A    between atoms: C16_18  and  O17_19 
REMARK    5  A    between atoms: C19_22  and  O20_23 
ROOT
HETATM    1  O1          0      40.481  23.630  46.781  1.00  0.00    -0.286 OA
HETATM    2  C2          0      39.550  23.822  47.610  1.00  0.00     0.201 C 
HETATM    3  C3          0      38.531  22.907  47.819  1.00  0.00     0.067 C 
HETATM    4  C4          0      37.462  23.187  48.662  1.00  0.00     0.103 C 
HETATM    5  O13         0      37.437  24.349  49.291  1.00  0.00    -0.307 OA
HETATM    6  C14         0      38.359  25.268  49.099  1.00  0.00     0.107 C 
HETATM    7  C15         0      38.142  26.599  49.423  1.00  0.00     0.049 C 
HETATM    8  C16         0      39.007  27.597  48.990  1.00  0.00     0.093 C 
HETATM    9  C18         0      40.301  27.173  48.713  1.00  0.00     0.048 C 
HETATM   10  C19         0      40.561  25.838  48.431  1.00  0.00     0.096 C 
HETATM   11  C21         0      39.537  24.930  48.442  1.00  0.00     0.084 C 
ENDROOT
BRANCH  10  12
HETATM   12  O20         0      41.724  25.502  47.745  1.00  0.00    -0.359 OA
HETATM   13  H20         0      42.502  26.020  47.908  1.00  0.00     0.218 HD
ENDBRANCH  10  12
BRANCH   4  14
HETATM   14  C5          0      36.195  22.509  48.385  1.00  0.00     0.025 C 
HETATM   15  C6          0      35.153  22.458  49.300  1.00  0.00     0.004 C 
HETATM   16  C7          0      33.857  22.569  48.808  1.00  0.00     0.026 C 
HETATM   17  C8          0      33.595  22.595  47.442  1.00  0.00     0.112 C 
HETATM   18  C10         0      34.579  22.017  46.652  1.00  0.00     0.112 C 
HETATM   19  C12         0      35.883  21.995  47.132  1.00  0.00     0.028 C 
BRANCH  17  20
HETATM   20  O9          0      32.538  23.331  46.937  1.00  0.00    -0.357 OA
HETATM   21  H9          0      31.857  22.966  46.384  1.00  0.00     0.218 HD
ENDBRANCH  17  20
BRANCH  18  22
HETATM   22  O11         0      34.285  21.846  45.307  1.00  0.00    -0.357 OA
HETATM   23  H11         0      33.380  21.659  45.085  1.00  0.00     0.218 HD
ENDBRANCH  18  22
ENDBRANCH   4  14
BRANCH   8  24
HETATM   24  O17         0      38.529  28.836  48.549  1.00  0.00    -0.359 OA
HETATM   25  H17         0      38.521  29.069  47.628  1.00  0.00     0.218 HD
ENDBRANCH   8  24
TORSDOF 5
ENDMDL
MODEL 6
REMARK VINA RESULT:      -4.9     13.205     15.343
REMARK  5 active torsions:
REMARK  status: ('A' for Active; 'I' for Inactive)
REMARK    1  A    between atoms: C4_4  and  C5_5 
REMARK    2  A    between atoms: C8_8  and  O9_9 
REMARK    3  A    between atoms: C10_11  and  O11_12 
REMARK    4  A    between atoms: C16_18  and  O17_19 
REMARK    5  A    between atoms: C19_22  and  O20_23 
ROOT
HETATM    1  O1          0      35.107  38.153  38.501  1.00  0.00    -0.286 OA
HETATM    2  C2          0      34.671  37.734  39.608  1.00  0.00     0.201 C 
HETATM    3  C3          0      35.488  37.530  40.707  1.00  0.00     0.067 C 
HETATM    4  C4          0      35.001  36.970  41.883  1.00  0.00     0.103 C 
HETATM    5  O13         0      33.722  36.647  41.950  1.00  0.00    -0.307 OA
HETATM    6  C14         0      32.911  36.785  40.923  1.00  0.00     0.107 C 
HETATM    7  C15         0      31.708  36.099  40.845  1.00  0.00     0.049 C 
HETATM    8  C16         0      30.982  36.048  39.661  1.00  0.00     0.093 C 
HETATM    9  C18         0      31.218  37.098  38.782  1.00  0.00     0.048 C 
HETATM   10  C19         0      32.391  37.836  38.863  1.00  0.00     0.096 C 
HETATM   11  C21         0      33.316  37.537  39.826  1.00  0.00     0.084 C 
ENDROOT
BRANCH  10  12
HETATM   12  O20         0      32.815  38.564  37.755  1.00  0.00    -0.359 OA
HETATM   13  H20         0      33.576  38.251  37.281  1.00  0.00     0.218 HD
ENDBRANCH  10  12
BRANCH   4  14
HETATM   14  C5          0      35.956  36.248  42.726  1.00  0.00     0.025 C 
HETATM   15  C6          0      36.744  35.210  42.250  1.00  0.00     0.004 C 
HETATM   16  C7          0      38.051  35.126  42.720  1.00  0.00     0.026 C 
HETATM   17  C8          0      38.519  35.962  43.728  1.00  0.00     0.112 C 
HETATM   18  C10         0      37.531  36.493  44.546  1.00  0.00     0.112 C 
HETATM   19  C12         0      36.252  36.645  44.023  1.00  0.00     0.028 C 
BRANCH  17  20
HETATM   20  O9          0      39.839  36.376  43.750  1.00  0.00    -0.357 OA
HETATM   21  H9          0      40.248  36.798  44.497  1.00  0.00     0.218 HD
ENDBRANCH  17  20
BRANCH  18  22
HETATM   22  O11         0      37.952  37.178  45.677  1.00  0.00    -0.357 OA
HETATM   23  H11         0      38.642  36.774  46.192  1.00  0.00     0.218 HD
ENDBRANCH  18  22
ENDBRANCH   4  14
BRANCH   8  24
HETATM   24  O17         0      30.339  34.875  39.250  1.00  0.00    -0.359 OA
HETATM   25  H17         0      29.806  34.847  38.464  1.00  0.00     0.218 HD
ENDBRANCH   8  24
TORSDOF 5
ENDMDL
MODEL 7
REMARK VINA RESULT:      -4.8     13.112     14.600
REMARK  5 active torsions:
REMARK  status: ('A' for Active; 'I' for Inactive)
REMARK    1  A    between atoms: C4_4  and  C5_5 
REMARK    2  A    between atoms: C8_8  and  O9_9 
REMARK    3  A    between atoms: C10_11  and  O11_12 
REMARK    4  A    between atoms: C16_18  and  O17_19 
REMARK    5  A    between atoms: C19_22  and  O20_23 
ROOT
HETATM    1  O1          0      37.541  36.123  40.834  1.00  0.00    -0.286 OA
HETATM    2  C2          0      36.515  36.041  41.564  1.00  0.00     0.201 C 
HETATM    3  C3          0      35.229  36.025  41.052  1.00  0.00     0.067 C 
HETATM    4  C4          0      34.114  36.038  41.882  1.00  0.00     0.103 C 
HETATM    5  O13         0      34.297  36.046  43.191  1.00  0.00    -0.307 OA
HETATM    6  C14         0      35.496  36.100  43.729  1.00  0.00     0.107 C 
HETATM    7  C15         0      35.691  36.507  45.041  1.00  0.00     0.049 C 
HETATM    8  C16         0      36.960  36.805  45.523  1.00  0.00     0.093 C 
HETATM    9  C18         0      38.005  36.189  44.846  1.00  0.00     0.048 C 
HETATM   10  C19         0      37.831  35.728  43.548  1.00  0.00     0.096 C 
HETATM   11  C21         0      36.615  35.867  42.936  1.00  0.00     0.084 C 
ENDROOT
BRANCH  10  12
HETATM   12  O20         0      38.947  35.524  42.743  1.00  0.00    -0.359 OA
HETATM   13  H20         0      39.761  35.941  42.997  1.00  0.00     0.218 HD
ENDBRANCH  10  12
BRANCH   4  14
HETATM   14  C5          0      32.882  36.612  41.339  1.00  0.00     0.025 C 
HETATM   15  C6          0      32.757  37.956  41.016  1.00  0.00     0.004 C 
HETATM   16  C7          0      32.027  38.279  39.876  1.00  0.00     0.026 C 
HETATM   17  C8          0      31.332  37.313  39.157  1.00  0.00     0.112 C 
HETATM   18  C10         0      30.999  36.177  39.883  1.00  0.00     0.112 C 
HETATM   19  C12         0      31.797  35.829  40.967  1.00  0.00     0.028 C 
BRANCH  17  20
HETATM   20  O9          0      31.190  37.417  37.785  1.00  0.00    -0.357 OA
HETATM   21  H9          0      30.795  38.164  37.349  1.00  0.00     0.218 HD
ENDBRANCH  17  20
BRANCH  18  22
HETATM   22  O11         0      30.146  35.269  39.273  1.00  0.00    -0.357 OA
HETATM   23  H11         0      30.167  35.230  38.324  1.00  0.00     0.218 HD
ENDBRANCH  18  22
ENDBRANCH   4  14
BRANCH   8  24
HETATM   24  O17         0      37.177  37.888  46.383  1.00  0.00    -0.359 OA
HETATM   25  H17         0      36.711  38.709  46.279  1.00  0.00     0.218 HD
ENDBRANCH   8  24
TORSDOF 5
ENDMDL
MODEL 8
REMARK VINA RESULT:      -4.7     11.403     14.287
REMARK  5 active torsions:
REMARK  status: ('A' for Active; 'I' for Inactive)
REMARK    1  A    between atoms: C4_4  and  C5_5 
REMARK    2  A    between atoms: C8_8  and  O9_9 
REMARK    3  A    between atoms: C10_11  and  O11_12 
REMARK    4  A    between atoms: C16_18  and  O17_19 
REMARK    5  A    between atoms: C19_22  and  O20_23 
ROOT
HETATM    1  O1          0      35.952  38.436  39.644  1.00  0.00    -0.286 OA
HETATM    2  C2          0      35.820  37.668  40.636  1.00  0.00     0.201 C 
HETATM    3  C3          0      36.821  37.471  41.571  1.00  0.00     0.067 C 
HETATM    4  C4          0      36.688  36.541  42.597  1.00  0.00     0.103 C 
HETATM    5  O13         0      35.566  35.849  42.684  1.00  0.00    -0.307 OA
HETATM    6  C14         0      34.599  35.971  41.801  1.00  0.00     0.107 C 
HETATM    7  C15         0      33.623  34.997  41.647  1.00  0.00     0.049 C 
HETATM    8  C16         0      32.763  35.003  40.555  1.00  0.00     0.093 C 
HETATM    9  C18         0      32.573  36.247  39.965  1.00  0.00     0.048 C 
HETATM   10  C19         0      33.507  37.259  40.136  1.00  0.00     0.096 C 
HETATM   11  C21         0      34.616  37.037  40.908  1.00  0.00     0.084 C 
ENDROOT
BRANCH  10  12
HETATM   12  O20         0      33.547  38.310  39.226  1.00  0.00    -0.359 OA
HETATM   13  H20         0      32.847  38.952  39.255  1.00  0.00     0.218 HD
ENDBRANCH  10  12
BRANCH   4  14
HETATM   14  C5          0      37.918  35.961  43.139  1.00  0.00     0.025 C 
HETATM   15  C6          0      38.595  36.509  44.219  1.00  0.00     0.004 C 
HETATM   16  C7          0      39.160  35.630  45.138  1.00  0.00     0.026 C 
HETATM   17  C8          0      39.171  34.257  44.923  1.00  0.00     0.112 C 
HETATM   18  C10         0      39.061  33.878  43.591  1.00  0.00     0.112 C 
HETATM   19  C12         0      38.416  34.738  42.711  1.00  0.00     0.028 C 
BRANCH  17  20
HETATM   20  O9          0      39.082  33.372  45.983  1.00  0.00    -0.357 OA
HETATM   21  H9          0      38.432  33.438  46.673  1.00  0.00     0.218 HD
ENDBRANCH  17  20
BRANCH  18  22
HETATM   22  O11         0      39.255  32.534  43.302  1.00  0.00    -0.357 OA
HETATM   23  H11         0      39.738  32.330  42.509  1.00  0.00     0.218 HD
ENDBRANCH  18  22
ENDBRANCH   4  14
BRANCH   8  24
HETATM   24  O17         0      32.397  33.818  39.908  1.00  0.00    -0.359 OA
HETATM   25  H17         0      32.342  32.992  40.373  1.00  0.00     0.218 HD
ENDBRANCH   8  24
TORSDOF 5
ENDMDL
MODEL 9
REMARK VINA RESULT:      -4.7      2.504      6.258
REMARK  5 active torsions:
REMARK  status: ('A' for Active; 'I' for Inactive)
REMARK    1  A    between atoms: C4_4  and  C5_5 
REMARK    2  A    between atoms: C8_8  and  O9_9 
REMARK    3  A    between atoms: C10_11  and  O11_12 
REMARK    4  A    between atoms: C16_18  and  O17_19 
REMARK    5  A    between atoms: C19_22  and  O20_23 
ROOT
HETATM    1  O1          0      40.800  24.241  46.970  1.00  0.00    -0.286 OA
HETATM    2  C2          0      39.734  24.001  47.601  1.00  0.00     0.201 C 
HETATM    3  C3          0      39.083  22.781  47.537  1.00  0.00     0.067 C 
HETATM    4  C4          0      37.856  22.577  48.160  1.00  0.00     0.103 C 
HETATM    5  O13         0      37.318  23.572  48.843  1.00  0.00    -0.307 OA
HETATM    6  C14         0      37.876  24.761  48.904  1.00  0.00     0.107 C 
HETATM    7  C15         0      37.153  25.890  49.261  1.00  0.00     0.049 C 
HETATM    8  C16         0      37.673  27.166  49.079  1.00  0.00     0.093 C 
HETATM    9  C18         0      39.060  27.236  49.047  1.00  0.00     0.048 C 
HETATM   10  C19         0      39.816  26.113  48.739  1.00  0.00     0.096 C 
HETATM   11  C21         0      39.191  24.924  48.482  1.00  0.00     0.084 C 
ENDROOT
BRANCH  10  12
HETATM   12  O20         0      41.122  26.276  48.287  1.00  0.00    -0.359 OA
HETATM   13  H20         0      41.274  26.254  47.350  1.00  0.00     0.218 HD
ENDBRANCH  10  12
BRANCH   4  14
HETATM   14  C5          0      36.976  21.558  47.586  1.00  0.00     0.025 C 
HETATM   15  C6          0      36.684  20.366  48.232  1.00  0.00     0.004 C 
HETATM   16  C7          0      35.387  19.875  48.126  1.00  0.00     0.026 C 
HETATM   17  C8          0      34.446  20.476  47.296  1.00  0.00     0.112 C 
HETATM   18  C10         0      34.982  21.222  46.256  1.00  0.00     0.112 C 
HETATM   19  C12         0      36.248  21.773  46.423  1.00  0.00     0.028 C 
BRANCH  17  20
HETATM   20  O9          0      33.104  20.483  47.635  1.00  0.00    -0.357 OA
HETATM   21  H9          0      32.771  20.200  48.479  1.00  0.00     0.218 HD
ENDBRANCH  17  20
BRANCH  18  22
HETATM   22  O11         0      34.097  21.685  45.292  1.00  0.00    -0.357 OA
HETATM   23  H11         0      33.509  21.045  44.907  1.00  0.00     0.218 HD
ENDBRANCH  18  22
ENDBRANCH   4  14
BRANCH   8  24
HETATM   24  O17         0      36.872  28.222  48.629  1.00  0.00    -0.359 OA
HETATM   25  H17         0      37.245  29.057  48.371  1.00  0.00     0.218 HD
ENDBRANCH   8  24
TORSDOF 5
ENDMDL
