MODEL 1
REMARK VINA RESULT:      -0.0      0.000      0.000
REMARK  5 active torsions:
REMARK  status: ('A' for Active; 'I' for Inactive)
REMARK    1  A    between atoms: C4_4  and  C5_5 
REMARK    2  A    between atoms: C8_8  and  O9_9 
REMARK    3  A    between atoms: C10_11  and  O11_12 
REMARK    4  A    between atoms: C16_18  and  O17_19 
REMARK    5  A    between atoms: C19_22  and  O20_23 
ROOT
HETATM    1  O1          0      57.020 111.210 -32.583  1.00  0.00    -0.286 OA
HETATM    2  C2          0      56.125 111.386 -31.712  1.00  0.00     0.201 C 
HETATM    3  C3          0      54.822 110.944 -31.874  1.00  0.00     0.067 C 
HETATM    4  C4          0      53.831 111.241 -30.945  1.00  0.00     0.103 C 
HETATM    5  O13         0      54.155 111.945 -29.875  1.00  0.00    -0.307 OA
HETATM    6  C14         0      55.367 112.420 -29.691  1.00  0.00     0.107 C 
HETATM    7  C15         0      55.617 113.465 -28.813  1.00  0.00     0.049 C 
HETATM    8  C16         0      56.838 114.128 -28.810  1.00  0.00     0.093 C 
HETATM    9  C18         0      57.908 113.390 -29.302  1.00  0.00     0.048 C 
HETATM   10  C19         0      57.691 112.309 -30.145  1.00  0.00     0.096 C 
HETATM   11  C21         0      56.413 111.957 -30.482  1.00  0.00     0.084 C 
ENDROOT
BRANCH  10  12
HETATM   12  O20         0      58.727 111.864 -30.961  1.00  0.00    -0.359 OA
HETATM   13  H20         0      58.514 111.263 -31.664  1.00  0.00     0.218 HD
ENDBRANCH  10  12
BRANCH   4  14
HETATM   14  C5          0      52.451 111.291 -31.432  1.00  0.00     0.025 C 
HETATM   15  C6          0      51.468 112.060 -30.826  1.00  0.00     0.004 C 
HETATM   16  C7          0      50.548 112.697 -31.652  1.00  0.00     0.026 C 
HETATM   17  C8          0      50.521 112.471 -33.024  1.00  0.00     0.112 C 
HETATM   18  C10         0      51.079 111.265 -33.424  1.00  0.00     0.112 C 
HETATM   19  C12         0      52.059 110.692 -32.622  1.00  0.00     0.028 C 
BRANCH  17  20
HETATM   20  O9          0      50.157 113.477 -33.901  1.00  0.00    -0.357 OA
HETATM   21  H9          0      50.777 114.067 -34.315  1.00  0.00     0.218 HD
ENDBRANCH  17  20
BRANCH  18  22
HETATM   22  O11         0      50.911 110.904 -34.754  1.00  0.00    -0.357 OA
HETATM   23  H11         0      51.655 110.505 -35.189  1.00  0.00     0.218 HD
ENDBRANCH  18  22
ENDBRANCH   4  14
BRANCH   8  24
HETATM   24  O17         0      56.914 115.516 -28.649  1.00  0.00    -0.359 OA
HETATM   25  H17         0      56.194 116.016 -28.282  1.00  0.00     0.218 HD
ENDBRANCH   8  24
TORSDOF 5
ENDMDL
MODEL 2
REMARK VINA RESULT:      -0.0      5.238      9.316
REMARK  5 active torsions:
REMARK  status: ('A' for Active; 'I' for Inactive)
REMARK    1  A    between atoms: C4_4  and  C5_5 
REMARK    2  A    between atoms: C8_8  and  O9_9 
REMARK    3  A    between atoms: C10_11  and  O11_12 
REMARK    4  A    between atoms: C16_18  and  O17_19 
REMARK    5  A    between atoms: C19_22  and  O20_23 
ROOT
HETATM    1  O1          0      59.186 117.098 -28.018  1.00  0.00    -0.286 OA
HETATM    2  C2          0      58.217 116.925 -27.229  1.00  0.00     0.201 C 
HETATM    3  C3          0      58.378 116.810 -25.858  1.00  0.00     0.067 C 
HETATM    4  C4          0      57.306 116.517 -25.022  1.00  0.00     0.103 C 
HETATM    5  O13         0      56.107 116.368 -25.555  1.00  0.00    -0.307 OA
HETATM    6  C14         0      55.906 116.430 -26.853  1.00  0.00     0.107 C 
HETATM    7  C15         0      54.772 115.892 -27.444  1.00  0.00     0.049 C 
HETATM    8  C16         0      54.683 115.732 -28.822  1.00  0.00     0.093 C 
HETATM    9  C18         0      55.491 116.585 -29.565  1.00  0.00     0.048 C 
HETATM   10  C19         0      56.607 117.178 -28.991  1.00  0.00     0.096 C 
HETATM   11  C21         0      56.906 116.934 -27.679  1.00  0.00     0.084 C 
ENDROOT
BRANCH  10  12
HETATM   12  O20         0      57.623 117.653 -29.814  1.00  0.00    -0.359 OA
HETATM   13  H20         0      58.126 118.401 -29.514  1.00  0.00     0.218 HD
ENDBRANCH  10  12
BRANCH   4  14
HETATM   14  C5          0      57.607 115.835 -23.762  1.00  0.00     0.025 C 
HETATM   15  C6          0      56.691 115.023 -23.109  1.00  0.00     0.004 C 
HETATM   16  C7          0      57.174 113.871 -22.495  1.00  0.00     0.026 C 
HETATM   17  C8          0      58.536 113.603 -22.416  1.00  0.00     0.112 C 
HETATM   18  C10         0      59.354 114.721 -22.512  1.00  0.00     0.112 C 
HETATM   19  C12         0      58.879 115.829 -23.204  1.00  0.00     0.028 C 
BRANCH  17  20
HETATM   20  O9          0      59.005 112.302 -22.455  1.00  0.00    -0.357 OA
HETATM   21  H9          0      59.743 111.991 -21.943  1.00  0.00     0.218 HD
ENDBRANCH  17  20
BRANCH  18  22
HETATM   22  O11         0      60.704 114.536 -22.251  1.00  0.00    -0.357 OA
HETATM   23  H11         0      61.237 115.318 -22.167  1.00  0.00     0.218 HD
ENDBRANCH  18  22
ENDBRANCH   4  14
BRANCH   8  24
HETATM   24  O17         0      54.098 114.594 -29.388  1.00  0.00    -0.359 OA
HETATM   25  H17         0      53.591 113.982 -28.867  1.00  0.00     0.218 HD
ENDBRANCH   8  24
TORSDOF 5
ENDMDL
MODEL 3
REMARK VINA RESULT:      -0.0      8.614      9.535
REMARK  5 active torsions:
REMARK  status: ('A' for Active; 'I' for Inactive)
REMARK    1  A    between atoms: C4_4  and  C5_5 
REMARK    2  A    between atoms: C8_8  and  O9_9 
REMARK    3  A    between atoms: C10_11  and  O11_12 
REMARK    4  A    between atoms: C16_18  and  O17_19 
REMARK    5  A    between atoms: C19_22  and  O20_23 
ROOT
HETATM    1  O1          0      59.905 118.166 -26.738  1.00  0.00    -0.286 OA
HETATM    2  C2          0      58.885 118.903 -26.828  1.00  0.00     0.201 C 
HETATM    3  C3          0      57.955 119.026 -25.810  1.00  0.00     0.067 C 
HETATM    4  C4          0      56.789 119.764 -25.974  1.00  0.00     0.103 C 
HETATM    5  O13         0      56.581 120.376 -27.126  1.00  0.00    -0.307 OA
HETATM    6  C14         0      57.413 120.262 -28.138  1.00  0.00     0.107 C 
HETATM    7  C15         0      57.026 120.551 -29.439  1.00  0.00     0.049 C 
HETATM    8  C16         0      57.816 120.189 -30.524  1.00  0.00     0.093 C 
HETATM    9  C18         0      59.168 120.037 -30.241  1.00  0.00     0.048 C 
HETATM   10  C19         0      59.594 119.794 -28.942  1.00  0.00     0.096 C 
HETATM   11  C21         0      58.677 119.719 -27.929  1.00  0.00     0.084 C 
ENDROOT
BRANCH  10  12
HETATM   12  O20         0      60.845 119.222 -28.732  1.00  0.00    -0.359 OA
HETATM   13  H20         0      61.551 119.467 -29.318  1.00  0.00     0.218 HD
ENDBRANCH  10  12
BRANCH   4  14
HETATM   14  C5          0      55.633 119.378 -25.162  1.00  0.00     0.025 C 
HETATM   15  C6          0      54.324 119.613 -25.559  1.00  0.00     0.004 C 
HETATM   16  C7          0      53.378 118.634 -25.272  1.00  0.00     0.026 C 
HETATM   17  C8          0      53.692 117.520 -24.500  1.00  0.00     0.112 C 
HETATM   18  C10         0      54.780 117.689 -23.654  1.00  0.00     0.112 C 
HETATM   19  C12         0      55.754 118.615 -24.008  1.00  0.00     0.028 C 
BRANCH  17  20
HETATM   20  O9          0      53.086 116.299 -24.737  1.00  0.00    -0.357 OA
HETATM   21  H9          0      52.542 115.848 -24.102  1.00  0.00     0.218 HD
ENDBRANCH  17  20
BRANCH  18  22
HETATM   22  O11         0      55.020 116.683 -22.730  1.00  0.00    -0.357 OA
HETATM   23  H11         0      55.664 116.863 -22.055  1.00  0.00     0.218 HD
ENDBRANCH  18  22
ENDBRANCH   4  14
BRANCH   8  24
HETATM   24  O17         0      57.251 119.693 -31.704  1.00  0.00    -0.359 OA
HETATM   25  H17         0      56.318 119.749 -31.872  1.00  0.00     0.218 HD
ENDBRANCH   8  24
TORSDOF 5
ENDMDL
MODEL 4
REMARK VINA RESULT:      -0.0      9.927     11.593
REMARK  5 active torsions:
REMARK  status: ('A' for Active; 'I' for Inactive)
REMARK    1  A    between atoms: C4_4  and  C5_5 
REMARK    2  A    between atoms: C8_8  and  O9_9 
REMARK    3  A    between atoms: C10_11  and  O11_12 
REMARK    4  A    between atoms: C16_18  and  O17_19 
REMARK    5  A    between atoms: C19_22  and  O20_23 
ROOT
HETATM    1  O1          0      62.800 113.767 -29.208  1.00  0.00    -0.286 OA
HETATM    2  C2          0      63.861 114.085 -29.811  1.00  0.00     0.201 C 
HETATM    3  C3          0      63.864 114.654 -31.074  1.00  0.00     0.067 C 
HETATM    4  C4          0      65.049 114.900 -31.759  1.00  0.00     0.103 C 
HETATM    5  O13         0      66.195 114.599 -31.174  1.00  0.00    -0.307 OA
HETATM    6  C14         0      66.247 114.023 -29.992  1.00  0.00     0.107 C 
HETATM    7  C15         0      67.380 113.353 -29.555  1.00  0.00     0.049 C 
HETATM    8  C16         0      67.346 112.537 -28.430  1.00  0.00     0.093 C 
HETATM    9  C18         0      66.348 112.843 -27.513  1.00  0.00     0.048 C 
HETATM   10  C19         0      65.222 113.553 -27.907  1.00  0.00     0.096 C 
HETATM   11  C21         0      65.102 113.971 -29.204  1.00  0.00     0.084 C 
ENDROOT
BRANCH  10  12
HETATM   12  O20         0      64.066 113.477 -27.136  1.00  0.00    -0.359 OA
HETATM   13  H20         0      63.381 114.115 -27.297  1.00  0.00     0.218 HD
ENDBRANCH  10  12
BRANCH   4  14
HETATM   14  C5          0      64.987 114.912 -33.222  1.00  0.00     0.025 C 
HETATM   15  C6          0      66.076 114.606 -34.023  1.00  0.00     0.004 C 
HETATM   16  C7          0      65.838 113.877 -35.184  1.00  0.00     0.026 C 
HETATM   17  C8          0      64.547 113.579 -35.606  1.00  0.00     0.112 C 
HETATM   18  C10         0      63.566 114.434 -35.121  1.00  0.00     0.112 C 
HETATM   19  C12         0      63.795 115.085 -33.914  1.00  0.00     0.028 C 
BRANCH  17  20
HETATM   20  O9          0      64.274 112.398 -36.274  1.00  0.00    -0.357 OA
HETATM   21  H9          0      64.875 111.663 -36.313  1.00  0.00     0.218 HD
ENDBRANCH  17  20
BRANCH  18  22
HETATM   22  O11         0      62.293 114.299 -35.656  1.00  0.00    -0.357 OA
HETATM   23  H11         0      61.739 115.071 -35.648  1.00  0.00     0.218 HD
ENDBRANCH  18  22
ENDBRANCH   4  14
BRANCH   8  24
HETATM   24  O17         0      68.032 111.318 -28.393  1.00  0.00    -0.359 OA
HETATM   25  H17         0      68.373 110.962 -27.581  1.00  0.00     0.218 HD
ENDBRANCH   8  24
TORSDOF 5
ENDMDL
MODEL 5
REMARK VINA RESULT:       0.0      7.835     11.180
REMARK  5 active torsions:
REMARK  status: ('A' for Active; 'I' for Inactive)
REMARK    1  A    between atoms: C4_4  and  C5_5 
REMARK    2  A    between atoms: C8_8  and  O9_9 
REMARK    3  A    between atoms: C10_11  and  O11_12 
REMARK    4  A    between atoms: C16_18  and  O17_19 
REMARK    5  A    between atoms: C19_22  and  O20_23 
ROOT
HETATM    1  O1          0      56.030 118.826 -25.961  1.00  0.00    -0.286 OA
HETATM    2  C2          0      57.210 118.578 -25.591  1.00  0.00     0.201 C 
HETATM    3  C3          0      58.211 119.535 -25.583  1.00  0.00     0.067 C 
HETATM    4  C4          0      59.526 119.211 -25.269  1.00  0.00     0.103 C 
HETATM    5  O13         0      59.814 117.961 -24.950  1.00  0.00    -0.307 OA
HETATM    6  C14         0      58.909 117.007 -24.978  1.00  0.00     0.107 C 
HETATM    7  C15         0      59.262 115.667 -25.041  1.00  0.00     0.049 C 
HETATM    8  C16         0      58.320 114.686 -25.326  1.00  0.00     0.093 C 
HETATM    9  C18         0      57.008 115.023 -25.014  1.00  0.00     0.048 C 
HETATM   10  C19         0      56.631 116.354 -24.897  1.00  0.00     0.096 C 
HETATM   11  C21         0      57.562 117.342 -25.072  1.00  0.00     0.084 C 
ENDROOT
BRANCH  10  12
HETATM   12  O20         0      55.288 116.694 -25.022  1.00  0.00    -0.359 OA
HETATM   13  H20         0      54.644 116.000 -24.949  1.00  0.00     0.218 HD
ENDBRANCH  10  12
BRANCH   4  14
HETATM   14  C5          0      60.579 120.052 -25.842  1.00  0.00     0.025 C 
HETATM   15  C6          0      61.864 119.589 -26.082  1.00  0.00     0.004 C 
HETATM   16  C7          0      62.502 120.028 -27.238  1.00  0.00     0.026 C 
HETATM   17  C8          0      61.938 120.999 -28.058  1.00  0.00     0.112 C 
HETATM   18  C10         0      61.015 121.825 -27.430  1.00  0.00     0.112 C 
HETATM   19  C12         0      60.329 121.329 -26.328  1.00  0.00     0.028 C 
BRANCH  17  20
HETATM   20  O9          0      62.142 120.976 -29.427  1.00  0.00    -0.357 OA
HETATM   21  H9          0      62.268 121.755 -29.955  1.00  0.00     0.218 HD
ENDBRANCH  17  20
BRANCH  18  22
HETATM   22  O11         0      60.565 122.923 -28.147  1.00  0.00    -0.357 OA
HETATM   23  H11         0      61.058 123.730 -28.053  1.00  0.00     0.218 HD
ENDBRANCH  18  22
ENDBRANCH   4  14
BRANCH   8  24
HETATM   24  O17         0      58.623 113.604 -26.159  1.00  0.00    -0.359 OA
HETATM   25  H17         0      58.328 113.571 -27.062  1.00  0.00     0.218 HD
ENDBRANCH   8  24
TORSDOF 5
ENDMDL
MODEL 6
REMARK VINA RESULT:       0.0     16.771     19.004
REMARK  5 active torsions:
REMARK  status: ('A' for Active; 'I' for Inactive)
REMARK    1  A    between atoms: C4_4  and  C5_5 
REMARK    2  A    between atoms: C8_8  and  O9_9 
REMARK    3  A    between atoms: C10_11  and  O11_12 
REMARK    4  A    between atoms: C16_18  and  O17_19 
REMARK    5  A    between atoms: C19_22  and  O20_23 
ROOT
HETATM    1  O1          0      61.527 127.666 -26.986  1.00  0.00    -0.286 OA
HETATM    2  C2          0      62.024 127.479 -25.842  1.00  0.00     0.201 C 
HETATM    3  C3          0      63.386 127.530 -25.598  1.00  0.00     0.067 C 
HETATM    4  C4          0      63.915 127.219 -24.350  1.00  0.00     0.103 C 
HETATM    5  O13         0      63.087 126.887 -23.375  1.00  0.00    -0.307 OA
HETATM    6  C14         0      61.790 126.786 -23.563  1.00  0.00     0.107 C 
HETATM    7  C15         0      60.978 126.070 -22.695  1.00  0.00     0.049 C 
HETATM    8  C16         0      59.667 125.753 -23.028  1.00  0.00     0.093 C 
HETATM    9  C18         0      59.076 126.600 -23.958  1.00  0.00     0.048 C 
HETATM   10  C19         0      59.859 127.366 -24.811  1.00  0.00     0.096 C 
HETATM   11  C21         0      61.223 127.300 -24.725  1.00  0.00     0.084 C 
ENDROOT
BRANCH  10  12
HETATM   12  O20         0      59.303 127.855 -25.989  1.00  0.00    -0.359 OA
HETATM   13  H20         0      58.442 128.252 -25.944  1.00  0.00     0.218 HD
ENDBRANCH  10  12
BRANCH   4  14
HETATM   14  C5          0      65.288 126.714 -24.312  1.00  0.00     0.025 C 
HETATM   15  C6          0      65.757 125.885 -23.303  1.00  0.00     0.004 C 
HETATM   16  C7          0      66.631 124.864 -23.661  1.00  0.00     0.026 C 
HETATM   17  C8          0      67.130 124.751 -24.954  1.00  0.00     0.112 C 
HETATM   18  C10         0      67.122 125.933 -25.684  1.00  0.00     0.112 C 
HETATM   19  C12         0      66.180 126.902 -25.360  1.00  0.00     0.028 C 
BRANCH  17  20
HETATM   20  O9          0      67.402 123.511 -25.503  1.00  0.00    -0.357 OA
HETATM   21  H9          0      66.750 122.969 -25.932  1.00  0.00     0.218 HD
ENDBRANCH  17  20
BRANCH  18  22
HETATM   22  O11         0      67.778 125.921 -26.906  1.00  0.00    -0.357 OA
HETATM   23  H11         0      68.054 126.761 -27.254  1.00  0.00     0.218 HD
ENDBRANCH  18  22
ENDBRANCH   4  14
BRANCH   8  24
HETATM   24  O17         0      59.117 124.505 -22.716  1.00  0.00    -0.359 OA
HETATM   25  H17         0      58.484 124.082 -23.285  1.00  0.00     0.218 HD
ENDBRANCH   8  24
TORSDOF 5
ENDMDL
MODEL 7
REMARK VINA RESULT:       0.0      8.118      9.537
REMARK  5 active torsions:
REMARK  status: ('A' for Active; 'I' for Inactive)
REMARK    1  A    between atoms: C4_4  and  C5_5 
REMARK    2  A    between atoms: C8_8  and  O9_9 
REMARK    3  A    between atoms: C10_11  and  O11_12 
REMARK    4  A    between atoms: C16_18  and  O17_19 
REMARK    5  A    between atoms: C19_22  and  O20_23 
ROOT
HETATM    1  O1          0      58.435 117.802 -29.854  1.00  0.00    -0.286 OA
HETATM    2  C2          0      58.506 118.022 -28.614  1.00  0.00     0.201 C 
HETATM    3  C3          0      59.319 117.290 -27.766  1.00  0.00     0.067 C 
HETATM    4  C4          0      59.302 117.485 -26.390  1.00  0.00     0.103 C 
HETATM    5  O13         0      58.500 118.409 -25.891  1.00  0.00    -0.307 OA
HETATM    6  C14         0      57.680 119.106 -26.646  1.00  0.00     0.107 C 
HETATM    7  C15         0      56.581 119.767 -26.117  1.00  0.00     0.049 C 
HETATM    8  C16         0      55.585 120.283 -26.937  1.00  0.00     0.093 C 
HETATM    9  C18         0      55.986 120.576 -28.235  1.00  0.00     0.048 C 
HETATM   10  C19         0      57.109 119.968 -28.780  1.00  0.00     0.096 C 
HETATM   11  C21         0      57.836 119.086 -28.028  1.00  0.00     0.084 C 
ENDROOT
BRANCH  10  12
HETATM   12  O20         0      57.252 119.918 -30.163  1.00  0.00    -0.359 OA
HETATM   13  H20         0      57.899 120.486 -30.565  1.00  0.00     0.218 HD
ENDBRANCH  10  12
BRANCH   4  14
HETATM   14  C5          0      59.679 116.349 -25.547  1.00  0.00     0.025 C 
HETATM   15  C6          0      59.218 116.190 -24.249  1.00  0.00     0.004 C 
HETATM   16  C7          0      58.910 114.901 -23.827  1.00  0.00     0.026 C 
HETATM   17  C8          0      59.177 113.791 -24.621  1.00  0.00     0.112 C 
HETATM   18  C10         0      60.175 113.981 -25.567  1.00  0.00     0.112 C 
HETATM   19  C12         0      60.405 115.270 -26.034  1.00  0.00     0.028 C 
BRANCH  17  20
HETATM   20  O9          0      58.353 112.680 -24.587  1.00  0.00    -0.357 OA
HETATM   21  H9          0      57.561 112.594 -25.105  1.00  0.00     0.218 HD
ENDBRANCH  17  20
BRANCH  18  22
HETATM   22  O11         0      60.612 112.858 -26.255  1.00  0.00    -0.357 OA
HETATM   23  H11         0      60.180 112.036 -26.054  1.00  0.00     0.218 HD
ENDBRANCH  18  22
ENDBRANCH   4  14
BRANCH   8  24
HETATM   24  O17         0      54.233 120.191 -26.588  1.00  0.00    -0.359 OA
HETATM   25  H17         0      53.902 120.551 -25.774  1.00  0.00     0.218 HD
ENDBRANCH   8  24
TORSDOF 5
ENDMDL
MODEL 8
REMARK VINA RESULT:       0.0     13.849     16.370
REMARK  5 active torsions:
REMARK  status: ('A' for Active; 'I' for Inactive)
REMARK    1  A    between atoms: C4_4  and  C5_5 
REMARK    2  A    between atoms: C8_8  and  O9_9 
REMARK    3  A    between atoms: C10_11  and  O11_12 
REMARK    4  A    between atoms: C16_18  and  O17_19 
REMARK    5  A    between atoms: C19_22  and  O20_23 
ROOT
HETATM    1  O1          0      62.509 126.718 -36.109  1.00  0.00    -0.286 OA
HETATM    2  C2          0      62.222 126.463 -34.908  1.00  0.00     0.201 C 
HETATM    3  C3          0      63.162 126.029 -33.988  1.00  0.00     0.067 C 
HETATM    4  C4          0      62.800 125.657 -32.698  1.00  0.00     0.103 C 
HETATM    5  O13         0      61.530 125.743 -32.345  1.00  0.00    -0.307 OA
HETATM    6  C14         0      60.593 126.113 -33.190  1.00  0.00     0.107 C 
HETATM    7  C15         0      59.253 125.828 -32.967  1.00  0.00     0.049 C 
HETATM    8  C16         0      58.305 125.990 -33.970  1.00  0.00     0.093 C 
HETATM    9  C18         0      58.643 126.909 -34.956  1.00  0.00     0.048 C 
HETATM   10  C19         0      59.971 127.252 -35.174  1.00  0.00     0.096 C 
HETATM   11  C21         0      60.952 126.694 -34.402  1.00  0.00     0.084 C 
ENDROOT
BRANCH  10  12
HETATM   12  O20         0      60.338 127.804 -36.397  1.00  0.00    -0.359 OA
HETATM   13  H20         0      60.182 127.292 -37.182  1.00  0.00     0.218 HD
ENDBRANCH  10  12
BRANCH   4  14
HETATM   14  C5          0      63.657 124.685 -32.016  1.00  0.00     0.025 C 
HETATM   15  C6          0      63.189 123.836 -31.024  1.00  0.00     0.004 C 
HETATM   16  C7          0      63.685 122.536 -31.001  1.00  0.00     0.026 C 
HETATM   17  C8          0      64.710 122.132 -31.850  1.00  0.00     0.112 C 
HETATM   18  C10         0      65.512 123.162 -32.322  1.00  0.00     0.112 C 
HETATM   19  C12         0      64.964 124.436 -32.415  1.00  0.00     0.028 C 
BRANCH  17  20
HETATM   20  O9          0      64.764 120.835 -32.329  1.00  0.00    -0.357 OA
HETATM   21  H9          0      64.458 120.578 -33.191  1.00  0.00     0.218 HD
ENDBRANCH  17  20
BRANCH  18  22
HETATM   22  O11         0      66.658 122.800 -33.016  1.00  0.00    -0.357 OA
HETATM   23  H11         0      66.545 122.214 -33.756  1.00  0.00     0.218 HD
ENDBRANCH  18  22
ENDBRANCH   4  14
BRANCH   8  24
HETATM   24  O17         0      57.268 125.067 -34.149  1.00  0.00    -0.359 OA
HETATM   25  H17         0      56.438 125.318 -34.537  1.00  0.00     0.218 HD
ENDBRANCH   8  24
TORSDOF 5
ENDMDL
MODEL 9
REMARK VINA RESULT:       0.0      6.364      8.573
REMARK  5 active torsions:
REMARK  status: ('A' for Active; 'I' for Inactive)
REMARK    1  A    between atoms: C4_4  and  C5_5 
REMARK    2  A    between atoms: C8_8  and  O9_9 
REMARK    3  A    between atoms: C10_11  and  O11_12 
REMARK    4  A    between atoms: C16_18  and  O17_19 
REMARK    5  A    between atoms: C19_22  and  O20_23 
ROOT
HETATM    1  O1          0      55.691 118.191 -30.472  1.00  0.00    -0.286 OA
HETATM    2  C2          0      54.492 118.569 -30.576  1.00  0.00     0.201 C 
HETATM    3  C3          0      53.865 119.346 -29.617  1.00  0.00     0.067 C 
HETATM    4  C4          0      52.514 119.663 -29.705  1.00  0.00     0.103 C 
HETATM    5  O13         0      51.825 119.223 -30.743  1.00  0.00    -0.307 OA
HETATM    6  C14         0      52.363 118.450 -31.662  1.00  0.00     0.107 C 
HETATM    7  C15         0      51.586 117.672 -32.508  1.00  0.00     0.049 C 
HETATM    8  C16         0      52.152 116.677 -33.295  1.00  0.00     0.093 C 
HETATM    9  C18         0      53.498 116.856 -33.590  1.00  0.00     0.048 C 
HETATM   10  C19         0      54.294 117.665 -32.791  1.00  0.00     0.096 C 
HETATM   11  C21         0      53.745 118.305 -31.713  1.00  0.00     0.084 C 
ENDROOT
BRANCH  10  12
HETATM   12  O20         0      55.675 117.500 -32.817  1.00  0.00    -0.359 OA
HETATM   13  H20         0      56.044 116.947 -33.495  1.00  0.00     0.218 HD
ENDBRANCH  10  12
BRANCH   4  14
HETATM   14  C5          0      51.806 119.931 -28.452  1.00  0.00     0.025 C 
HETATM   15  C6          0      50.442 119.727 -28.300  1.00  0.00     0.004 C 
HETATM   16  C7          0      49.997 119.219 -27.084  1.00  0.00     0.026 C 
HETATM   17  C8          0      50.860 119.047 -26.006  1.00  0.00     0.112 C 
HETATM   18  C10         0      51.998 119.842 -26.042  1.00  0.00     0.112 C 
HETATM   19  C12         0      52.470 120.265 -27.278  1.00  0.00     0.028 C 
BRANCH  17  20
HETATM   20  O9          0      50.673 118.011 -25.109  1.00  0.00    -0.357 OA
HETATM   21  H9          0      51.273 117.813 -24.398  1.00  0.00     0.218 HD
ENDBRANCH  17  20
BRANCH  18  22
HETATM   22  O11         0      52.794 119.849 -24.906  1.00  0.00    -0.357 OA
HETATM   23  H11         0      53.319 120.626 -24.753  1.00  0.00     0.218 HD
ENDBRANCH  18  22
ENDBRANCH   4  14
BRANCH   8  24
HETATM   24  O17         0      51.515 115.444 -33.482  1.00  0.00    -0.359 OA
HETATM   25  H17         0      52.003 114.658 -33.698  1.00  0.00     0.218 HD
ENDBRANCH   8  24
TORSDOF 5
ENDMDL
