MODEL 1
REMARK VINA RESULT:      -0.0      0.000      0.000
REMARK  5 active torsions:
REMARK  status: ('A' for Active; 'I' for Inactive)
REMARK    1  A    between atoms: C4_4  and  C5_5 
REMARK    2  A    between atoms: C8_8  and  O9_9 
REMARK    3  A    between atoms: C10_11  and  O11_12 
REMARK    4  A    between atoms: C16_18  and  O17_19 
REMARK    5  A    between atoms: C19_22  and  O20_23 
ROOT
HETATM    1  O1          0      32.831 111.477  41.656  1.00  0.00    -0.286 OA
HETATM    2  C2          0      33.493 112.506  41.965  1.00  0.00     0.201 C 
HETATM    3  C3          0      32.902 113.735  42.202  1.00  0.00     0.067 C 
HETATM    4  C4          0      33.662 114.875  42.441  1.00  0.00     0.103 C 
HETATM    5  O13         0      34.979 114.768  42.459  1.00  0.00    -0.307 OA
HETATM    6  C14         0      35.591 113.633  42.203  1.00  0.00     0.107 C 
HETATM    7  C15         0      36.927 113.591  41.829  1.00  0.00     0.049 C 
HETATM    8  C16         0      37.497 112.432  41.317  1.00  0.00     0.093 C 
HETATM    9  C18         0      36.864 111.252  41.690  1.00  0.00     0.048 C 
HETATM   10  C19         0      35.542 111.264  42.114  1.00  0.00     0.096 C 
HETATM   11  C21         0      34.862 112.449  42.181  1.00  0.00     0.084 C 
ENDROOT
BRANCH  10  12
HETATM   12  O20         0      34.801 110.088  42.064  1.00  0.00    -0.359 OA
HETATM   13  H20         0      35.117 109.386  41.507  1.00  0.00     0.218 HD
ENDBRANCH  10  12
BRANCH   4  14
HETATM   14  C5          0      33.064 116.164  42.087  1.00  0.00     0.025 C 
HETATM   15  C6          0      33.822 117.277  41.753  1.00  0.00     0.004 C 
HETATM   16  C7          0      33.346 118.100  40.737  1.00  0.00     0.026 C 
HETATM   17  C8          0      32.095 117.900  40.163  1.00  0.00     0.112 C 
HETATM   18  C10         0      31.194 117.208  40.961  1.00  0.00     0.112 C 
HETATM   19  C12         0      31.696 116.328  41.913  1.00  0.00     0.028 C 
BRANCH  17  20
HETATM   20  O9          0      31.873 118.191  38.828  1.00  0.00    -0.357 OA
HETATM   21  H9          0      32.439 117.900  38.123  1.00  0.00     0.218 HD
ENDBRANCH  17  20
BRANCH  18  22
HETATM   22  O11         0      29.881 117.146  40.519  1.00  0.00    -0.357 OA
HETATM   23  H11         0      29.258 116.697  41.080  1.00  0.00     0.218 HD
ENDBRANCH  18  22
ENDBRANCH   4  14
BRANCH   8  24
HETATM   24  O17         0      38.406 112.474  40.254  1.00  0.00    -0.359 OA
HETATM   25  H17         0      38.356 111.862  39.529  1.00  0.00     0.218 HD
ENDBRANCH   8  24
TORSDOF 5
ENDMDL
MODEL 2
REMARK VINA RESULT:       0.0      3.763      5.180
REMARK  5 active torsions:
REMARK  status: ('A' for Active; 'I' for Inactive)
REMARK    1  A    between atoms: C4_4  and  C5_5 
REMARK    2  A    between atoms: C8_8  and  O9_9 
REMARK    3  A    between atoms: C10_11  and  O11_12 
REMARK    4  A    between atoms: C16_18  and  O17_19 
REMARK    5  A    between atoms: C19_22  and  O20_23 
ROOT
HETATM    1  O1          0      33.543 112.999  39.728  1.00  0.00    -0.286 OA
HETATM    2  C2          0      34.786 112.787  39.721  1.00  0.00     0.201 C 
HETATM    3  C3          0      35.686 113.578  40.415  1.00  0.00     0.067 C 
HETATM    4  C4          0      37.059 113.385  40.308  1.00  0.00     0.103 C 
HETATM    5  O13         0      37.505 112.408  39.538  1.00  0.00    -0.307 OA
HETATM    6  C14         0      36.696 111.653  38.829  1.00  0.00     0.107 C 
HETATM    7  C15         0      37.147 110.917  37.742  1.00  0.00     0.049 C 
HETATM    8  C16         0      36.259 110.329  36.849  1.00  0.00     0.093 C 
HETATM    9  C18         0      34.997 110.062  37.367  1.00  0.00     0.048 C 
HETATM   10  C19         0      34.532 110.746  38.482  1.00  0.00     0.096 C 
HETATM   11  C21         0      35.329 111.680  39.086  1.00  0.00     0.084 C 
ENDROOT
BRANCH  10  12
HETATM   12  O20         0      33.163 110.802  38.724  1.00  0.00    -0.359 OA
HETATM   13  H20         0      32.667 111.502  38.316  1.00  0.00     0.218 HD
ENDBRANCH  10  12
BRANCH   4  14
HETATM   14  C5          0      37.918 114.548  40.540  1.00  0.00     0.025 C 
HETATM   15  C6          0      39.178 114.677  39.972  1.00  0.00     0.004 C 
HETATM   16  C7          0      39.564 115.943  39.543  1.00  0.00     0.026 C 
HETATM   17  C8          0      38.783 117.067  39.790  1.00  0.00     0.112 C 
HETATM   18  C10         0      37.916 116.945  40.867  1.00  0.00     0.112 C 
HETATM   19  C12         0      37.478 115.675  41.222  1.00  0.00     0.028 C 
BRANCH  17  20
HETATM   20  O9          0      38.747 118.116  38.889  1.00  0.00    -0.357 OA
HETATM   21  H9          0      38.909 118.019  37.958  1.00  0.00     0.218 HD
ENDBRANCH  17  20
BRANCH  18  22
HETATM   22  O11         0      37.253 118.095  41.274  1.00  0.00    -0.357 OA
HETATM   23  H11         0      37.652 118.595  41.976  1.00  0.00     0.218 HD
ENDBRANCH  18  22
ENDBRANCH   4  14
BRANCH   8  24
HETATM   24  O17         0      36.505 110.325  35.472  1.00  0.00    -0.359 OA
HETATM   25  H17         0      36.664 111.129  34.991  1.00  0.00     0.218 HD
ENDBRANCH   8  24
TORSDOF 5
ENDMDL
MODEL 3
REMARK VINA RESULT:       0.0      3.554      7.255
REMARK  5 active torsions:
REMARK  status: ('A' for Active; 'I' for Inactive)
REMARK    1  A    between atoms: C4_4  and  C5_5 
REMARK    2  A    between atoms: C8_8  and  O9_9 
REMARK    3  A    between atoms: C10_11  and  O11_12 
REMARK    4  A    between atoms: C16_18  and  O17_19 
REMARK    5  A    between atoms: C19_22  and  O20_23 
ROOT
HETATM    1  O1          0      36.543 115.597  38.664  1.00  0.00    -0.286 OA
HETATM    2  C2          0      36.817 115.835  39.872  1.00  0.00     0.201 C 
HETATM    3  C3          0      38.086 116.192  40.297  1.00  0.00     0.067 C 
HETATM    4  C4          0      38.386 116.348  41.645  1.00  0.00     0.103 C 
HETATM    5  O13         0      37.424 116.169  42.534  1.00  0.00    -0.307 OA
HETATM    6  C14         0      36.213 115.793  42.187  1.00  0.00     0.107 C 
HETATM    7  C15         0      35.334 115.226  43.098  1.00  0.00     0.049 C 
HETATM    8  C16         0      34.164 114.602  42.681  1.00  0.00     0.093 C 
HETATM    9  C18         0      33.677 115.031  41.453  1.00  0.00     0.048 C 
HETATM   10  C19         0      34.518 115.646  40.535  1.00  0.00     0.096 C 
HETATM   11  C21         0      35.835 115.846  40.850  1.00  0.00     0.084 C 
ENDROOT
BRANCH  10  12
HETATM   12  O20         0      34.157 115.671  39.192  1.00  0.00    -0.359 OA
HETATM   13  H20         0      33.470 115.082  38.904  1.00  0.00     0.218 HD
ENDBRANCH  10  12
BRANCH   4  14
HETATM   14  C5          0      39.773 116.123  42.053  1.00  0.00     0.025 C 
HETATM   15  C6          0      40.124 115.713  43.331  1.00  0.00     0.004 C 
HETATM   16  C7          0      41.169 114.802  43.452  1.00  0.00     0.026 C 
HETATM   17  C8          0      41.928 114.413  42.354  1.00  0.00     0.112 C 
HETATM   18  C10         0      41.926 115.315  41.298  1.00  0.00     0.112 C 
HETATM   19  C12         0      40.829 116.157  41.152  1.00  0.00     0.028 C 
BRANCH  17  20
HETATM   20  O9          0      42.451 113.135  42.270  1.00  0.00    -0.357 OA
HETATM   21  H9          0      42.295 112.457  42.918  1.00  0.00     0.218 HD
ENDBRANCH  17  20
BRANCH  18  22
HETATM   22  O11         0      42.812 115.070  40.259  1.00  0.00    -0.357 OA
HETATM   23  H11         0      42.701 115.585  39.469  1.00  0.00     0.218 HD
ENDBRANCH  18  22
ENDBRANCH   4  14
BRANCH   8  24
HETATM   24  O17         0      33.716 113.419  43.279  1.00  0.00    -0.359 OA
HETATM   25  H17         0      33.839 112.573  42.865  1.00  0.00     0.218 HD
ENDBRANCH   8  24
TORSDOF 5
ENDMDL
MODEL 4
REMARK VINA RESULT:       0.0      8.347     11.413
REMARK  5 active torsions:
REMARK  status: ('A' for Active; 'I' for Inactive)
REMARK    1  A    between atoms: C4_4  and  C5_5 
REMARK    2  A    between atoms: C8_8  and  O9_9 
REMARK    3  A    between atoms: C10_11  and  O11_12 
REMARK    4  A    between atoms: C16_18  and  O17_19 
REMARK    5  A    between atoms: C19_22  and  O20_23 
ROOT
HETATM    1  O1          0      40.483 118.148  38.488  1.00  0.00    -0.286 OA
HETATM    2  C2          0      41.031 117.092  38.067  1.00  0.00     0.201 C 
HETATM    3  C3          0      42.102 116.495  38.710  1.00  0.00     0.067 C 
HETATM    4  C4          0      42.752 115.391  38.170  1.00  0.00     0.103 C 
HETATM    5  O13         0      42.317 114.896  37.025  1.00  0.00    -0.307 OA
HETATM    6  C14         0      41.329 115.447  36.355  1.00  0.00     0.107 C 
HETATM    7  C15         0      41.131 115.196  35.005  1.00  0.00     0.049 C 
HETATM    8  C16         0      40.255 115.966  34.248  1.00  0.00     0.093 C 
HETATM    9  C18         0      39.247 116.590  34.973  1.00  0.00     0.048 C 
HETATM   10  C19         0      39.392 116.814  36.335  1.00  0.00     0.096 C 
HETATM   11  C21         0      40.530 116.403  36.973  1.00  0.00     0.084 C 
ENDROOT
BRANCH  10  12
HETATM   12  O20         0      38.616 117.793  36.950  1.00  0.00    -0.359 OA
HETATM   13  H20         0      39.060 118.448  37.474  1.00  0.00     0.218 HD
ENDBRANCH  10  12
BRANCH   4  14
HETATM   14  C5          0      44.157 115.198  38.533  1.00  0.00     0.025 C 
HETATM   15  C6          0      45.060 114.530  37.718  1.00  0.00     0.004 C 
HETATM   16  C7          0      46.358 115.026  37.650  1.00  0.00     0.026 C 
HETATM   17  C8          0      46.783 116.068  38.467  1.00  0.00     0.112 C 
HETATM   18  C10         0      46.050 116.226  39.635  1.00  0.00     0.112 C 
HETATM   19  C12         0      44.727 115.799  39.648  1.00  0.00     0.028 C 
BRANCH  17  20
HETATM   20  O9          0      47.721 116.982  38.019  1.00  0.00    -0.357 OA
HETATM   21  H9          0      47.754 117.888  38.304  1.00  0.00     0.218 HD
ENDBRANCH  17  20
BRANCH  18  22
HETATM   22  O11         0      46.544 117.124  40.571  1.00  0.00    -0.357 OA
HETATM   23  H11         0      47.365 116.897  40.992  1.00  0.00     0.218 HD
ENDBRANCH  18  22
ENDBRANCH   4  14
BRANCH   8  24
HETATM   24  O17         0      40.566 116.349  32.939  1.00  0.00    -0.359 OA
HETATM   25  H17         0      41.052 117.144  32.754  1.00  0.00     0.218 HD
ENDBRANCH   8  24
TORSDOF 5
ENDMDL
MODEL 5
REMARK VINA RESULT:       0.0      5.695      8.349
REMARK  5 active torsions:
REMARK  status: ('A' for Active; 'I' for Inactive)
REMARK    1  A    between atoms: C4_4  and  C5_5 
REMARK    2  A    between atoms: C8_8  and  O9_9 
REMARK    3  A    between atoms: C10_11  and  O11_12 
REMARK    4  A    between atoms: C16_18  and  O17_19 
REMARK    5  A    between atoms: C19_22  and  O20_23 
ROOT
HETATM    1  O1          0      31.574 111.534  44.773  1.00  0.00    -0.286 OA
HETATM    2  C2          0      32.692 110.954  44.702  1.00  0.00     0.201 C 
HETATM    3  C3          0      33.014 110.068  43.688  1.00  0.00     0.067 C 
HETATM    4  C4          0      34.214 109.365  43.689  1.00  0.00     0.103 C 
HETATM    5  O13         0      35.069 109.570  44.675  1.00  0.00    -0.307 OA
HETATM    6  C14         0      34.797 110.372  45.681  1.00  0.00     0.107 C 
HETATM    7  C15         0      35.481 110.292  46.886  1.00  0.00     0.049 C 
HETATM    8  C16         0      35.027 110.957  48.019  1.00  0.00     0.093 C 
HETATM    9  C18         0      34.231 112.068  47.768  1.00  0.00     0.048 C 
HETATM   10  C19         0      33.570 112.203  46.555  1.00  0.00     0.096 C 
HETATM   11  C21         0      33.716 111.242  45.592  1.00  0.00     0.084 C 
ENDROOT
BRANCH  10  12
HETATM   12  O20         0      32.468 113.049  46.471  1.00  0.00    -0.359 OA
HETATM   13  H20         0      32.618 113.951  46.214  1.00  0.00     0.218 HD
ENDBRANCH  10  12
BRANCH   4  14
HETATM   14  C5          0      34.235 108.076  42.994  1.00  0.00     0.025 C 
HETATM   15  C6          0      35.106 107.052  43.337  1.00  0.00     0.004 C 
HETATM   16  C7          0      34.620 105.749  43.285  1.00  0.00     0.026 C 
HETATM   17  C8          0      33.356 105.461  42.782  1.00  0.00     0.112 C 
HETATM   18  C10         0      32.847 106.416  41.912  1.00  0.00     0.112 C 
HETATM   19  C12         0      33.287 107.728  42.041  1.00  0.00     0.028 C 
BRANCH  17  20
HETATM   20  O9          0      32.612 104.413  43.293  1.00  0.00    -0.357 OA
HETATM   21  H9          0      32.240 103.720  42.759  1.00  0.00     0.218 HD
ENDBRANCH  17  20
BRANCH  18  22
HETATM   22  O11         0      31.679 106.092  41.237  1.00  0.00    -0.357 OA
HETATM   23  H11         0      31.411 106.676  40.537  1.00  0.00     0.218 HD
ENDBRANCH  18  22
ENDBRANCH   4  14
BRANCH   8  24
HETATM   24  O17         0      35.083 110.363  49.284  1.00  0.00    -0.359 OA
HETATM   25  H17         0      34.298 110.197  49.793  1.00  0.00     0.218 HD
ENDBRANCH   8  24
TORSDOF 5
ENDMDL
MODEL 6
REMARK VINA RESULT:       0.0      8.998     10.686
REMARK  5 active torsions:
REMARK  status: ('A' for Active; 'I' for Inactive)
REMARK    1  A    between atoms: C4_4  and  C5_5 
REMARK    2  A    between atoms: C8_8  and  O9_9 
REMARK    3  A    between atoms: C10_11  and  O11_12 
REMARK    4  A    between atoms: C16_18  and  O17_19 
REMARK    5  A    between atoms: C19_22  and  O20_23 
ROOT
HETATM    1  O1          0      40.529 116.816  33.394  1.00  0.00    -0.286 OA
HETATM    2  C2          0      40.515 116.018  34.372  1.00  0.00     0.201 C 
HETATM    3  C3          0      40.842 116.404  35.660  1.00  0.00     0.067 C 
HETATM    4  C4          0      40.918 115.484  36.699  1.00  0.00     0.103 C 
HETATM    5  O13         0      40.651 114.215  36.445  1.00  0.00    -0.307 OA
HETATM    6  C14         0      40.371 113.790  35.232  1.00  0.00     0.107 C 
HETATM    7  C15         0      40.484 112.452  34.883  1.00  0.00     0.049 C 
HETATM    8  C16         0      40.438 112.046  33.555  1.00  0.00     0.093 C 
HETATM    9  C18         0      39.766 112.911  32.700  1.00  0.00     0.048 C 
HETATM   10  C19         0      39.594 114.246  33.040  1.00  0.00     0.096 C 
HETATM   11  C21         0      40.075 114.710  34.233  1.00  0.00     0.084 C 
ENDROOT
BRANCH  10  12
HETATM   12  O20         0      39.329 115.174  32.037  1.00  0.00    -0.359 OA
HETATM   13  H20         0      39.481 116.092  32.229  1.00  0.00     0.218 HD
ENDBRANCH  10  12
BRANCH   4  14
HETATM   14  C5          0      41.810 115.806  37.815  1.00  0.00     0.025 C 
HETATM   15  C6          0      42.402 114.834  38.609  1.00  0.00     0.004 C 
HETATM   16  C7          0      43.711 115.052  39.027  1.00  0.00     0.026 C 
HETATM   17  C8          0      44.365 116.254  38.778  1.00  0.00     0.112 C 
HETATM   18  C10         0      43.525 117.339  38.566  1.00  0.00     0.112 C 
HETATM   19  C12         0      42.250 117.099  38.067  1.00  0.00     0.028 C 
BRANCH  17  20
HETATM   20  O9          0      45.730 116.285  38.556  1.00  0.00    -0.357 OA
HETATM   21  H9          0      46.159 115.833  37.838  1.00  0.00     0.218 HD
ENDBRANCH  17  20
BRANCH  18  22
HETATM   22  O11         0      44.119 118.591  38.502  1.00  0.00    -0.357 OA
HETATM   23  H11         0      43.574 119.337  38.724  1.00  0.00     0.218 HD
ENDBRANCH  18  22
ENDBRANCH   4  14
BRANCH   8  24
HETATM   24  O17         0      41.281 111.040  33.070  1.00  0.00    -0.359 OA
HETATM   25  H17         0      42.111 111.241  32.655  1.00  0.00     0.218 HD
ENDBRANCH   8  24
TORSDOF 5
ENDMDL
MODEL 7
REMARK VINA RESULT:       0.0      9.909     11.564
REMARK  5 active torsions:
REMARK  status: ('A' for Active; 'I' for Inactive)
REMARK    1  A    between atoms: C4_4  and  C5_5 
REMARK    2  A    between atoms: C8_8  and  O9_9 
REMARK    3  A    between atoms: C10_11  and  O11_12 
REMARK    4  A    between atoms: C16_18  and  O17_19 
REMARK    5  A    between atoms: C19_22  and  O20_23 
ROOT
HETATM    1  O1          0      42.284 115.714  34.233  1.00  0.00    -0.286 OA
HETATM    2  C2          0      42.183 114.761  35.054  1.00  0.00     0.201 C 
HETATM    3  C3          0      42.330 114.928  36.420  1.00  0.00     0.067 C 
HETATM    4  C4          0      42.316 113.845  37.292  1.00  0.00     0.103 C 
HETATM    5  O13         0      42.137 112.633  36.797  1.00  0.00    -0.307 OA
HETATM    6  C14         0      42.029 112.415  35.504  1.00  0.00     0.107 C 
HETATM    7  C15         0      42.241 111.159  34.955  1.00  0.00     0.049 C 
HETATM    8  C16         0      42.378 110.986  33.583  1.00  0.00     0.093 C 
HETATM    9  C18         0      41.781 111.970  32.804  1.00  0.00     0.048 C 
HETATM   10  C19         0      41.511 113.223  33.336  1.00  0.00     0.096 C 
HETATM   11  C21         0      41.820 113.487  34.643  1.00  0.00     0.084 C 
ENDROOT
BRANCH  10  12
HETATM   12  O20         0      41.334 114.303  32.477  1.00  0.00    -0.359 OA
HETATM   13  H20         0      41.514 114.172  31.554  1.00  0.00     0.218 HD
ENDBRANCH  10  12
BRANCH   4  14
HETATM   14  C5          0      43.048 113.990  38.552  1.00  0.00     0.025 C 
HETATM   15  C6          0      43.577 112.910  39.243  1.00  0.00     0.004 C 
HETATM   16  C7          0      44.813 113.081  39.858  1.00  0.00     0.026 C 
HETATM   17  C8          0      45.441 114.321  39.900  1.00  0.00     0.112 C 
HETATM   18  C10         0      44.588 115.408  39.765  1.00  0.00     0.112 C 
HETATM   19  C12         0      43.397 115.230  39.071  1.00  0.00     0.028 C 
BRANCH  17  20
HETATM   20  O9          0      46.821 114.418  39.865  1.00  0.00    -0.357 OA
HETATM   21  H9          0      47.354 114.105  39.144  1.00  0.00     0.218 HD
ENDBRANCH  17  20
BRANCH  18  22
HETATM   22  O11         0      45.132 116.665  39.988  1.00  0.00    -0.357 OA
HETATM   23  H11         0      44.530 117.354  40.245  1.00  0.00     0.218 HD
ENDBRANCH  18  22
ENDBRANCH   4  14
BRANCH   8  24
HETATM   24  O17         0      43.317 110.095  33.050  1.00  0.00    -0.359 OA
HETATM   25  H17         0      44.241 110.159  33.261  1.00  0.00     0.218 HD
ENDBRANCH   8  24
TORSDOF 5
ENDMDL
MODEL 8
REMARK VINA RESULT:       0.0      8.651     12.352
REMARK  5 active torsions:
REMARK  status: ('A' for Active; 'I' for Inactive)
REMARK    1  A    between atoms: C4_4  and  C5_5 
REMARK    2  A    between atoms: C8_8  and  O9_9 
REMARK    3  A    between atoms: C10_11  and  O11_12 
REMARK    4  A    between atoms: C16_18  and  O17_19 
REMARK    5  A    between atoms: C19_22  and  O20_23 
ROOT
HETATM    1  O1          0      44.333 108.025  45.977  1.00  0.00    -0.286 OA
HETATM    2  C2          0      43.554 107.057  45.761  1.00  0.00     0.201 C 
HETATM    3  C3          0      42.834 106.922  44.585  1.00  0.00     0.067 C 
HETATM    4  C4          0      41.905 105.902  44.413  1.00  0.00     0.103 C 
HETATM    5  O13         0      41.726 105.034  45.394  1.00  0.00    -0.307 OA
HETATM    6  C14         0      42.355 105.139  46.543  1.00  0.00     0.107 C 
HETATM    7  C15         0      41.897 104.503  47.688  1.00  0.00     0.049 C 
HETATM    8  C16         0      42.409 104.816  48.942  1.00  0.00     0.093 C 
HETATM    9  C18         0      43.692 105.350  48.935  1.00  0.00     0.048 C 
HETATM   10  C19         0      44.199 105.953  47.792  1.00  0.00     0.096 C 
HETATM   11  C21         0      43.437 106.006  46.657  1.00  0.00     0.084 C 
ENDROOT
BRANCH  10  12
HETATM   12  O20         0      45.261 106.845  47.907  1.00  0.00    -0.359 OA
HETATM   13  H20         0      45.594 107.245  47.113  1.00  0.00     0.218 HD
ENDBRANCH  10  12
BRANCH   4  14
HETATM   14  C5          0      40.803 106.150  43.482  1.00  0.00     0.025 C 
HETATM   15  C6          0      39.569 105.525  43.593  1.00  0.00     0.004 C 
HETATM   16  C7          0      38.436 106.280  43.305  1.00  0.00     0.026 C 
HETATM   17  C8          0      38.529 107.570  42.795  1.00  0.00     0.112 C 
HETATM   18  C10         0      39.722 107.851  42.143  1.00  0.00     0.112 C 
HETATM   19  C12         0      40.859 107.141  42.510  1.00  0.00     0.028 C 
BRANCH  17  20
HETATM   20  O9          0      37.585 108.529  43.117  1.00  0.00    -0.357 OA
HETATM   21  H9          0      36.846 108.370  43.692  1.00  0.00     0.218 HD
ENDBRANCH  17  20
BRANCH  18  22
HETATM   22  O11         0      39.794 109.054  41.454  1.00  0.00    -0.357 OA
HETATM   23  H11         0      40.458 109.124  40.778  1.00  0.00     0.218 HD
ENDBRANCH  18  22
ENDBRANCH   4  14
BRANCH   8  24
HETATM   24  O17         0      41.581 104.904  50.066  1.00  0.00    -0.359 OA
HETATM   25  H17         0      41.188 105.727  50.334  1.00  0.00     0.218 HD
ENDBRANCH   8  24
TORSDOF 5
ENDMDL
MODEL 9
REMARK VINA RESULT:       0.0      8.196     10.093
REMARK  5 active torsions:
REMARK  status: ('A' for Active; 'I' for Inactive)
REMARK    1  A    between atoms: C4_4  and  C5_5 
REMARK    2  A    between atoms: C8_8  and  O9_9 
REMARK    3  A    between atoms: C10_11  and  O11_12 
REMARK    4  A    between atoms: C16_18  and  O17_19 
REMARK    5  A    between atoms: C19_22  and  O20_23 
ROOT
HETATM    1  O1          0      39.882 107.543  37.876  1.00  0.00    -0.286 OA
HETATM    2  C2          0      39.439 107.969  38.978  1.00  0.00     0.201 C 
HETATM    3  C3          0      40.135 108.865  39.771  1.00  0.00     0.067 C 
HETATM    4  C4          0      39.672 109.239  41.027  1.00  0.00     0.103 C 
HETATM    5  O13         0      38.529 108.736  41.458  1.00  0.00    -0.307 OA
HETATM    6  C14         0      37.847 107.853  40.761  1.00  0.00     0.107 C 
HETATM    7  C15         0      36.892 107.036  41.351  1.00  0.00     0.049 C 
HETATM    8  C16         0      36.363 105.942  40.677  1.00  0.00     0.093 C 
HETATM    9  C18         0      36.417 106.024  39.291  1.00  0.00     0.048 C 
HETATM   10  C19         0      37.329 106.866  38.669  1.00  0.00     0.096 C 
HETATM   11  C21         0      38.170 107.634  39.427  1.00  0.00     0.084 C 
ENDROOT
BRANCH  10  12
HETATM   12  O20         0      37.678 106.630  37.343  1.00  0.00    -0.359 OA
HETATM   13  H20         0      37.284 107.178  36.674  1.00  0.00     0.218 HD
ENDBRANCH  10  12
BRANCH   4  14
HETATM   14  C5          0      40.671 109.662  42.010  1.00  0.00     0.025 C 
HETATM   15  C6          0      40.476 109.542  43.379  1.00  0.00     0.004 C 
HETATM   16  C7          0      41.571 109.178  44.156  1.00  0.00     0.026 C 
HETATM   17  C8          0      42.847 109.067  43.613  1.00  0.00     0.112 C 
HETATM   18  C10         0      43.047 109.796  42.449  1.00  0.00     0.112 C 
HETATM   19  C12         0      41.946 110.074  41.646  1.00  0.00     0.028 C 
BRANCH  17  20
HETATM   20  O9          0      43.745 108.133  44.098  1.00  0.00    -0.357 OA
HETATM   21  H9          0      44.674 108.139  43.896  1.00  0.00     0.218 HD
ENDBRANCH  17  20
BRANCH  18  22
HETATM   22  O11         0      44.347 109.873  41.970  1.00  0.00    -0.357 OA
HETATM   23  H11         0      44.803 110.698  42.094  1.00  0.00     0.218 HD
ENDBRANCH  18  22
ENDBRANCH   4  14
BRANCH   8  24
HETATM   24  O17         0      36.117 104.731  41.333  1.00  0.00    -0.359 OA
HETATM   25  H17         0      35.244 104.487  41.618  1.00  0.00     0.218 HD
ENDBRANCH   8  24
TORSDOF 5
ENDMDL
