MODEL 1
REMARK VINA RESULT:      -0.5      0.000      0.000
REMARK  5 active torsions:
REMARK  status: ('A' for Active; 'I' for Inactive)
REMARK    1  A    between atoms: C4_4  and  C5_5 
REMARK    2  A    between atoms: C8_8  and  O9_9 
REMARK    3  A    between atoms: C10_11  and  O11_12 
REMARK    4  A    between atoms: C16_18  and  O17_19 
REMARK    5  A    between atoms: C19_22  and  O20_23 
ROOT
HETATM    1  O1          0      16.174  15.243  -5.044  1.00  0.00    -0.286 OA
HETATM    2  C2          0      15.764  15.900  -4.048  1.00  0.00     0.201 C 
HETATM    3  C3          0      16.095  17.227  -3.836  1.00  0.00     0.067 C 
HETATM    4  C4          0      15.714  17.897  -2.679  1.00  0.00     0.103 C 
HETATM    5  O13         0      15.002  17.248  -1.775  1.00  0.00    -0.307 OA
HETATM    6  C14         0      14.693  15.977  -1.909  1.00  0.00     0.107 C 
HETATM    7  C15         0      14.313  15.199  -0.825  1.00  0.00     0.049 C 
HETATM    8  C16         0      14.236  13.815  -0.922  1.00  0.00     0.093 C 
HETATM    9  C18         0      14.031  13.327  -2.207  1.00  0.00     0.048 C 
HETATM   10  C19         0      14.357  14.098  -3.314  1.00  0.00     0.096 C 
HETATM   11  C21         0      14.869  15.355  -3.140  1.00  0.00     0.084 C 
ENDROOT
BRANCH  10  12
HETATM   12  O20         0      14.564  13.473  -4.540  1.00  0.00    -0.359 OA
HETATM   13  H20         0      14.922  12.594  -4.537  1.00  0.00     0.218 HD
ENDBRANCH  10  12
BRANCH   4  14
HETATM   14  C5          0      16.555  19.015  -2.245  1.00  0.00     0.025 C 
HETATM   15  C6          0      16.432  19.608  -0.997  1.00  0.00     0.004 C 
HETATM   16  C7          0      17.600  20.004  -0.354  1.00  0.00     0.026 C 
HETATM   17  C8          0      18.838  19.938  -0.984  1.00  0.00     0.112 C 
HETATM   18  C10         0      18.784  19.947  -2.371  1.00  0.00     0.112 C 
HETATM   19  C12         0      17.636  19.466  -2.991  1.00  0.00     0.028 C 
BRANCH  17  20
HETATM   20  O9          0      19.988  19.669  -0.262  1.00  0.00    -0.357 OA
HETATM   21  H9          0      20.794  19.351  -0.652  1.00  0.00     0.218 HD
ENDBRANCH  17  20
BRANCH  18  22
HETATM   22  O11         0      19.989  20.073  -3.047  1.00  0.00    -0.357 OA
HETATM   23  H11         0      20.588  20.743  -2.737  1.00  0.00     0.218 HD
ENDBRANCH  18  22
ENDBRANCH   4  14
BRANCH   8  24
HETATM   24  O17         0      14.666  12.986   0.120  1.00  0.00    -0.359 OA
HETATM   25  H17         0      14.150  12.868   0.909  1.00  0.00     0.218 HD
ENDBRANCH   8  24
TORSDOF 5
ENDMDL
MODEL 2
REMARK VINA RESULT:      -0.3      2.435      6.339
REMARK  5 active torsions:
REMARK  status: ('A' for Active; 'I' for Inactive)
REMARK    1  A    between atoms: C4_4  and  C5_5 
REMARK    2  A    between atoms: C8_8  and  O9_9 
REMARK    3  A    between atoms: C10_11  and  O11_12 
REMARK    4  A    between atoms: C16_18  and  O17_19 
REMARK    5  A    between atoms: C19_22  and  O20_23 
ROOT
HETATM    1  O1          0      19.297  18.637  -4.683  1.00  0.00    -0.286 OA
HETATM    2  C2          0      18.528  17.877  -4.033  1.00  0.00     0.201 C 
HETATM    3  C3          0      17.869  16.804  -4.609  1.00  0.00     0.067 C 
HETATM    4  C4          0      16.948  16.046  -3.894  1.00  0.00     0.103 C 
HETATM    5  O13         0      16.718  16.353  -2.630  1.00  0.00    -0.307 OA
HETATM    6  C14         0      17.288  17.384  -2.046  1.00  0.00     0.107 C 
HETATM    7  C15         0      16.771  17.946  -0.888  1.00  0.00     0.049 C 
HETATM    8  C16         0      17.219  19.176  -0.420  1.00  0.00     0.093 C 
HETATM    9  C18         0      18.501  19.527  -0.825  1.00  0.00     0.048 C 
HETATM   10  C19         0      19.067  18.949  -1.953  1.00  0.00     0.096 C 
HETATM   11  C21         0      18.364  18.014  -2.663  1.00  0.00     0.084 C 
ENDROOT
BRANCH  10  12
HETATM   12  O20         0      20.123  19.594  -2.591  1.00  0.00    -0.359 OA
HETATM   13  H20         0      20.014  20.509  -2.816  1.00  0.00     0.218 HD
ENDBRANCH  10  12
BRANCH   4  14
HETATM   14  C5          0      15.896  15.375  -4.660  1.00  0.00     0.025 C 
HETATM   15  C6          0      14.554  15.708  -4.544  1.00  0.00     0.004 C 
HETATM   16  C7          0      13.785  15.697  -5.703  1.00  0.00     0.026 C 
HETATM   17  C8          0      14.296  15.243  -6.914  1.00  0.00     0.112 C 
HETATM   18  C10         0      15.372  14.372  -6.798  1.00  0.00     0.112 C 
HETATM   19  C12         0      16.176  14.462  -5.668  1.00  0.00     0.028 C 
BRANCH  17  20
HETATM   20  O9          0      13.883  15.798  -8.111  1.00  0.00    -0.357 OA
HETATM   21  H9          0      13.364  15.333  -8.758  1.00  0.00     0.218 HD
ENDBRANCH  17  20
BRANCH  18  22
HETATM   22  O11         0      15.799  13.743  -7.959  1.00  0.00    -0.357 OA
HETATM   23  H11         0      15.733  14.240  -8.767  1.00  0.00     0.218 HD
ENDBRANCH  18  22
ENDBRANCH   4  14
BRANCH   8  24
HETATM   24  O17         0      16.334  20.117   0.119  1.00  0.00    -0.359 OA
HETATM   25  H17         0      16.528  20.578   0.926  1.00  0.00     0.218 HD
ENDBRANCH   8  24
TORSDOF 5
ENDMDL
MODEL 3
REMARK VINA RESULT:      -0.3      2.235      3.461
REMARK  5 active torsions:
REMARK  status: ('A' for Active; 'I' for Inactive)
REMARK    1  A    between atoms: C4_4  and  C5_5 
REMARK    2  A    between atoms: C8_8  and  O9_9 
REMARK    3  A    between atoms: C10_11  and  O11_12 
REMARK    4  A    between atoms: C16_18  and  O17_19 
REMARK    5  A    between atoms: C19_22  and  O20_23 
ROOT
HETATM    1  O1          0      12.689  18.302  -2.281  1.00  0.00    -0.286 OA
HETATM    2  C2          0      13.527  17.370  -2.140  1.00  0.00     0.201 C 
HETATM    3  C3          0      14.559  17.422  -1.219  1.00  0.00     0.067 C 
HETATM    4  C4          0      15.529  16.428  -1.155  1.00  0.00     0.103 C 
HETATM    5  O13         0      15.443  15.403  -1.984  1.00  0.00    -0.307 OA
HETATM    6  C14         0      14.505  15.323  -2.902  1.00  0.00     0.107 C 
HETATM    7  C15         0      14.631  14.492  -4.006  1.00  0.00     0.049 C 
HETATM    8  C16         0      13.769  14.598  -5.091  1.00  0.00     0.093 C 
HETATM    9  C18         0      12.528  15.151  -4.802  1.00  0.00     0.048 C 
HETATM   10  C19         0      12.355  15.949  -3.680  1.00  0.00     0.096 C 
HETATM   11  C21         0      13.411  16.180  -2.841  1.00  0.00     0.084 C 
ENDROOT
BRANCH  10  12
HETATM   12  O20         0      11.279  16.830  -3.631  1.00  0.00    -0.359 OA
HETATM   13  H20         0      11.176  17.448  -4.344  1.00  0.00     0.218 HD
ENDBRANCH  10  12
BRANCH   4  14
HETATM   14  C5          0      16.846  16.809  -0.639  1.00  0.00     0.025 C 
HETATM   15  C6          0      17.987  16.051  -0.857  1.00  0.00     0.004 C 
HETATM   16  C7          0      19.177  16.731  -1.094  1.00  0.00     0.026 C 
HETATM   17  C8          0      19.260  18.115  -0.985  1.00  0.00     0.112 C 
HETATM   18  C10         0      18.292  18.692  -0.175  1.00  0.00     0.112 C 
HETATM   19  C12         0      17.078  18.032  -0.023  1.00  0.00     0.028 C 
BRANCH  17  20
HETATM   20  O9          0      20.113  18.840  -1.799  1.00  0.00    -0.357 OA
HETATM   21  H9          0      21.019  19.028  -1.580  1.00  0.00     0.218 HD
ENDBRANCH  17  20
BRANCH  18  22
HETATM   22  O11         0      18.441  20.040   0.119  1.00  0.00    -0.357 OA
HETATM   23  H11         0      18.149  20.328   0.977  1.00  0.00     0.218 HD
ENDBRANCH  18  22
ENDBRANCH   4  14
BRANCH   8  24
HETATM   24  O17         0      14.234  14.476  -6.405  1.00  0.00    -0.359 OA
HETATM   25  H17         0      14.947  13.891  -6.630  1.00  0.00     0.218 HD
ENDBRANCH   8  24
TORSDOF 5
ENDMDL
MODEL 4
REMARK VINA RESULT:      -0.3      2.540      4.115
REMARK  5 active torsions:
REMARK  status: ('A' for Active; 'I' for Inactive)
REMARK    1  A    between atoms: C4_4  and  C5_5 
REMARK    2  A    between atoms: C8_8  and  O9_9 
REMARK    3  A    between atoms: C10_11  and  O11_12 
REMARK    4  A    between atoms: C16_18  and  O17_19 
REMARK    5  A    between atoms: C19_22  and  O20_23 
ROOT
HETATM    1  O1          0      15.639  13.451  -2.804  1.00  0.00    -0.286 OA
HETATM    2  C2          0      16.470  14.146  -3.451  1.00  0.00     0.201 C 
HETATM    3  C3          0      17.112  15.246  -2.910  1.00  0.00     0.067 C 
HETATM    4  C4          0      17.944  16.054  -3.676  1.00  0.00     0.103 C 
HETATM    5  O13         0      18.135  15.745  -4.946  1.00  0.00    -0.307 OA
HETATM    6  C14         0      17.520  14.734  -5.520  1.00  0.00     0.107 C 
HETATM    7  C15         0      17.395  14.641  -6.898  1.00  0.00     0.049 C 
HETATM    8  C16         0      16.536  13.720  -7.485  1.00  0.00     0.093 C 
HETATM    9  C18         0      16.250  12.605  -6.705  1.00  0.00     0.048 C 
HETATM   10  C19         0      16.409  12.648  -5.327  1.00  0.00     0.096 C 
HETATM   11  C21         0      16.867  13.792  -4.732  1.00  0.00     0.084 C 
ENDROOT
BRANCH  10  12
HETATM   12  O20         0      15.731  11.727  -4.535  1.00  0.00    -0.359 OA
HETATM   13  H20         0      15.621  11.928  -3.613  1.00  0.00     0.218 HD
ENDBRANCH  10  12
BRANCH   4  14
HETATM   14  C5          0      18.088  17.451  -3.261  1.00  0.00     0.025 C 
HETATM   15  C6          0      17.421  18.494  -3.888  1.00  0.00     0.004 C 
HETATM   16  C7          0      16.941  19.525  -3.088  1.00  0.00     0.026 C 
HETATM   17  C8          0      17.229  19.588  -1.729  1.00  0.00     0.112 C 
HETATM   18  C10         0      18.373  18.901  -1.346  1.00  0.00     0.112 C 
HETATM   19  C12         0      18.783  17.820  -2.117  1.00  0.00     0.028 C 
BRANCH  17  20
HETATM   20  O9          0      16.315  20.118  -0.835  1.00  0.00    -0.357 OA
HETATM   21  H9          0      15.413  20.315  -1.056  1.00  0.00     0.218 HD
ENDBRANCH  17  20
BRANCH  18  22
HETATM   22  O11         0      18.810  19.086  -0.042  1.00  0.00    -0.357 OA
HETATM   23  H11         0      18.466  19.839   0.425  1.00  0.00     0.218 HD
ENDBRANCH  18  22
ENDBRANCH   4  14
BRANCH   8  24
HETATM   24  O17         0      15.766  14.051  -8.605  1.00  0.00    -0.359 OA
HETATM   25  H17         0      15.202  14.815  -8.615  1.00  0.00     0.218 HD
ENDBRANCH   8  24
TORSDOF 5
ENDMDL
MODEL 5
REMARK VINA RESULT:      -0.2      2.778      4.676
REMARK  5 active torsions:
REMARK  status: ('A' for Active; 'I' for Inactive)
REMARK    1  A    between atoms: C4_4  and  C5_5 
REMARK    2  A    between atoms: C8_8  and  O9_9 
REMARK    3  A    between atoms: C10_11  and  O11_12 
REMARK    4  A    between atoms: C16_18  and  O17_19 
REMARK    5  A    between atoms: C19_22  and  O20_23 
ROOT
HETATM    1  O1          0      13.689  17.789  -5.682  1.00  0.00    -0.286 OA
HETATM    2  C2          0      14.691  17.131  -5.289  1.00  0.00     0.201 C 
HETATM    3  C3          0      15.034  17.011  -3.953  1.00  0.00     0.067 C 
HETATM    4  C4          0      16.199  16.367  -3.554  1.00  0.00     0.103 C 
HETATM    5  O13         0      16.983  15.842  -4.480  1.00  0.00    -0.307 OA
HETATM    6  C14         0      16.723  15.960  -5.764  1.00  0.00     0.107 C 
HETATM    7  C15         0      17.705  15.778  -6.727  1.00  0.00     0.049 C 
HETATM    8  C16         0      17.495  16.149  -8.050  1.00  0.00     0.093 C 
HETATM    9  C18         0      16.164  16.190  -8.444  1.00  0.00     0.048 C 
HETATM   10  C19         0      15.153  16.324  -7.502  1.00  0.00     0.096 C 
HETATM   11  C21         0      15.469  16.399  -6.173  1.00  0.00     0.084 C 
ENDROOT
BRANCH  10  12
HETATM   12  O20         0      13.906  16.794  -7.904  1.00  0.00    -0.359 OA
HETATM   13  H20         0      13.793  17.032  -8.816  1.00  0.00     0.218 HD
ENDBRANCH  10  12
BRANCH   4  14
HETATM   14  C5          0      16.793  16.782  -2.282  1.00  0.00     0.025 C 
HETATM   15  C6          0      18.135  16.599  -1.983  1.00  0.00     0.004 C 
HETATM   16  C7          0      18.780  17.607  -1.273  1.00  0.00     0.026 C 
HETATM   17  C8          0      18.086  18.698  -0.761  1.00  0.00     0.112 C 
HETATM   18  C10         0      16.730  18.479  -0.558  1.00  0.00     0.112 C 
HETATM   19  C12         0      16.091  17.524  -1.340  1.00  0.00     0.028 C 
BRANCH  17  20
HETATM   20  O9          0      18.684  19.943  -0.676  1.00  0.00    -0.357 OA
HETATM   21  H9          0      19.521  20.154  -1.074  1.00  0.00     0.218 HD
ENDBRANCH  17  20
BRANCH  18  22
HETATM   22  O11         0      16.029  19.463   0.124  1.00  0.00    -0.357 OA
HETATM   23  H11         0      15.442  19.174   0.813  1.00  0.00     0.218 HD
ENDBRANCH  18  22
ENDBRANCH   4  14
BRANCH   8  24
HETATM   24  O17         0      18.505  16.754  -8.807  1.00  0.00    -0.359 OA
HETATM   25  H17         0      18.516  17.690  -8.967  1.00  0.00     0.218 HD
ENDBRANCH   8  24
TORSDOF 5
ENDMDL
MODEL 6
REMARK VINA RESULT:      -0.2      3.975      6.565
REMARK  5 active torsions:
REMARK  status: ('A' for Active; 'I' for Inactive)
REMARK    1  A    between atoms: C4_4  and  C5_5 
REMARK    2  A    between atoms: C8_8  and  O9_9 
REMARK    3  A    between atoms: C10_11  and  O11_12 
REMARK    4  A    between atoms: C16_18  and  O17_19 
REMARK    5  A    between atoms: C19_22  and  O20_23 
ROOT
HETATM    1  O1          0      15.737  15.870  -4.445  1.00  0.00    -0.286 OA
HETATM    2  C2          0      15.979  17.014  -4.919  1.00  0.00     0.201 C 
HETATM    3  C3          0      16.020  17.270  -6.279  1.00  0.00     0.067 C 
HETATM    4  C4          0      16.389  18.515  -6.775  1.00  0.00     0.103 C 
HETATM    5  O13         0      16.686  19.477  -5.919  1.00  0.00    -0.307 OA
HETATM    6  C14         0      16.699  19.277  -4.619  1.00  0.00     0.107 C 
HETATM    7  C15         0      17.377  20.125  -3.756  1.00  0.00     0.049 C 
HETATM    8  C16         0      17.603  19.775  -2.430  1.00  0.00     0.093 C 
HETATM    9  C18         0      16.701  18.857  -1.903  1.00  0.00     0.048 C 
HETATM   10  C19         0      15.971  18.026  -2.741  1.00  0.00     0.096 C 
HETATM   11  C21         0      16.127  18.121  -4.097  1.00  0.00     0.084 C 
ENDROOT
BRANCH  10  12
HETATM   12  O20         0      15.425  16.853  -2.229  1.00  0.00    -0.359 OA
HETATM   13  H20         0      16.007  16.247  -1.787  1.00  0.00     0.218 HD
ENDBRANCH  10  12
BRANCH   4  14
HETATM   14  C5          0      16.983  18.554  -8.112  1.00  0.00     0.025 C 
HETATM   15  C6          0      18.247  19.068  -8.359  1.00  0.00     0.004 C 
HETATM   16  C7          0      19.036  18.416  -9.302  1.00  0.00     0.026 C 
HETATM   17  C8          0      18.537  17.370 -10.071  1.00  0.00     0.112 C 
HETATM   18  C10         0      17.156  17.359 -10.209  1.00  0.00     0.112 C 
HETATM   19  C12         0      16.388  17.944  -9.209  1.00  0.00     0.028 C 
BRANCH  17  20
HETATM   20  O9          0      19.358  16.330 -10.470  1.00  0.00    -0.357 OA
HETATM   21  H9          0      19.646  15.633  -9.891  1.00  0.00     0.218 HD
ENDBRANCH  17  20
BRANCH  18  22
HETATM   22  O11         0      16.622  16.454 -11.116  1.00  0.00    -0.357 OA
HETATM   23  H11         0      16.506  15.561 -10.814  1.00  0.00     0.218 HD
ENDBRANCH  18  22
ENDBRANCH   4  14
BRANCH   8  24
HETATM   24  O17         0      18.819  20.057  -1.797  1.00  0.00    -0.359 OA
HETATM   25  H17         0      19.249  20.898  -1.897  1.00  0.00     0.218 HD
ENDBRANCH   8  24
TORSDOF 5
ENDMDL
MODEL 7
REMARK VINA RESULT:      -0.2      3.303      4.041
REMARK  5 active torsions:
REMARK  status: ('A' for Active; 'I' for Inactive)
REMARK    1  A    between atoms: C4_4  and  C5_5 
REMARK    2  A    between atoms: C8_8  and  O9_9 
REMARK    3  A    between atoms: C10_11  and  O11_12 
REMARK    4  A    between atoms: C16_18  and  O17_19 
REMARK    5  A    between atoms: C19_22  and  O20_23 
ROOT
HETATM    1  O1          0      14.971  12.308  -2.338  1.00  0.00    -0.286 OA
HETATM    2  C2          0      15.828  12.929  -1.650  1.00  0.00     0.201 C 
HETATM    3  C3          0      15.941  14.308  -1.661  1.00  0.00     0.067 C 
HETATM    4  C4          0      16.959  14.961  -0.975  1.00  0.00     0.103 C 
HETATM    5  O13         0      17.822  14.239  -0.282  1.00  0.00    -0.307 OA
HETATM    6  C14         0      17.781  12.925  -0.268  1.00  0.00     0.107 C 
HETATM    7  C15         0      18.879  12.163   0.106  1.00  0.00     0.049 C 
HETATM    8  C16         0      18.919  10.793  -0.122  1.00  0.00     0.093 C 
HETATM    9  C18         0      17.677  10.179  -0.225  1.00  0.00     0.048 C 
HETATM   10  C19         0      16.549  10.919  -0.552  1.00  0.00     0.096 C 
HETATM   11  C21         0      16.658  12.268  -0.758  1.00  0.00     0.084 C 
ENDROOT
BRANCH  10  12
HETATM   12  O20         0      15.435  10.268  -1.072  1.00  0.00    -0.359 OA
HETATM   13  H20         0      15.023   9.597  -0.541  1.00  0.00     0.218 HD
ENDBRANCH  10  12
BRANCH   4  14
HETATM   14  C5          0      17.383  16.265  -1.487  1.00  0.00     0.025 C 
HETATM   15  C6          0      16.498  17.181  -2.038  1.00  0.00     0.004 C 
HETATM   16  C7          0      16.708  18.528  -1.760  1.00  0.00     0.026 C 
HETATM   17  C8          0      17.834  18.964  -1.071  1.00  0.00     0.112 C 
HETATM   18  C10         0      18.920  18.100  -1.129  1.00  0.00     0.112 C 
HETATM   19  C12         0      18.676  16.745  -1.323  1.00  0.00     0.028 C 
BRANCH  17  20
HETATM   20  O9          0      17.771  20.063  -0.234  1.00  0.00    -0.357 OA
HETATM   21  H9          0      17.542  20.938  -0.527  1.00  0.00     0.218 HD
ENDBRANCH  17  20
BRANCH  18  22
HETATM   22  O11         0      20.123  18.568  -0.622  1.00  0.00    -0.357 OA
HETATM   23  H11         0      20.229  18.547   0.323  1.00  0.00     0.218 HD
ENDBRANCH  18  22
ENDBRANCH   4  14
BRANCH   8  24
HETATM   24  O17         0      20.091  10.159  -0.548  1.00  0.00    -0.359 OA
HETATM   25  H17         0      20.931  10.334  -0.139  1.00  0.00     0.218 HD
ENDBRANCH   8  24
TORSDOF 5
ENDMDL
MODEL 8
REMARK VINA RESULT:      -0.2      2.867      3.614
REMARK  5 active torsions:
REMARK  status: ('A' for Active; 'I' for Inactive)
REMARK    1  A    between atoms: C4_4  and  C5_5 
REMARK    2  A    between atoms: C8_8  and  O9_9 
REMARK    3  A    between atoms: C10_11  and  O11_12 
REMARK    4  A    between atoms: C16_18  and  O17_19 
REMARK    5  A    between atoms: C19_22  and  O20_23 
ROOT
HETATM    1  O1          0      15.520  16.403  -7.908  1.00  0.00    -0.286 OA
HETATM    2  C2          0      15.337  16.853  -6.744  1.00  0.00     0.201 C 
HETATM    3  C3          0      16.365  17.350  -5.961  1.00  0.00     0.067 C 
HETATM    4  C4          0      16.153  17.745  -4.645  1.00  0.00     0.103 C 
HETATM    5  O13         0      14.933  17.658  -4.145  1.00  0.00    -0.307 OA
HETATM    6  C14         0      13.929  17.159  -4.832  1.00  0.00     0.107 C 
HETATM    7  C15         0      12.776  16.698  -4.213  1.00  0.00     0.049 C 
HETATM    8  C16         0      11.836  15.946  -4.907  1.00  0.00     0.093 C 
HETATM    9  C18         0      11.832  16.136  -6.283  1.00  0.00     0.048 C 
HETATM   10  C19         0      12.953  16.639  -6.929  1.00  0.00     0.096 C 
HETATM   11  C21         0      14.065  16.967  -6.203  1.00  0.00     0.084 C 
ENDROOT
BRANCH  10  12
HETATM   12  O20         0      13.107  16.421  -8.295  1.00  0.00    -0.359 OA
HETATM   13  H20         0      13.053  15.527  -8.612  1.00  0.00     0.218 HD
ENDBRANCH  10  12
BRANCH   4  14
HETATM   14  C5          0      17.295  17.674  -3.732  1.00  0.00     0.025 C 
HETATM   15  C6          0      18.609  17.624  -4.174  1.00  0.00     0.004 C 
HETATM   16  C7          0      19.562  18.328  -3.445  1.00  0.00     0.026 C 
HETATM   17  C8          0      19.246  18.951  -2.242  1.00  0.00     0.112 C 
HETATM   18  C10         0      18.136  18.427  -1.592  1.00  0.00     0.112 C 
HETATM   19  C12         0      17.158  17.802  -2.356  1.00  0.00     0.028 C 
BRANCH  17  20
HETATM   20  O9          0      19.875  20.124  -1.864  1.00  0.00    -0.357 OA
HETATM   21  H9          0      19.523  20.990  -2.035  1.00  0.00     0.218 HD
ENDBRANCH  17  20
BRANCH  18  22
HETATM   22  O11         0      17.890  18.881  -0.304  1.00  0.00    -0.357 OA
HETATM   23  H11         0      18.365  19.655  -0.023  1.00  0.00     0.218 HD
ENDBRANCH  18  22
ENDBRANCH   4  14
BRANCH   8  24
HETATM   24  O17         0      11.195  14.853  -4.313  1.00  0.00    -0.359 OA
HETATM   25  H17         0      11.673  14.075  -4.052  1.00  0.00     0.218 HD
ENDBRANCH   8  24
TORSDOF 5
ENDMDL
MODEL 9
REMARK VINA RESULT:      -0.2      3.984      7.121
REMARK  5 active torsions:
REMARK  status: ('A' for Active; 'I' for Inactive)
REMARK    1  A    between atoms: C4_4  and  C5_5 
REMARK    2  A    between atoms: C8_8  and  O9_9 
REMARK    3  A    between atoms: C10_11  and  O11_12 
REMARK    4  A    between atoms: C16_18  and  O17_19 
REMARK    5  A    between atoms: C19_22  and  O20_23 
ROOT
HETATM    1  O1          0      13.962  19.493  -5.398  1.00  0.00    -0.286 OA
HETATM    2  C2          0      13.850  18.623  -4.491  1.00  0.00     0.201 C 
HETATM    3  C3          0      12.860  17.656  -4.495  1.00  0.00     0.067 C 
HETATM    4  C4          0      12.696  16.775  -3.432  1.00  0.00     0.103 C 
HETATM    5  O13         0      13.525  16.858  -2.407  1.00  0.00    -0.307 OA
HETATM    6  C14         0      14.459  17.781  -2.335  1.00  0.00     0.107 C 
HETATM    7  C15         0      15.051  18.129  -1.129  1.00  0.00     0.049 C 
HETATM    8  C16         0      15.841  19.266  -1.016  1.00  0.00     0.093 C 
HETATM    9  C18         0      16.423  19.698  -2.202  1.00  0.00     0.048 C 
HETATM   10  C19         0      15.883  19.330  -3.427  1.00  0.00     0.096 C 
HETATM   11  C21         0      14.780  18.521  -3.467  1.00  0.00     0.084 C 
ENDROOT
BRANCH  10  12
HETATM   12  O20         0      16.178  20.088  -4.556  1.00  0.00    -0.359 OA
HETATM   13  H20         0      15.697  20.895  -4.688  1.00  0.00     0.218 HD
ENDBRANCH  10  12
BRANCH   4  14
HETATM   14  C5          0      11.355  16.231  -3.213  1.00  0.00     0.025 C 
HETATM   15  C6          0      10.832  16.007  -1.947  1.00  0.00     0.004 C 
HETATM   16  C7          0       9.483  16.283  -1.749  1.00  0.00     0.026 C 
HETATM   17  C8          0       8.649  16.641  -2.803  1.00  0.00     0.112 C 
HETATM   18  C10         0       9.086  16.228  -4.054  1.00  0.00     0.112 C 
HETATM   19  C12         0      10.450  16.041  -4.249  1.00  0.00     0.028 C 
BRANCH  17  20
HETATM   20  O9          0       7.596  17.517  -2.608  1.00  0.00    -0.357 OA
HETATM   21  H9          0       6.698  17.326  -2.853  1.00  0.00     0.218 HD
ENDBRANCH  17  20
BRANCH  18  22
HETATM   22  O11         0       8.205  16.391  -5.114  1.00  0.00    -0.357 OA
HETATM   23  H11         0       7.371  15.939  -5.053  1.00  0.00     0.218 HD
ENDBRANCH  18  22
ENDBRANCH   4  14
BRANCH   8  24
HETATM   24  O17         0      15.777  20.089   0.114  1.00  0.00    -0.359 OA
HETATM   25  H17         0      15.042  20.671   0.267  1.00  0.00     0.218 HD
ENDBRANCH   8  24
TORSDOF 5
ENDMDL
