MODEL 1
REMARK VINA RESULT:      -6.1      0.000      0.000
REMARK  5 active torsions:
REMARK  status: ('A' for Active; 'I' for Inactive)
REMARK    1  A    between atoms: C4_4  and  C5_5 
REMARK    2  A    between atoms: C8_8  and  O9_9 
REMARK    3  A    between atoms: C10_11  and  O11_12 
REMARK    4  A    between atoms: C16_18  and  O17_19 
REMARK    5  A    between atoms: C19_22  and  O20_23 
ROOT
HETATM    1  O1          0      22.914  34.908  28.538  1.00  0.00    -0.286 OA
HETATM    2  C2          0      23.852  34.686  27.724  1.00  0.00     0.201 C 
HETATM    3  C3          0      24.164  33.418  27.267  1.00  0.00     0.067 C 
HETATM    4  C4          0      25.267  33.189  26.451  1.00  0.00     0.103 C 
HETATM    5  O13         0      26.016  34.216  26.093  1.00  0.00    -0.307 OA
HETATM    6  C14         0      25.786  35.435  26.530  1.00  0.00     0.107 C 
HETATM    7  C15         0      26.762  36.420  26.496  1.00  0.00     0.049 C 
HETATM    8  C16         0      26.603  37.618  27.183  1.00  0.00     0.093 C 
HETATM    9  C18         0      25.284  37.984  27.427  1.00  0.00     0.048 C 
HETATM   10  C19         0      24.275  37.030  27.422  1.00  0.00     0.096 C 
HETATM   11  C21         0      24.578  35.722  27.157  1.00  0.00     0.084 C 
ENDROOT
BRANCH  10  12
HETATM   12  O20         0      23.078  37.303  28.076  1.00  0.00    -0.359 OA
HETATM   13  H20         0      23.084  37.963  28.759  1.00  0.00     0.218 HD
ENDBRANCH  10  12
BRANCH   4  14
HETATM   14  C5          0      25.875  31.858  26.504  1.00  0.00     0.025 C 
HETATM   15  C6          0      26.095  31.085  25.373  1.00  0.00     0.004 C 
HETATM   16  C7          0      27.267  30.339  25.321  1.00  0.00     0.026 C 
HETATM   17  C8          0      28.128  30.256  26.410  1.00  0.00     0.112 C 
HETATM   18  C10         0      27.536  30.513  27.639  1.00  0.00     0.112 C 
HETATM   19  C12         0      26.413  31.332  27.672  1.00  0.00     0.028 C 
BRANCH  17  20
HETATM   20  O9          0      29.495  30.136  26.226  1.00  0.00    -0.357 OA
HETATM   21  H9          0      29.931  29.315  26.028  1.00  0.00     0.218 HD
ENDBRANCH  17  20
BRANCH  18  22
HETATM   22  O11         0      28.299  30.260  28.770  1.00  0.00    -0.357 OA
HETATM   23  H11         0      28.758  30.999  29.152  1.00  0.00     0.218 HD
ENDBRANCH  18  22
ENDBRANCH   4  14
BRANCH   8  24
HETATM   24  O17         0      27.670  38.218  27.861  1.00  0.00    -0.359 OA
HETATM   25  H17         0      27.814  39.156  27.834  1.00  0.00     0.218 HD
ENDBRANCH   8  24
TORSDOF 5
ENDMDL
MODEL 2
REMARK VINA RESULT:      -6.1      2.340      3.185
REMARK  5 active torsions:
REMARK  status: ('A' for Active; 'I' for Inactive)
REMARK    1  A    between atoms: C4_4  and  C5_5 
REMARK    2  A    between atoms: C8_8  and  O9_9 
REMARK    3  A    between atoms: C10_11  and  O11_12 
REMARK    4  A    between atoms: C16_18  and  O17_19 
REMARK    5  A    between atoms: C19_22  and  O20_23 
ROOT
HETATM    1  O1          0      27.147  37.089  27.402  1.00  0.00    -0.286 OA
HETATM    2  C2          0      26.793  36.372  26.426  1.00  0.00     0.201 C 
HETATM    3  C3          0      26.274  35.098  26.579  1.00  0.00     0.067 C 
HETATM    4  C4          0      25.989  34.291  25.484  1.00  0.00     0.103 C 
HETATM    5  O13         0      26.203  34.769  24.270  1.00  0.00    -0.307 OA
HETATM    6  C14         0      26.729  35.957  24.070  1.00  0.00     0.107 C 
HETATM    7  C15         0      27.318  36.301  22.862  1.00  0.00     0.049 C 
HETATM    8  C16         0      28.090  37.450  22.737  1.00  0.00     0.093 C 
HETATM    9  C18         0      27.806  38.451  23.658  1.00  0.00     0.048 C 
HETATM   10  C19         0      27.175  38.148  24.857  1.00  0.00     0.096 C 
HETATM   11  C21         0      26.815  36.857  25.127  1.00  0.00     0.084 C 
ENDROOT
BRANCH  10  12
HETATM   12  O20         0      27.287  39.032  25.926  1.00  0.00    -0.359 OA
HETATM   13  H20         0      28.155  39.325  26.172  1.00  0.00     0.218 HD
ENDBRANCH  10  12
BRANCH   4  14
HETATM   14  C5          0      26.035  32.842  25.689  1.00  0.00     0.025 C 
HETATM   15  C6          0      26.043  31.934  24.640  1.00  0.00     0.004 C 
HETATM   16  C7          0      26.841  30.802  24.773  1.00  0.00     0.026 C 
HETATM   17  C8          0      27.506  30.514  25.960  1.00  0.00     0.112 C 
HETATM   18  C10         0      26.951  31.096  27.091  1.00  0.00     0.112 C 
HETATM   19  C12         0      26.228  32.273  26.941  1.00  0.00     0.028 C 
BRANCH  17  20
HETATM   20  O9          0      28.733  29.875  25.948  1.00  0.00    -0.357 OA
HETATM   21  H9          0      29.176  29.567  26.730  1.00  0.00     0.218 HD
ENDBRANCH  17  20
BRANCH  18  22
HETATM   22  O11         0      27.457  30.691  28.319  1.00  0.00    -0.357 OA
HETATM   23  H11         0      28.366  30.417  28.339  1.00  0.00     0.218 HD
ENDBRANCH  18  22
ENDBRANCH   4  14
BRANCH   8  24
HETATM   24  O17         0      29.267  37.458  21.980  1.00  0.00    -0.359 OA
HETATM   25  H17         0      30.080  37.102  22.318  1.00  0.00     0.218 HD
ENDBRANCH   8  24
TORSDOF 5
ENDMDL
MODEL 3
REMARK VINA RESULT:      -6.0      1.713      6.592
REMARK  5 active torsions:
REMARK  status: ('A' for Active; 'I' for Inactive)
REMARK    1  A    between atoms: C4_4  and  C5_5 
REMARK    2  A    between atoms: C8_8  and  O9_9 
REMARK    3  A    between atoms: C10_11  and  O11_12 
REMARK    4  A    between atoms: C16_18  and  O17_19 
REMARK    5  A    between atoms: C19_22  and  O20_23 
ROOT
HETATM    1  O1          0      27.058  34.000  23.444  1.00  0.00    -0.286 OA
HETATM    2  C2          0      26.375  34.281  24.467  1.00  0.00     0.201 C 
HETATM    3  C3          0      25.921  35.561  24.737  1.00  0.00     0.067 C 
HETATM    4  C4          0      25.259  35.864  25.922  1.00  0.00     0.103 C 
HETATM    5  O13         0      25.045  34.895  26.795  1.00  0.00    -0.307 OA
HETATM    6  C14         0      25.488  33.672  26.604  1.00  0.00     0.107 C 
HETATM    7  C15         0      25.625  32.773  27.652  1.00  0.00     0.049 C 
HETATM    8  C16         0      26.325  31.582  27.494  1.00  0.00     0.093 C 
HETATM    9  C18         0      26.396  31.112  26.189  1.00  0.00     0.048 C 
HETATM   10  C19         0      26.216  31.976  25.117  1.00  0.00     0.096 C 
HETATM   11  C21         0      25.951  33.298  25.348  1.00  0.00     0.084 C 
ENDROOT
BRANCH  10  12
HETATM   12  O20         0      26.707  31.617  23.865  1.00  0.00    -0.359 OA
HETATM   13  H20         0      26.151  31.091  23.303  1.00  0.00     0.218 HD
ENDBRANCH  10  12
BRANCH   4  14
HETATM   14  C5          0      25.350  37.242  26.406  1.00  0.00     0.025 C 
HETATM   15  C6          0      24.234  38.030  26.646  1.00  0.00     0.004 C 
HETATM   16  C7          0      24.267  38.876  27.751  1.00  0.00     0.026 C 
HETATM   17  C8          0      25.419  39.034  28.514  1.00  0.00     0.112 C 
HETATM   18  C10         0      26.600  38.727  27.852  1.00  0.00     0.112 C 
HETATM   19  C12         0      26.552  37.813  26.805  1.00  0.00     0.028 C 
BRANCH  17  20
HETATM   20  O9          0      25.340  39.271  29.875  1.00  0.00    -0.357 OA
HETATM   21  H9          0      24.791  39.943  30.263  1.00  0.00     0.218 HD
ENDBRANCH  17  20
BRANCH  18  22
HETATM   22  O11         0      27.785  39.045  28.500  1.00  0.00    -0.357 OA
HETATM   23  H11         0      27.793  39.845  29.012  1.00  0.00     0.218 HD
ENDBRANCH  18  22
ENDBRANCH   4  14
BRANCH   8  24
HETATM   24  O17         0      27.165  31.091  28.500  1.00  0.00    -0.359 OA
HETATM   25  H17         0      27.509  30.207  28.474  1.00  0.00     0.218 HD
ENDBRANCH   8  24
TORSDOF 5
ENDMDL
MODEL 4
REMARK VINA RESULT:      -5.8      1.623      6.621
REMARK  5 active torsions:
REMARK  status: ('A' for Active; 'I' for Inactive)
REMARK    1  A    between atoms: C4_4  and  C5_5 
REMARK    2  A    between atoms: C8_8  and  O9_9 
REMARK    3  A    between atoms: C10_11  and  O11_12 
REMARK    4  A    between atoms: C16_18  and  O17_19 
REMARK    5  A    between atoms: C19_22  and  O20_23 
ROOT
HETATM    1  O1          0      25.969  32.720  23.255  1.00  0.00    -0.286 OA
HETATM    2  C2          0      25.966  32.838  24.511  1.00  0.00     0.201 C 
HETATM    3  C3          0      25.450  33.948  25.159  1.00  0.00     0.067 C 
HETATM    4  C4          0      25.551  34.100  26.537  1.00  0.00     0.103 C 
HETATM    5  O13         0      26.138  33.147  27.239  1.00  0.00    -0.307 OA
HETATM    6  C14         0      26.678  32.091  26.670  1.00  0.00     0.107 C 
HETATM    7  C15         0      27.620  31.310  27.324  1.00  0.00     0.049 C 
HETATM    8  C16         0      28.369  30.360  26.640  1.00  0.00     0.093 C 
HETATM    9  C18         0      27.783  29.876  25.477  1.00  0.00     0.048 C 
HETATM   10  C19         0      26.803  30.610  24.823  1.00  0.00     0.096 C 
HETATM   11  C21         0      26.399  31.812  25.337  1.00  0.00     0.084 C 
ENDROOT
BRANCH  10  12
HETATM   12  O20         0      26.544  30.354  23.480  1.00  0.00    -0.359 OA
HETATM   13  H20         0      26.939  30.927  22.834  1.00  0.00     0.218 HD
ENDBRANCH  10  12
BRANCH   4  14
HETATM   14  C5          0      25.556  35.466  27.061  1.00  0.00     0.025 C 
HETATM   15  C6          0      26.691  36.264  27.072  1.00  0.00     0.004 C 
HETATM   16  C7          0      26.531  37.617  26.794  1.00  0.00     0.026 C 
HETATM   17  C8          0      25.271  38.187  26.644  1.00  0.00     0.112 C 
HETATM   18  C10         0      24.242  37.488  27.260  1.00  0.00     0.112 C 
HETATM   19  C12         0      24.393  36.119  27.449  1.00  0.00     0.028 C 
BRANCH  17  20
HETATM   20  O9          0      25.068  39.240  25.769  1.00  0.00    -0.357 OA
HETATM   21  H9          0      24.473  39.205  25.029  1.00  0.00     0.218 HD
ENDBRANCH  17  20
BRANCH  18  22
HETATM   22  O11         0      23.000  38.106  27.303  1.00  0.00    -0.357 OA
HETATM   23  H11         0      22.609  38.226  28.161  1.00  0.00     0.218 HD
ENDBRANCH  18  22
ENDBRANCH   4  14
BRANCH   8  24
HETATM   24  O17         0      29.728  30.167  26.915  1.00  0.00    -0.359 OA
HETATM   25  H17         0      30.379  30.825  26.700  1.00  0.00     0.218 HD
ENDBRANCH   8  24
TORSDOF 5
ENDMDL
MODEL 5
REMARK VINA RESULT:      -5.6      1.998      6.528
REMARK  5 active torsions:
REMARK  status: ('A' for Active; 'I' for Inactive)
REMARK    1  A    between atoms: C4_4  and  C5_5 
REMARK    2  A    between atoms: C8_8  and  O9_9 
REMARK    3  A    between atoms: C10_11  and  O11_12 
REMARK    4  A    between atoms: C16_18  and  O17_19 
REMARK    5  A    between atoms: C19_22  and  O20_23 
ROOT
HETATM    1  O1          0      26.001  32.644  23.196  1.00  0.00    -0.286 OA
HETATM    2  C2          0      25.915  33.231  24.310  1.00  0.00     0.201 C 
HETATM    3  C3          0      25.994  34.607  24.440  1.00  0.00     0.067 C 
HETATM    4  C4          0      26.000  35.221  25.687  1.00  0.00     0.103 C 
HETATM    5  O13         0      25.907  34.466  26.767  1.00  0.00    -0.307 OA
HETATM    6  C14         0      25.867  33.153  26.701  1.00  0.00     0.107 C 
HETATM    7  C15         0      26.170  32.356  27.796  1.00  0.00     0.049 C 
HETATM    8  C16         0      26.376  30.989  27.658  1.00  0.00     0.093 C 
HETATM    9  C18         0      25.762  30.411  26.554  1.00  0.00     0.048 C 
HETATM   10  C19         0      25.402  31.187  25.460  1.00  0.00     0.096 C 
HETATM   11  C21         0      25.640  32.535  25.476  1.00  0.00     0.084 C 
ENDROOT
BRANCH  10  12
HETATM   12  O20         0      25.205  30.574  24.227  1.00  0.00    -0.359 OA
HETATM   13  H20         0      25.723  29.805  24.024  1.00  0.00     0.218 HD
ENDBRANCH  10  12
BRANCH   4  14
HETATM   14  C5          0      26.667  36.520  25.791  1.00  0.00     0.025 C 
HETATM   15  C6          0      26.759  37.406  24.727  1.00  0.00     0.004 C 
HETATM   16  C7          0      26.627  38.763  25.004  1.00  0.00     0.026 C 
HETATM   17  C8          0      26.542  39.235  26.309  1.00  0.00     0.112 C 
HETATM   18  C10         0      27.083  38.390  27.269  1.00  0.00     0.112 C 
HETATM   19  C12         0      27.125  37.027  27.000  1.00  0.00     0.028 C 
BRANCH  17  20
HETATM   20  O9          0      25.785  40.354  26.610  1.00  0.00    -0.357 OA
HETATM   21  H9          0      25.788  40.781  27.459  1.00  0.00     0.218 HD
ENDBRANCH  17  20
BRANCH  18  22
HETATM   22  O11         0      27.196  38.893  28.557  1.00  0.00    -0.357 OA
HETATM   23  H11         0      28.072  38.957  28.919  1.00  0.00     0.218 HD
ENDBRANCH  18  22
ENDBRANCH   4  14
BRANCH   8  24
HETATM   24  O17         0      27.383  30.328  28.370  1.00  0.00    -0.359 OA
HETATM   25  H17         0      28.095  30.801  28.783  1.00  0.00     0.218 HD
ENDBRANCH   8  24
TORSDOF 5
ENDMDL
MODEL 6
REMARK VINA RESULT:      -5.5      2.633      2.789
REMARK  5 active torsions:
REMARK  status: ('A' for Active; 'I' for Inactive)
REMARK    1  A    between atoms: C4_4  and  C5_5 
REMARK    2  A    between atoms: C8_8  and  O9_9 
REMARK    3  A    between atoms: C10_11  and  O11_12 
REMARK    4  A    between atoms: C16_18  and  O17_19 
REMARK    5  A    between atoms: C19_22  and  O20_23 
ROOT
HETATM    1  O1          0      22.968  34.999  25.099  1.00  0.00    -0.286 OA
HETATM    2  C2          0      24.020  34.497  24.617  1.00  0.00     0.201 C 
HETATM    3  C3          0      24.358  33.164  24.780  1.00  0.00     0.067 C 
HETATM    4  C4          0      25.572  32.660  24.326  1.00  0.00     0.103 C 
HETATM    5  O13         0      26.407  33.476  23.708  1.00  0.00    -0.307 OA
HETATM    6  C14         0      26.151  34.758  23.560  1.00  0.00     0.107 C 
HETATM    7  C15         0      27.154  35.677  23.287  1.00  0.00     0.049 C 
HETATM    8  C16         0      26.925  37.044  23.384  1.00  0.00     0.093 C 
HETATM    9  C18         0      25.599  37.430  23.233  1.00  0.00     0.048 C 
HETATM   10  C19         0      24.571  36.522  23.452  1.00  0.00     0.096 C 
HETATM   11  C21         0      24.867  35.233  23.803  1.00  0.00     0.084 C 
ENDROOT
BRANCH  10  12
HETATM   12  O20         0      23.292  36.996  23.728  1.00  0.00    -0.359 OA
HETATM   13  H20         0      22.787  37.358  23.010  1.00  0.00     0.218 HD
ENDBRANCH  10  12
BRANCH   4  14
HETATM   14  C5          0      26.114  31.492  25.022  1.00  0.00     0.025 C 
HETATM   15  C6          0      26.751  30.451  24.362  1.00  0.00     0.004 C 
HETATM   16  C7          0      27.856  29.875  24.981  1.00  0.00     0.026 C 
HETATM   17  C8          0      28.234  30.227  26.272  1.00  0.00     0.112 C 
HETATM   18  C10         0      27.216  30.763  27.049  1.00  0.00     0.112 C 
HETATM   19  C12         0      26.166  31.409  26.408  1.00  0.00     0.028 C 
BRANCH  17  20
HETATM   20  O9          0      29.567  30.229  26.644  1.00  0.00    -0.357 OA
HETATM   21  H9          0      29.876  29.965  27.504  1.00  0.00     0.218 HD
ENDBRANCH  17  20
BRANCH  18  22
HETATM   22  O11         0      27.488  30.955  28.396  1.00  0.00    -0.357 OA
HETATM   23  H11         0      28.262  30.527  28.744  1.00  0.00     0.218 HD
ENDBRANCH  18  22
ENDBRANCH   4  14
BRANCH   8  24
HETATM   24  O17         0      27.886  37.908  23.922  1.00  0.00    -0.359 OA
HETATM   25  H17         0      28.178  38.682  23.456  1.00  0.00     0.218 HD
ENDBRANCH   8  24
TORSDOF 5
ENDMDL
MODEL 7
REMARK VINA RESULT:      -5.4      2.312      6.852
REMARK  5 active torsions:
REMARK  status: ('A' for Active; 'I' for Inactive)
REMARK    1  A    between atoms: C4_4  and  C5_5 
REMARK    2  A    between atoms: C8_8  and  O9_9 
REMARK    3  A    between atoms: C10_11  and  O11_12 
REMARK    4  A    between atoms: C16_18  and  O17_19 
REMARK    5  A    between atoms: C19_22  and  O20_23 
ROOT
HETATM    1  O1          0      26.170  34.421  22.130  1.00  0.00    -0.286 OA
HETATM    2  C2          0      26.129  34.707  23.358  1.00  0.00     0.201 C 
HETATM    3  C3          0      26.251  36.002  23.831  1.00  0.00     0.067 C 
HETATM    4  C4          0      26.306  36.278  25.193  1.00  0.00     0.103 C 
HETATM    5  O13         0      26.219  35.275  26.048  1.00  0.00    -0.307 OA
HETATM    6  C14         0      26.140  34.023  25.651  1.00  0.00     0.107 C 
HETATM    7  C15         0      26.447  32.968  26.497  1.00  0.00     0.049 C 
HETATM    8  C16         0      26.609  31.676  26.011  1.00  0.00     0.093 C 
HETATM    9  C18         0      25.950  31.412  24.816  1.00  0.00     0.048 C 
HETATM   10  C19         0      25.586  32.449  23.967  1.00  0.00     0.096 C 
HETATM   11  C21         0      25.863  33.742  24.318  1.00  0.00     0.084 C 
ENDROOT
BRANCH  10  12
HETATM   12  O20         0      25.340  32.175  22.625  1.00  0.00    -0.359 OA
HETATM   13  H20         0      24.613  32.619  22.206  1.00  0.00     0.218 HD
ENDBRANCH  10  12
BRANCH   4  14
HETATM   14  C5          0      27.014  37.493  25.602  1.00  0.00     0.025 C 
HETATM   15  C6          0      27.192  38.580  24.758  1.00  0.00     0.004 C 
HETATM   16  C7          0      27.095  39.851  25.314  1.00  0.00     0.026 C 
HETATM   17  C8          0      26.960  40.038  26.686  1.00  0.00     0.112 C 
HETATM   18  C10         0      27.420  38.984  27.463  1.00  0.00     0.112 C 
HETATM   19  C12         0      27.427  37.709  26.910  1.00  0.00     0.028 C 
BRANCH  17  20
HETATM   20  O9          0      26.229  41.101  27.187  1.00  0.00    -0.357 OA
HETATM   21  H9          0      26.077  41.246  28.114  1.00  0.00     0.218 HD
ENDBRANCH  17  20
BRANCH  18  22
HETATM   22  O11         0      27.484  39.195  28.833  1.00  0.00    -0.357 OA
HETATM   23  H11         0      28.322  39.041  29.254  1.00  0.00     0.218 HD
ENDBRANCH  18  22
ENDBRANCH   4  14
BRANCH   8  24
HETATM   24  O17         0      27.615  30.834  26.498  1.00  0.00    -0.359 OA
HETATM   25  H17         0      28.532  31.075  26.454  1.00  0.00     0.218 HD
ENDBRANCH   8  24
TORSDOF 5
ENDMDL
MODEL 8
REMARK VINA RESULT:      -5.3      2.626      6.606
REMARK  5 active torsions:
REMARK  status: ('A' for Active; 'I' for Inactive)
REMARK    1  A    between atoms: C4_4  and  C5_5 
REMARK    2  A    between atoms: C8_8  and  O9_9 
REMARK    3  A    between atoms: C10_11  and  O11_12 
REMARK    4  A    between atoms: C16_18  and  O17_19 
REMARK    5  A    between atoms: C19_22  and  O20_23 
ROOT
HETATM    1  O1          0      26.693  32.886  23.709  1.00  0.00    -0.286 OA
HETATM    2  C2          0      25.990  32.662  24.733  1.00  0.00     0.201 C 
HETATM    3  C3          0      24.883  33.426  25.065  1.00  0.00     0.067 C 
HETATM    4  C4          0      24.187  33.223  26.251  1.00  0.00     0.103 C 
HETATM    5  O13         0      24.587  32.262  27.065  1.00  0.00    -0.307 OA
HETATM    6  C14         0      25.653  31.533  26.816  1.00  0.00     0.107 C 
HETATM    7  C15         0      26.302  30.822  27.815  1.00  0.00     0.049 C 
HETATM    8  C16         0      27.559  30.267  27.605  1.00  0.00     0.093 C 
HETATM    9  C18         0      27.868  29.998  26.277  1.00  0.00     0.048 C 
HETATM   10  C19         0      27.205  30.657  25.251  1.00  0.00     0.096 C 
HETATM   11  C21         0      26.227  31.567  25.550  1.00  0.00     0.084 C 
ENDROOT
BRANCH  10  12
HETATM   12  O20         0      27.792  30.720  23.991  1.00  0.00    -0.359 OA
HETATM   13  H20         0      27.239  30.947  23.253  1.00  0.00     0.218 HD
ENDBRANCH  10  12
BRANCH   4  14
HETATM   14  C5          0      23.472  34.370  26.813  1.00  0.00     0.025 C 
HETATM   15  C6          0      22.782  35.283  26.029  1.00  0.00     0.004 C 
HETATM   16  C7          0      21.578  35.776  26.522  1.00  0.00     0.026 C 
HETATM   17  C8          0      21.140  35.477  27.808  1.00  0.00     0.112 C 
HETATM   18  C10         0      22.146  35.116  28.694  1.00  0.00     0.112 C 
HETATM   19  C12         0      23.305  34.546  28.180  1.00  0.00     0.028 C 
BRANCH  17  20
HETATM   20  O9          0      19.790  35.353  28.086  1.00  0.00    -0.357 OA
HETATM   21  H9          0      19.409  35.528  28.938  1.00  0.00     0.218 HD
ENDBRANCH  17  20
BRANCH  18  22
HETATM   22  O11         0      21.792  34.992  30.030  1.00  0.00    -0.357 OA
HETATM   23  H11         0      21.352  35.733  30.429  1.00  0.00     0.218 HD
ENDBRANCH  18  22
ENDBRANCH   4  14
BRANCH   8  24
HETATM   24  O17         0      28.544  30.296  28.598  1.00  0.00    -0.359 OA
HETATM   25  H17         0      28.414  30.760  29.417  1.00  0.00     0.218 HD
ENDBRANCH   8  24
TORSDOF 5
ENDMDL
MODEL 9
REMARK VINA RESULT:      -5.2      2.338      6.546
REMARK  5 active torsions:
REMARK  status: ('A' for Active; 'I' for Inactive)
REMARK    1  A    between atoms: C4_4  and  C5_5 
REMARK    2  A    between atoms: C8_8  and  O9_9 
REMARK    3  A    between atoms: C10_11  and  O11_12 
REMARK    4  A    between atoms: C16_18  and  O17_19 
REMARK    5  A    between atoms: C19_22  and  O20_23 
ROOT
HETATM    1  O1          0      25.695  32.542  27.486  1.00  0.00    -0.286 OA
HETATM    2  C2          0      25.944  33.421  26.616  1.00  0.00     0.201 C 
HETATM    3  C3          0      26.289  34.722  26.941  1.00  0.00     0.067 C 
HETATM    4  C4          0      26.457  35.696  25.964  1.00  0.00     0.103 C 
HETATM    5  O13         0      26.300  35.358  24.696  1.00  0.00    -0.307 OA
HETATM    6  C14         0      25.936  34.147  24.336  1.00  0.00     0.107 C 
HETATM    7  C15         0      25.390  33.889  23.087  1.00  0.00     0.049 C 
HETATM    8  C16         0      24.776  32.675  22.804  1.00  0.00     0.093 C 
HETATM    9  C18         0      25.197  31.608  23.588  1.00  0.00     0.048 C 
HETATM   10  C19         0      25.790  31.831  24.823  1.00  0.00     0.096 C 
HETATM   11  C21         0      25.978  33.113  25.265  1.00  0.00     0.084 C 
ENDROOT
BRANCH  10  12
HETATM   12  O20         0      25.805  30.808  25.766  1.00  0.00    -0.359 OA
HETATM   13  H20         0      25.533  29.942  25.487  1.00  0.00     0.218 HD
ENDBRANCH  10  12
BRANCH   4  14
HETATM   14  C5          0      26.219  37.087  26.357  1.00  0.00     0.025 C 
HETATM   15  C6          0      24.952  37.650  26.398  1.00  0.00     0.004 C 
HETATM   16  C7          0      24.674  38.535  27.435  1.00  0.00     0.026 C 
HETATM   17  C8          0      25.660  38.951  28.323  1.00  0.00     0.112 C 
HETATM   18  C10         0      26.957  38.852  27.838  1.00  0.00     0.112 C 
HETATM   19  C12         0      27.226  37.900  26.862  1.00  0.00     0.028 C 
BRANCH  17  20
HETATM   20  O9          0      25.352  39.230  29.643  1.00  0.00    -0.357 OA
HETATM   21  H9          0      25.347  38.576  30.333  1.00  0.00     0.218 HD
ENDBRANCH  17  20
BRANCH  18  22
HETATM   22  O11         0      27.960  39.426  28.605  1.00  0.00    -0.357 OA
HETATM   23  H11         0      27.882  40.354  28.791  1.00  0.00     0.218 HD
ENDBRANCH  18  22
ENDBRANCH   4  14
BRANCH   8  24
HETATM   24  O17         0      23.605  32.610  22.040  1.00  0.00    -0.359 OA
HETATM   25  H17         0      23.457  31.911  21.413  1.00  0.00     0.218 HD
ENDBRANCH   8  24
TORSDOF 5
ENDMDL
