MODEL 1
REMARK VINA RESULT:      -3.6      0.000      0.000
REMARK  5 active torsions:
REMARK  status: ('A' for Active; 'I' for Inactive)
REMARK    1  A    between atoms: C4_4  and  C5_5 
REMARK    2  A    between atoms: C8_8  and  O9_9 
REMARK    3  A    between atoms: C10_11  and  O11_12 
REMARK    4  A    between atoms: C16_18  and  O17_19 
REMARK    5  A    between atoms: C19_22  and  O20_23 
ROOT
HETATM    1  O1          0      28.573  41.169 -18.154  1.00  0.00    -0.286 OA
HETATM    2  C2          0      27.778  41.842 -18.866  1.00  0.00     0.201 C 
HETATM    3  C3          0      27.605  41.612 -20.220  1.00  0.00     0.067 C 
HETATM    4  C4          0      26.800  42.433 -21.002  1.00  0.00     0.103 C 
HETATM    5  O13         0      26.174  43.443 -20.425  1.00  0.00    -0.307 OA
HETATM    6  C14         0      26.333  43.728 -19.151  1.00  0.00     0.107 C 
HETATM    7  C15         0      26.018  44.978 -18.637  1.00  0.00     0.049 C 
HETATM    8  C16         0      26.422  45.356 -17.362  1.00  0.00     0.093 C 
HETATM    9  C18         0      26.652  44.305 -16.483  1.00  0.00     0.048 C 
HETATM   10  C19         0      26.924  43.031 -16.963  1.00  0.00     0.096 C 
HETATM   11  C21         0      26.948  42.805 -18.312  1.00  0.00     0.084 C 
ENDROOT
BRANCH  10  12
HETATM   12  O20         0      27.567  42.115 -16.137  1.00  0.00    -0.359 OA
HETATM   13  H20         0      28.252  41.578 -16.516  1.00  0.00     0.218 HD
ENDBRANCH  10  12
BRANCH   4  14
HETATM   14  C5          0      27.121  42.525 -22.427  1.00  0.00     0.025 C 
HETATM   15  C6          0      26.549  43.469 -23.268  1.00  0.00     0.004 C 
HETATM   16  C7          0      27.360  44.039 -24.244  1.00  0.00     0.026 C 
HETATM   17  C8          0      28.658  43.591 -24.466  1.00  0.00     0.112 C 
HETATM   18  C10         0      28.902  42.289 -24.048  1.00  0.00     0.112 C 
HETATM   19  C12         0      28.132  41.773 -23.012  1.00  0.00     0.028 C 
BRANCH  17  20
HETATM   20  O9          0      29.650  44.465 -24.874  1.00  0.00    -0.357 OA
HETATM   21  H9          0      29.511  45.396 -25.005  1.00  0.00     0.218 HD
ENDBRANCH  17  20
BRANCH  18  22
HETATM   22  O11         0      30.117  41.729 -24.415  1.00  0.00    -0.357 OA
HETATM   23  H11         0      30.809  41.740 -23.764  1.00  0.00     0.218 HD
ENDBRANCH  18  22
ENDBRANCH   4  14
BRANCH   8  24
HETATM   24  O17         0      26.880  46.651 -17.096  1.00  0.00    -0.359 OA
HETATM   25  H17         0      27.013  46.961 -16.208  1.00  0.00     0.218 HD
ENDBRANCH   8  24
TORSDOF 5
ENDMDL
MODEL 2
REMARK VINA RESULT:      -3.6      1.693      2.293
REMARK  5 active torsions:
REMARK  status: ('A' for Active; 'I' for Inactive)
REMARK    1  A    between atoms: C4_4  and  C5_5 
REMARK    2  A    between atoms: C8_8  and  O9_9 
REMARK    3  A    between atoms: C10_11  and  O11_12 
REMARK    4  A    between atoms: C16_18  and  O17_19 
REMARK    5  A    between atoms: C19_22  and  O20_23 
ROOT
HETATM    1  O1          0      27.618  43.873 -17.105  1.00  0.00    -0.286 OA
HETATM    2  C2          0      26.725  44.101 -17.967  1.00  0.00     0.201 C 
HETATM    3  C3          0      26.671  43.443 -19.184  1.00  0.00     0.067 C 
HETATM    4  C4          0      25.740  43.786 -20.157  1.00  0.00     0.103 C 
HETATM    5  O13         0      24.876  44.751 -19.897  1.00  0.00    -0.307 OA
HETATM    6  C14         0      24.907  45.433 -18.773  1.00  0.00     0.107 C 
HETATM    7  C15         0      24.296  46.673 -18.653  1.00  0.00     0.049 C 
HETATM    8  C16         0      24.544  47.497 -17.562  1.00  0.00     0.093 C 
HETATM    9  C18         0      24.965  46.839 -16.413  1.00  0.00     0.048 C 
HETATM   10  C19         0      25.538  45.577 -16.492  1.00  0.00     0.096 C 
HETATM   11  C21         0      25.675  44.969 -17.710  1.00  0.00     0.084 C 
ENDROOT
BRANCH  10  12
HETATM   12  O20         0      26.332  45.123 -15.444  1.00  0.00    -0.359 OA
HETATM   13  H20         0      27.108  44.620 -15.658  1.00  0.00     0.218 HD
ENDBRANCH  10  12
BRANCH   4  14
HETATM   14  C5          0      26.097  43.517 -21.551  1.00  0.00     0.025 C 
HETATM   15  C6          0      25.726  44.349 -22.597  1.00  0.00     0.004 C 
HETATM   16  C7          0      26.647  44.548 -23.621  1.00  0.00     0.026 C 
HETATM   17  C8          0      27.842  43.839 -23.674  1.00  0.00     0.112 C 
HETATM   18  C10         0      27.832  42.633 -22.988  1.00  0.00     0.112 C 
HETATM   19  C12         0      26.962  42.491 -21.914  1.00  0.00     0.028 C 
BRANCH  17  20
HETATM   20  O9          0      28.986  44.418 -24.195  1.00  0.00    -0.357 OA
HETATM   21  H9          0      29.169  44.483 -25.125  1.00  0.00     0.218 HD
ENDBRANCH  17  20
BRANCH  18  22
HETATM   22  O11         0      28.929  41.800 -23.163  1.00  0.00    -0.357 OA
HETATM   23  H11         0      29.788  42.196 -23.071  1.00  0.00     0.218 HD
ENDBRANCH  18  22
ENDBRANCH   4  14
BRANCH   8  24
HETATM   24  O17         0      24.687  48.881 -17.712  1.00  0.00    -0.359 OA
HETATM   25  H17         0      23.938  49.465 -17.690  1.00  0.00     0.218 HD
ENDBRANCH   8  24
TORSDOF 5
ENDMDL
MODEL 3
REMARK VINA RESULT:      -3.5      4.120      9.276
REMARK  5 active torsions:
REMARK  status: ('A' for Active; 'I' for Inactive)
REMARK    1  A    between atoms: C4_4  and  C5_5 
REMARK    2  A    between atoms: C8_8  and  O9_9 
REMARK    3  A    between atoms: C10_11  and  O11_12 
REMARK    4  A    between atoms: C16_18  and  O17_19 
REMARK    5  A    between atoms: C19_22  and  O20_23 
ROOT
HETATM    1  O1          0      24.760  47.841 -17.812  1.00  0.00    -0.286 OA
HETATM    2  C2          0      24.858  47.047 -16.837  1.00  0.00     0.201 C 
HETATM    3  C3          0      24.508  47.398 -15.545  1.00  0.00     0.067 C 
HETATM    4  C4          0      24.722  46.539 -14.473  1.00  0.00     0.103 C 
HETATM    5  O13         0      25.256  45.353 -14.707  1.00  0.00    -0.307 OA
HETATM    6  C14         0      25.641  44.984 -15.909  1.00  0.00     0.107 C 
HETATM    7  C15         0      26.541  43.947 -16.102  1.00  0.00     0.049 C 
HETATM    8  C16         0      27.137  43.729 -17.339  1.00  0.00     0.093 C 
HETATM    9  C18         0      26.422  44.212 -18.428  1.00  0.00     0.048 C 
HETATM   10  C19         0      25.479  45.217 -18.263  1.00  0.00     0.096 C 
HETATM   11  C21         0      25.240  45.726 -17.015  1.00  0.00     0.084 C 
ENDROOT
BRANCH  10  12
HETATM   12  O20         0      25.100  45.981 -19.362  1.00  0.00    -0.359 OA
HETATM   13  H20         0      25.786  46.358 -19.900  1.00  0.00     0.218 HD
ENDBRANCH  10  12
BRANCH   4  14
HETATM   14  C5          0      24.907  47.146 -13.154  1.00  0.00     0.025 C 
HETATM   15  C6          0      24.902  46.409 -11.979  1.00  0.00     0.004 C 
HETATM   16  C7          0      25.801  46.778 -10.983  1.00  0.00     0.026 C 
HETATM   17  C8          0      26.584  47.922 -11.094  1.00  0.00     0.112 C 
HETATM   18  C10         0      26.079  48.889 -11.952  1.00  0.00     0.112 C 
HETATM   19  C12         0      25.250  48.482 -12.991  1.00  0.00     0.028 C 
BRANCH  17  20
HETATM   20  O9          0      27.856  47.966 -10.550  1.00  0.00    -0.357 OA
HETATM   21  H9          0      28.073  47.629  -9.688  1.00  0.00     0.218 HD
ENDBRANCH  17  20
BRANCH  18  22
HETATM   22  O11         0      26.718  50.121 -11.956  1.00  0.00    -0.357 OA
HETATM   23  H11         0      26.563  50.683 -12.707  1.00  0.00     0.218 HD
ENDBRANCH  18  22
ENDBRANCH   4  14
BRANCH   8  24
HETATM   24  O17         0      28.484  43.366 -17.445  1.00  0.00    -0.359 OA
HETATM   25  H17         0      28.757  42.597 -17.932  1.00  0.00     0.218 HD
ENDBRANCH   8  24
TORSDOF 5
ENDMDL
MODEL 4
REMARK VINA RESULT:      -3.4      5.031      7.125
REMARK  5 active torsions:
REMARK  status: ('A' for Active; 'I' for Inactive)
REMARK    1  A    between atoms: C4_4  and  C5_5 
REMARK    2  A    between atoms: C8_8  and  O9_9 
REMARK    3  A    between atoms: C10_11  and  O11_12 
REMARK    4  A    between atoms: C16_18  and  O17_19 
REMARK    5  A    between atoms: C19_22  and  O20_23 
ROOT
HETATM    1  O1          0      30.125  43.203 -12.711  1.00  0.00    -0.286 OA
HETATM    2  C2          0      28.941  43.588 -12.914  1.00  0.00     0.201 C 
HETATM    3  C3          0      28.188  43.160 -13.995  1.00  0.00     0.067 C 
HETATM    4  C4          0      26.924  43.678 -14.253  1.00  0.00     0.103 C 
HETATM    5  O13         0      26.430  44.586 -13.429  1.00  0.00    -0.307 OA
HETATM    6  C14         0      27.117  45.053 -12.410  1.00  0.00     0.107 C 
HETATM    7  C15         0      26.790  46.254 -11.798  1.00  0.00     0.049 C 
HETATM    8  C16         0      27.657  46.867 -10.901  1.00  0.00     0.093 C 
HETATM    9  C18         0      28.550  46.009 -10.270  1.00  0.00     0.048 C 
HETATM   10  C19         0      28.864  44.779 -10.832  1.00  0.00     0.096 C 
HETATM   11  C21         0      28.277  44.401 -12.008  1.00  0.00     0.084 C 
ENDROOT
BRANCH  10  12
HETATM   12  O20         0      30.041  44.139 -10.454  1.00  0.00    -0.359 OA
HETATM   13  H20         0      29.992  43.487  -9.766  1.00  0.00     0.218 HD
ENDBRANCH  10  12
BRANCH   4  14
HETATM   14  C5          0      26.465  43.664 -15.643  1.00  0.00     0.025 C 
HETATM   15  C6          0      25.467  42.814 -16.097  1.00  0.00     0.004 C 
HETATM   16  C7          0      24.567  43.318 -17.030  1.00  0.00     0.026 C 
HETATM   17  C8          0      24.731  44.577 -17.596  1.00  0.00     0.112 C 
HETATM   18  C10         0      26.033  45.058 -17.573  1.00  0.00     0.112 C 
HETATM   19  C12         0      26.888  44.602 -16.576  1.00  0.00     0.028 C 
BRANCH  17  20
HETATM   20  O9          0      23.635  45.345 -17.947  1.00  0.00    -0.357 OA
HETATM   21  H9          0      23.361  45.496 -18.844  1.00  0.00     0.218 HD
ENDBRANCH  17  20
BRANCH  18  22
HETATM   22  O11         0      26.287  46.220 -18.288  1.00  0.00    -0.357 OA
HETATM   23  H11         0      25.537  46.666 -18.664  1.00  0.00     0.218 HD
ENDBRANCH  18  22
ENDBRANCH   4  14
BRANCH   8  24
HETATM   24  O17         0      27.839  48.254 -10.894  1.00  0.00    -0.359 OA
HETATM   25  H17         0      28.627  48.652 -10.543  1.00  0.00     0.218 HD
ENDBRANCH   8  24
TORSDOF 5
ENDMDL
MODEL 5
REMARK VINA RESULT:      -3.3      1.987      6.899
REMARK  5 active torsions:
REMARK  status: ('A' for Active; 'I' for Inactive)
REMARK    1  A    between atoms: C4_4  and  C5_5 
REMARK    2  A    between atoms: C8_8  and  O9_9 
REMARK    3  A    between atoms: C10_11  and  O11_12 
REMARK    4  A    between atoms: C16_18  and  O17_19 
REMARK    5  A    between atoms: C19_22  and  O20_23 
ROOT
HETATM    1  O1          0      23.959  44.801 -24.178  1.00  0.00    -0.286 OA
HETATM    2  C2          0      24.776  44.244 -23.394  1.00  0.00     0.201 C 
HETATM    3  C3          0      24.543  44.113 -22.036  1.00  0.00     0.067 C 
HETATM    4  C4          0      25.503  43.588 -21.179  1.00  0.00     0.103 C 
HETATM    5  O13         0      26.656  43.189 -21.686  1.00  0.00    -0.307 OA
HETATM    6  C14         0      26.944  43.326 -22.962  1.00  0.00     0.107 C 
HETATM    7  C15         0      28.251  43.291 -23.425  1.00  0.00     0.049 C 
HETATM    8  C16         0      28.569  43.686 -24.719  1.00  0.00     0.093 C 
HETATM    9  C18         0      27.528  43.592 -25.634  1.00  0.00     0.048 C 
HETATM   10  C19         0      26.209  43.577 -25.202  1.00  0.00     0.096 C 
HETATM   11  C21         0      25.932  43.638 -23.863  1.00  0.00     0.084 C 
ENDROOT
BRANCH  10  12
HETATM   12  O20         0      25.197  43.920 -26.094  1.00  0.00    -0.359 OA
HETATM   13  H20         0      24.538  44.539 -25.803  1.00  0.00     0.218 HD
ENDBRANCH  10  12
BRANCH   4  14
HETATM   14  C5          0      25.460  44.018 -19.780  1.00  0.00     0.025 C 
HETATM   15  C6          0      26.304  43.502 -18.808  1.00  0.00     0.004 C 
HETATM   16  C7          0      26.791  44.379 -17.845  1.00  0.00     0.026 C 
HETATM   17  C8          0      26.350  45.696 -17.768  1.00  0.00     0.112 C 
HETATM   18  C10         0      25.102  45.924 -18.332  1.00  0.00     0.112 C 
HETATM   19  C12         0      24.676  45.082 -19.353  1.00  0.00     0.028 C 
BRANCH  17  20
HETATM   20  O9          0      27.201  46.705 -17.352  1.00  0.00    -0.357 OA
HETATM   21  H9          0      27.008  47.295 -16.632  1.00  0.00     0.218 HD
ENDBRANCH  17  20
BRANCH  18  22
HETATM   22  O11         0      24.534  47.171 -18.118  1.00  0.00    -0.357 OA
HETATM   23  H11         0      25.052  47.928 -18.365  1.00  0.00     0.218 HD
ENDBRANCH  18  22
ENDBRANCH   4  14
BRANCH   8  24
HETATM   24  O17         0      29.724  44.427 -24.992  1.00  0.00    -0.359 OA
HETATM   25  H17         0      30.536  44.277 -24.522  1.00  0.00     0.218 HD
ENDBRANCH   8  24
TORSDOF 5
ENDMDL
MODEL 6
REMARK VINA RESULT:      -3.3      1.884      6.498
REMARK  5 active torsions:
REMARK  status: ('A' for Active; 'I' for Inactive)
REMARK    1  A    between atoms: C4_4  and  C5_5 
REMARK    2  A    between atoms: C8_8  and  O9_9 
REMARK    3  A    between atoms: C10_11  and  O11_12 
REMARK    4  A    between atoms: C16_18  and  O17_19 
REMARK    5  A    between atoms: C19_22  and  O20_23 
ROOT
HETATM    1  O1          0      27.017  44.433 -23.653  1.00  0.00    -0.286 OA
HETATM    2  C2          0      26.740  43.754 -22.626  1.00  0.00     0.201 C 
HETATM    3  C3          0      26.009  44.262 -21.565  1.00  0.00     0.067 C 
HETATM    4  C4          0      25.807  43.528 -20.402  1.00  0.00     0.103 C 
HETATM    5  O13         0      26.311  42.309 -20.325  1.00  0.00    -0.307 OA
HETATM    6  C14         0      27.044  41.794 -21.288  1.00  0.00     0.107 C 
HETATM    7  C15         0      27.891  40.717 -21.065  1.00  0.00     0.049 C 
HETATM    8  C16         0      28.843  40.341 -22.005  1.00  0.00     0.093 C 
HETATM    9  C18         0      28.555  40.714 -23.312  1.00  0.00     0.048 C 
HETATM   10  C19         0      27.676  41.756 -23.572  1.00  0.00     0.096 C 
HETATM   11  C21         0      27.075  42.412 -22.533  1.00  0.00     0.084 C 
ENDROOT
BRANCH  10  12
HETATM   12  O20         0      27.727  42.397 -24.806  1.00  0.00    -0.359 OA
HETATM   13  H20         0      27.599  43.338 -24.825  1.00  0.00     0.218 HD
ENDBRANCH  10  12
BRANCH   4  14
HETATM   14  C5          0      25.588  44.280 -19.165  1.00  0.00     0.025 C 
HETATM   15  C6          0      26.370  44.108 -18.033  1.00  0.00     0.004 C 
HETATM   16  C7          0      26.684  45.241 -17.288  1.00  0.00     0.026 C 
HETATM   17  C8          0      26.130  46.482 -17.581  1.00  0.00     0.112 C 
HETATM   18  C10         0      24.930  46.432 -18.277  1.00  0.00     0.112 C 
HETATM   19  C12         0      24.679  45.327 -19.081  1.00  0.00     0.028 C 
BRANCH  17  20
HETATM   20  O9          0      26.847  47.646 -17.370  1.00  0.00    -0.357 OA
HETATM   21  H9          0      27.788  47.670 -17.234  1.00  0.00     0.218 HD
ENDBRANCH  17  20
BRANCH  18  22
HETATM   22  O11         0      24.241  47.627 -18.430  1.00  0.00    -0.357 OA
HETATM   23  H11         0      23.316  47.621 -18.211  1.00  0.00     0.218 HD
ENDBRANCH  18  22
ENDBRANCH   4  14
BRANCH   8  24
HETATM   24  O17         0      30.125  39.933 -21.621  1.00  0.00    -0.359 OA
HETATM   25  H17         0      30.545  40.276 -20.841  1.00  0.00     0.218 HD
ENDBRANCH   8  24
TORSDOF 5
ENDMDL
MODEL 7
REMARK VINA RESULT:      -3.1      3.256      7.878
REMARK  5 active torsions:
REMARK  status: ('A' for Active; 'I' for Inactive)
REMARK    1  A    between atoms: C4_4  and  C5_5 
REMARK    2  A    between atoms: C8_8  and  O9_9 
REMARK    3  A    between atoms: C10_11  and  O11_12 
REMARK    4  A    between atoms: C16_18  and  O17_19 
REMARK    5  A    between atoms: C19_22  and  O20_23 
ROOT
HETATM    1  O1          0      26.910  40.780 -17.300  1.00  0.00    -0.286 OA
HETATM    2  C2          0      27.055  41.983 -16.950  1.00  0.00     0.201 C 
HETATM    3  C3          0      27.440  42.353 -15.673  1.00  0.00     0.067 C 
HETATM    4  C4          0      27.492  43.687 -15.285  1.00  0.00     0.103 C 
HETATM    5  O13         0      27.184  44.618 -16.171  1.00  0.00    -0.307 OA
HETATM    6  C14         0      26.776  44.320 -17.385  1.00  0.00     0.107 C 
HETATM    7  C15         0      26.083  45.233 -18.167  1.00  0.00     0.049 C 
HETATM    8  C16         0      25.437  44.840 -19.333  1.00  0.00     0.093 C 
HETATM    9  C18         0      25.947  43.692 -19.928  1.00  0.00     0.048 C 
HETATM   10  C19         0      26.684  42.780 -19.185  1.00  0.00     0.096 C 
HETATM   11  C21         0      26.926  43.022 -17.860  1.00  0.00     0.084 C 
ENDROOT
BRANCH  10  12
HETATM   12  O20         0      26.809  41.472 -19.642  1.00  0.00    -0.359 OA
HETATM   13  H20         0      26.080  40.880 -19.503  1.00  0.00     0.218 HD
ENDBRANCH  10  12
BRANCH   4  14
HETATM   14  C5          0      27.307  43.978 -13.862  1.00  0.00     0.025 C 
HETATM   15  C6          0      28.243  43.638 -12.897  1.00  0.00     0.004 C 
HETATM   16  C7          0      28.452  44.537 -11.856  1.00  0.00     0.026 C 
HETATM   17  C8          0      27.664  45.673 -11.705  1.00  0.00     0.112 C 
HETATM   18  C10         0      26.412  45.594 -12.299  1.00  0.00     0.112 C 
HETATM   19  C12         0      26.252  44.750 -13.392  1.00  0.00     0.028 C 
BRANCH  17  20
HETATM   20  O9          0      28.196  46.841 -11.186  1.00  0.00    -0.357 OA
HETATM   21  H9          0      27.752  47.384 -10.546  1.00  0.00     0.218 HD
ENDBRANCH  17  20
BRANCH  18  22
HETATM   22  O11         0      25.518  46.618 -12.020  1.00  0.00    -0.357 OA
HETATM   23  H11         0      25.275  47.185 -12.743  1.00  0.00     0.218 HD
ENDBRANCH  18  22
ENDBRANCH   4  14
BRANCH   8  24
HETATM   24  O17         0      24.184  45.355 -19.681  1.00  0.00    -0.359 OA
HETATM   25  H17         0      23.392  45.091 -19.227  1.00  0.00     0.218 HD
ENDBRANCH   8  24
TORSDOF 5
ENDMDL
MODEL 8
REMARK VINA RESULT:      -3.1      3.321      6.335
REMARK  5 active torsions:
REMARK  status: ('A' for Active; 'I' for Inactive)
REMARK    1  A    between atoms: C4_4  and  C5_5 
REMARK    2  A    between atoms: C8_8  and  O9_9 
REMARK    3  A    between atoms: C10_11  and  O11_12 
REMARK    4  A    between atoms: C16_18  and  O17_19 
REMARK    5  A    between atoms: C19_22  and  O20_23 
ROOT
HETATM    1  O1          0      27.283  40.207 -22.378  1.00  0.00    -0.286 OA
HETATM    2  C2          0      27.398  41.448 -22.573  1.00  0.00     0.201 C 
HETATM    3  C3          0      26.533  42.378 -22.023  1.00  0.00     0.067 C 
HETATM    4  C4          0      26.619  43.730 -22.337  1.00  0.00     0.103 C 
HETATM    5  O13         0      27.568  44.129 -23.166  1.00  0.00    -0.307 OA
HETATM    6  C14         0      28.392  43.284 -23.745  1.00  0.00     0.107 C 
HETATM    7  C15         0      29.102  43.622 -24.887  1.00  0.00     0.049 C 
HETATM    8  C16         0      29.767  42.658 -25.636  1.00  0.00     0.093 C 
HETATM    9  C18         0      30.125  41.514 -24.934  1.00  0.00     0.048 C 
HETATM   10  C19         0      29.466  41.171 -23.761  1.00  0.00     0.096 C 
HETATM   11  C21         0      28.467  41.974 -23.284  1.00  0.00     0.084 C 
ENDROOT
BRANCH  10  12
HETATM   12  O20         0      29.514  39.853 -23.315  1.00  0.00    -0.359 OA
HETATM   13  H20         0      28.992  39.208 -23.776  1.00  0.00     0.218 HD
ENDBRANCH  10  12
BRANCH   4  14
HETATM   14  C5          0      25.392  44.521 -22.236  1.00  0.00     0.025 C 
HETATM   15  C6          0      24.719  44.717 -21.039  1.00  0.00     0.004 C 
HETATM   16  C7          0      24.157  45.970 -20.813  1.00  0.00     0.026 C 
HETATM   17  C8          0      24.145  46.952 -21.798  1.00  0.00     0.112 C 
HETATM   18  C10         0      24.249  46.472 -23.097  1.00  0.00     0.112 C 
HETATM   19  C12         0      24.891  45.257 -23.302  1.00  0.00     0.028 C 
BRANCH  17  20
HETATM   20  O9          0      24.238  48.291 -21.464  1.00  0.00    -0.357 OA
HETATM   21  H9          0      23.686  48.713 -20.815  1.00  0.00     0.218 HD
ENDBRANCH  17  20
BRANCH  18  22
HETATM   22  O11         0      24.053  47.386 -24.122  1.00  0.00    -0.357 OA
HETATM   23  H11         0      24.398  47.155 -24.976  1.00  0.00     0.218 HD
ENDBRANCH  18  22
ENDBRANCH   4  14
BRANCH   8  24
HETATM   24  O17         0      29.767  42.694 -27.035  1.00  0.00    -0.359 OA
HETATM   25  H17         0      29.906  41.910 -27.554  1.00  0.00     0.218 HD
ENDBRANCH   8  24
TORSDOF 5
ENDMDL
MODEL 9
REMARK VINA RESULT:      -2.9      2.785      3.899
REMARK  5 active torsions:
REMARK  status: ('A' for Active; 'I' for Inactive)
REMARK    1  A    between atoms: C4_4  and  C5_5 
REMARK    2  A    between atoms: C8_8  and  O9_9 
REMARK    3  A    between atoms: C10_11  and  O11_12 
REMARK    4  A    between atoms: C16_18  and  O17_19 
REMARK    5  A    between atoms: C19_22  and  O20_23 
ROOT
HETATM    1  O1          0      25.612  44.591 -18.573  1.00  0.00    -0.286 OA
HETATM    2  C2          0      25.477  44.623 -19.827  1.00  0.00     0.201 C 
HETATM    3  C3          0      26.155  43.766 -20.677  1.00  0.00     0.067 C 
HETATM    4  C4          0      26.067  43.889 -22.059  1.00  0.00     0.103 C 
HETATM    5  O13         0      25.298  44.838 -22.564  1.00  0.00    -0.307 OA
HETATM    6  C14         0      24.663  45.702 -21.802  1.00  0.00     0.107 C 
HETATM    7  C15         0      24.196  46.910 -22.299  1.00  0.00     0.049 C 
HETATM    8  C16         0      23.758  47.919 -21.450  1.00  0.00     0.093 C 
HETATM    9  C18         0      23.319  47.488 -20.204  1.00  0.00     0.048 C 
HETATM   10  C19         0      23.729  46.263 -19.697  1.00  0.00     0.096 C 
HETATM   11  C21         0      24.559  45.465 -20.436  1.00  0.00     0.084 C 
ENDROOT
BRANCH  10  12
HETATM   12  O20         0      23.656  46.036 -18.326  1.00  0.00    -0.359 OA
HETATM   13  H20         0      23.869  46.755 -17.743  1.00  0.00     0.218 HD
ENDBRANCH  10  12
BRANCH   4  14
HETATM   14  C5          0      27.202  43.407 -22.849  1.00  0.00     0.025 C 
HETATM   15  C6          0      27.725  42.130 -22.712  1.00  0.00     0.004 C 
HETATM   16  C7          0      28.146  41.478 -23.866  1.00  0.00     0.026 C 
HETATM   17  C8          0      28.173  42.122 -25.099  1.00  0.00     0.112 C 
HETATM   18  C10         0      28.249  43.507 -25.028  1.00  0.00     0.112 C 
HETATM   19  C12         0      27.743  44.139 -23.898  1.00  0.00     0.028 C 
BRANCH  17  20
HETATM   20  O9          0      27.926  41.425 -26.268  1.00  0.00    -0.357 OA
HETATM   21  H9          0      28.169  41.740 -27.131  1.00  0.00     0.218 HD
ENDBRANCH  17  20
BRANCH  18  22
HETATM   22  O11         0      28.468  44.186 -26.218  1.00  0.00    -0.357 OA
HETATM   23  H11         0      28.216  43.742 -27.019  1.00  0.00     0.218 HD
ENDBRANCH  18  22
ENDBRANCH   4  14
BRANCH   8  24
HETATM   24  O17         0      24.055  49.263 -21.701  1.00  0.00    -0.359 OA
HETATM   25  H17         0      24.357  49.557 -22.552  1.00  0.00     0.218 HD
ENDBRANCH   8  24
TORSDOF 5
ENDMDL
