MODEL 1
REMARK VINA RESULT:      -7.3      0.000      0.000
REMARK  5 active torsions:
REMARK  status: ('A' for Active; 'I' for Inactive)
REMARK    1  A    between atoms: C4_4  and  C5_5 
REMARK    2  A    between atoms: C8_8  and  O9_9 
REMARK    3  A    between atoms: C10_11  and  O11_12 
REMARK    4  A    between atoms: C16_18  and  O17_19 
REMARK    5  A    between atoms: C19_22  and  O20_23 
ROOT
HETATM    1  O1          0      36.901  50.776   2.679  1.00  0.00    -0.286 OA
HETATM    2  C2          0      36.578  50.922   3.890  1.00  0.00     0.201 C 
HETATM    3  C3          0      35.789  50.011   4.571  1.00  0.00     0.067 C 
HETATM    4  C4          0      35.363  50.246   5.873  1.00  0.00     0.103 C 
HETATM    5  O13         0      35.744  51.360   6.474  1.00  0.00    -0.307 OA
HETATM    6  C14         0      36.462  52.275   5.860  1.00  0.00     0.107 C 
HETATM    7  C15         0      36.525  53.583   6.318  1.00  0.00     0.049 C 
HETATM    8  C16         0      37.068  54.596   5.537  1.00  0.00     0.093 C 
HETATM    9  C18         0      37.982  54.172   4.579  1.00  0.00     0.048 C 
HETATM   10  C19         0      37.977  52.858   4.133  1.00  0.00     0.096 C 
HETATM   11  C21         0      37.077  51.968   4.651  1.00  0.00     0.084 C 
ENDROOT
BRANCH  10  12
HETATM   12  O20         0      38.564  52.553   2.908  1.00  0.00    -0.359 OA
HETATM   13  H20         0      39.374  52.994   2.681  1.00  0.00     0.218 HD
ENDBRANCH  10  12
BRANCH   4  14
HETATM   14  C5          0      34.114  49.609   6.295  1.00  0.00     0.025 C 
HETATM   15  C6          0      32.865  50.136   6.002  1.00  0.00     0.004 C 
HETATM   16  C7          0      31.848  49.243   5.681  1.00  0.00     0.026 C 
HETATM   17  C8          0      32.028  47.867   5.778  1.00  0.00     0.112 C 
HETATM   18  C10         0      33.033  47.474   6.651  1.00  0.00     0.112 C 
HETATM   19  C12         0      34.083  48.354   6.889  1.00  0.00     0.028 C 
BRANCH  17  20
HETATM   20  O9          0      31.388  47.005   4.905  1.00  0.00    -0.357 OA
HETATM   21  H9          0      31.092  47.256   4.037  1.00  0.00     0.218 HD
ENDBRANCH  17  20
BRANCH  18  22
HETATM   22  O11         0      33.129  46.118   6.929  1.00  0.00    -0.357 OA
HETATM   23  H11         0      33.734  45.612   6.399  1.00  0.00     0.218 HD
ENDBRANCH  18  22
ENDBRANCH   4  14
BRANCH   8  24
HETATM   24  O17         0      36.493  55.870   5.492  1.00  0.00    -0.359 OA
HETATM   25  H17         0      36.695  56.532   6.143  1.00  0.00     0.218 HD
ENDBRANCH   8  24
TORSDOF 5
ENDMDL
MODEL 2
REMARK VINA RESULT:      -7.3      3.816      6.657
REMARK  5 active torsions:
REMARK  status: ('A' for Active; 'I' for Inactive)
REMARK    1  A    between atoms: C4_4  and  C5_5 
REMARK    2  A    between atoms: C8_8  and  O9_9 
REMARK    3  A    between atoms: C10_11  and  O11_12 
REMARK    4  A    between atoms: C16_18  and  O17_19 
REMARK    5  A    between atoms: C19_22  and  O20_23 
ROOT
HETATM    1  O1          0      38.247  47.049   5.133  1.00  0.00    -0.286 OA
HETATM    2  C2          0      38.362  48.082   4.418  1.00  0.00     0.201 C 
HETATM    3  C3          0      38.847  49.283   4.907  1.00  0.00     0.067 C 
HETATM    4  C4          0      38.867  50.433   4.126  1.00  0.00     0.103 C 
HETATM    5  O13         0      38.429  50.363   2.881  1.00  0.00    -0.307 OA
HETATM    6  C14         0      37.924  49.257   2.379  1.00  0.00     0.107 C 
HETATM    7  C15         0      37.115  49.268   1.252  1.00  0.00     0.049 C 
HETATM    8  C16         0      36.383  48.148   0.878  1.00  0.00     0.093 C 
HETATM    9  C18         0      36.892  46.936   1.330  1.00  0.00     0.048 C 
HETATM   10  C19         0      37.742  46.893   2.426  1.00  0.00     0.096 C 
HETATM   11  C21         0      38.095  48.055   3.057  1.00  0.00     0.084 C 
ENDROOT
BRANCH  10  12
HETATM   12  O20         0      37.891  45.700   3.126  1.00  0.00    -0.359 OA
HETATM   13  H20         0      37.981  44.898   2.624  1.00  0.00     0.218 HD
ENDBRANCH  10  12
BRANCH   4  14
HETATM   14  C5          0      38.801  51.718   4.824  1.00  0.00     0.025 C 
HETATM   15  C6          0      39.482  52.846   4.389  1.00  0.00     0.004 C 
HETATM   16  C7          0      38.839  54.074   4.509  1.00  0.00     0.026 C 
HETATM   17  C8          0      37.617  54.197   5.161  1.00  0.00     0.112 C 
HETATM   18  C10         0      37.346  53.189   6.078  1.00  0.00     0.112 C 
HETATM   19  C12         0      37.936  51.946   5.886  1.00  0.00     0.028 C 
BRANCH  17  20
HETATM   20  O9          0      36.686  55.134   4.751  1.00  0.00    -0.357 OA
HETATM   21  H9          0      36.165  55.658   5.350  1.00  0.00     0.218 HD
ENDBRANCH  17  20
BRANCH  18  22
HETATM   22  O11         0      36.234  53.362   6.890  1.00  0.00    -0.357 OA
HETATM   23  H11         0      35.975  52.622   7.427  1.00  0.00     0.218 HD
ENDBRANCH  18  22
ENDBRANCH   4  14
BRANCH   8  24
HETATM   24  O17         0      35.077  48.260   0.387  1.00  0.00    -0.359 OA
HETATM   25  H17         0      34.502  48.966   0.658  1.00  0.00     0.218 HD
ENDBRANCH   8  24
TORSDOF 5
ENDMDL
MODEL 3
REMARK VINA RESULT:      -7.0      2.779      6.496
REMARK  5 active torsions:
REMARK  status: ('A' for Active; 'I' for Inactive)
REMARK    1  A    between atoms: C4_4  and  C5_5 
REMARK    2  A    between atoms: C8_8  and  O9_9 
REMARK    3  A    between atoms: C10_11  and  O11_12 
REMARK    4  A    between atoms: C16_18  and  O17_19 
REMARK    5  A    between atoms: C19_22  and  O20_23 
ROOT
HETATM    1  O1          0      38.089  47.240   2.835  1.00  0.00    -0.286 OA
HETATM    2  C2          0      37.495  48.350   2.756  1.00  0.00     0.201 C 
HETATM    3  C3          0      38.072  49.540   3.165  1.00  0.00     0.067 C 
HETATM    4  C4          0      37.360  50.734   3.163  1.00  0.00     0.103 C 
HETATM    5  O13         0      36.108  50.726   2.739  1.00  0.00    -0.307 OA
HETATM    6  C14         0      35.501  49.618   2.375  1.00  0.00     0.107 C 
HETATM    7  C15         0      34.118  49.527   2.317  1.00  0.00     0.049 C 
HETATM    8  C16         0      33.480  48.300   2.183  1.00  0.00     0.093 C 
HETATM    9  C18         0      34.246  47.302   1.593  1.00  0.00     0.048 C 
HETATM   10  C19         0      35.632  47.384   1.591  1.00  0.00     0.096 C 
HETATM   11  C21         0      36.248  48.464   2.160  1.00  0.00     0.084 C 
ENDROOT
BRANCH  10  12
HETATM   12  O20         0      36.382  46.226   1.409  1.00  0.00    -0.359 OA
HETATM   13  H20         0      37.057  46.234   0.741  1.00  0.00     0.218 HD
ENDBRANCH  10  12
BRANCH   4  14
HETATM   14  C5          0      37.772  51.763   4.120  1.00  0.00     0.025 C 
HETATM   15  C6          0      38.689  52.756   3.808  1.00  0.00     0.004 C 
HETATM   16  C7          0      38.459  54.029   4.319  1.00  0.00     0.026 C 
HETATM   17  C8          0      37.429  54.278   5.220  1.00  0.00     0.112 C 
HETATM   18  C10         0      37.001  53.167   5.933  1.00  0.00     0.112 C 
HETATM   19  C12         0      37.166  51.911   5.361  1.00  0.00     0.028 C 
BRANCH  17  20
HETATM   20  O9          0      36.768  55.494   5.222  1.00  0.00    -0.357 OA
HETATM   21  H9          0      36.442  55.919   4.437  1.00  0.00     0.218 HD
ENDBRANCH  17  20
BRANCH  18  22
HETATM   22  O11         0      36.112  53.392   6.974  1.00  0.00    -0.357 OA
HETATM   23  H11         0      35.987  54.294   7.246  1.00  0.00     0.218 HD
ENDBRANCH  18  22
ENDBRANCH   4  14
BRANCH   8  24
HETATM   24  O17         0      32.306  48.008   2.885  1.00  0.00    -0.359 OA
HETATM   25  H17         0      32.245  48.123   3.826  1.00  0.00     0.218 HD
ENDBRANCH   8  24
TORSDOF 5
ENDMDL
MODEL 4
REMARK VINA RESULT:      -7.0      3.133      6.670
REMARK  5 active torsions:
REMARK  status: ('A' for Active; 'I' for Inactive)
REMARK    1  A    between atoms: C4_4  and  C5_5 
REMARK    2  A    between atoms: C8_8  and  O9_9 
REMARK    3  A    between atoms: C10_11  and  O11_12 
REMARK    4  A    between atoms: C16_18  and  O17_19 
REMARK    5  A    between atoms: C19_22  and  O20_23 
ROOT
HETATM    1  O1          0      39.630  48.134   2.156  1.00  0.00    -0.286 OA
HETATM    2  C2          0      38.754  48.586   2.943  1.00  0.00     0.201 C 
HETATM    3  C3          0      38.610  49.937   3.210  1.00  0.00     0.067 C 
HETATM    4  C4          0      37.706  50.400   4.159  1.00  0.00     0.103 C 
HETATM    5  O13         0      36.955  49.522   4.801  1.00  0.00    -0.307 OA
HETATM    6  C14         0      37.077  48.227   4.613  1.00  0.00     0.107 C 
HETATM    7  C15         0      36.604  47.306   5.536  1.00  0.00     0.049 C 
HETATM    8  C16         0      36.956  45.963   5.462  1.00  0.00     0.093 C 
HETATM    9  C18         0      37.322  45.522   4.196  1.00  0.00     0.048 C 
HETATM   10  C19         0      37.755  46.422   3.232  1.00  0.00     0.096 C 
HETATM   11  C21         0      37.807  47.758   3.525  1.00  0.00     0.084 C 
ENDROOT
BRANCH  10  12
HETATM   12  O20         0      38.512  45.960   2.160  1.00  0.00    -0.359 OA
HETATM   13  H20         0      39.263  45.410   2.350  1.00  0.00     0.218 HD
ENDBRANCH  10  12
BRANCH   4  14
HETATM   14  C5          0      38.011  51.676   4.809  1.00  0.00     0.025 C 
HETATM   15  C6          0      38.851  52.625   4.245  1.00  0.00     0.004 C 
HETATM   16  C7          0      38.506  53.964   4.400  1.00  0.00     0.026 C 
HETATM   17  C8          0      37.439  54.354   5.201  1.00  0.00     0.112 C 
HETATM   18  C10         0      37.086  53.439   6.184  1.00  0.00     0.112 C 
HETATM   19  C12         0      37.366  52.095   5.965  1.00  0.00     0.028 C 
BRANCH  17  20
HETATM   20  O9          0      36.681  55.467   4.880  1.00  0.00    -0.357 OA
HETATM   21  H9          0      36.824  56.329   5.254  1.00  0.00     0.218 HD
ENDBRANCH  17  20
BRANCH  18  22
HETATM   22  O11         0      36.157  53.856   7.126  1.00  0.00    -0.357 OA
HETATM   23  H11         0      35.504  54.483   6.838  1.00  0.00     0.218 HD
ENDBRANCH  18  22
ENDBRANCH   4  14
BRANCH   8  24
HETATM   24  O17         0      37.245  45.220   6.612  1.00  0.00    -0.359 OA
HETATM   25  H17         0      38.112  45.216   6.999  1.00  0.00     0.218 HD
ENDBRANCH   8  24
TORSDOF 5
ENDMDL
MODEL 5
REMARK VINA RESULT:      -6.8      1.809      2.220
REMARK  5 active torsions:
REMARK  status: ('A' for Active; 'I' for Inactive)
REMARK    1  A    between atoms: C4_4  and  C5_5 
REMARK    2  A    between atoms: C8_8  and  O9_9 
REMARK    3  A    between atoms: C10_11  and  O11_12 
REMARK    4  A    between atoms: C16_18  and  O17_19 
REMARK    5  A    between atoms: C19_22  and  O20_23 
ROOT
HETATM    1  O1          0      38.259  48.730   4.594  1.00  0.00    -0.286 OA
HETATM    2  C2          0      37.449  49.673   4.809  1.00  0.00     0.201 C 
HETATM    3  C3          0      36.119  49.461   5.131  1.00  0.00     0.067 C 
HETATM    4  C4          0      35.224  50.517   5.262  1.00  0.00     0.103 C 
HETATM    5  O13         0      35.668  51.750   5.093  1.00  0.00    -0.307 OA
HETATM    6  C14         0      36.912  52.005   4.750  1.00  0.00     0.107 C 
HETATM    7  C15         0      37.282  53.219   4.190  1.00  0.00     0.049 C 
HETATM    8  C16         0      38.528  53.391   3.599  1.00  0.00     0.093 C 
HETATM    9  C18         0      39.518  52.530   4.056  1.00  0.00     0.048 C 
HETATM   10  C19         0      39.183  51.328   4.663  1.00  0.00     0.096 C 
HETATM   11  C21         0      37.866  50.995   4.829  1.00  0.00     0.084 C 
ENDROOT
BRANCH  10  12
HETATM   12  O20         0      40.125  50.305   4.715  1.00  0.00    -0.359 OA
HETATM   13  H20         0      41.034  50.544   4.850  1.00  0.00     0.218 HD
ENDBRANCH  10  12
BRANCH   4  14
HETATM   14  C5          0      33.812  50.234   5.000  1.00  0.00     0.025 C 
HETATM   15  C6          0      33.320  49.978   3.728  1.00  0.00     0.004 C 
HETATM   16  C7          0      32.331  49.008   3.603  1.00  0.00     0.026 C 
HETATM   17  C8          0      31.754  48.406   4.717  1.00  0.00     0.112 C 
HETATM   18  C10         0      31.839  49.149   5.886  1.00  0.00     0.112 C 
HETATM   19  C12         0      32.888  50.052   6.020  1.00  0.00     0.028 C 
BRANCH  17  20
HETATM   20  O9          0      31.333  47.089   4.672  1.00  0.00    -0.357 OA
HETATM   21  H9          0      30.802  46.728   3.972  1.00  0.00     0.218 HD
ENDBRANCH  17  20
BRANCH  18  22
HETATM   22  O11         0      31.120  48.687   6.979  1.00  0.00    -0.357 OA
HETATM   23  H11         0      30.187  48.870   6.989  1.00  0.00     0.218 HD
ENDBRANCH  18  22
ENDBRANCH   4  14
BRANCH   8  24
HETATM   24  O17         0      38.679  54.127   2.419  1.00  0.00    -0.359 OA
HETATM   25  H17         0      37.993  54.699   2.095  1.00  0.00     0.218 HD
ENDBRANCH   8  24
TORSDOF 5
ENDMDL
MODEL 6
REMARK VINA RESULT:      -6.8      2.652      6.490
REMARK  5 active torsions:
REMARK  status: ('A' for Active; 'I' for Inactive)
REMARK    1  A    between atoms: C4_4  and  C5_5 
REMARK    2  A    between atoms: C8_8  and  O9_9 
REMARK    3  A    between atoms: C10_11  and  O11_12 
REMARK    4  A    between atoms: C16_18  and  O17_19 
REMARK    5  A    between atoms: C19_22  and  O20_23 
ROOT
HETATM    1  O1          0      33.395  48.458   5.149  1.00  0.00    -0.286 OA
HETATM    2  C2          0      34.050  49.154   4.327  1.00  0.00     0.201 C 
HETATM    3  C3          0      35.289  49.696   4.623  1.00  0.00     0.067 C 
HETATM    4  C4          0      35.944  50.545   3.737  1.00  0.00     0.103 C 
HETATM    5  O13         0      35.370  50.817   2.578  1.00  0.00    -0.307 OA
HETATM    6  C14         0      34.179  50.359   2.263  1.00  0.00     0.107 C 
HETATM    7  C15         0      33.412  50.942   1.264  1.00  0.00     0.049 C 
HETATM    8  C16         0      32.069  50.625   1.108  1.00  0.00     0.093 C 
HETATM    9  C18         0      31.698  49.379   1.601  1.00  0.00     0.048 C 
HETATM   10  C19         0      32.468  48.747   2.568  1.00  0.00     0.096 C 
HETATM   11  C21         0      33.610  49.346   3.026  1.00  0.00     0.084 C 
ENDROOT
BRANCH  10  12
HETATM   12  O20         0      31.891  47.754   3.354  1.00  0.00    -0.359 OA
HETATM   13  H20         0      32.464  47.230   3.901  1.00  0.00     0.218 HD
ENDBRANCH  10  12
BRANCH   4  14
HETATM   14  C5          0      36.878  51.517   4.307  1.00  0.00     0.025 C 
HETATM   15  C6          0      37.782  52.233   3.536  1.00  0.00     0.004 C 
HETATM   16  C7          0      38.013  53.561   3.881  1.00  0.00     0.026 C 
HETATM   17  C8          0      37.469  54.121   5.032  1.00  0.00     0.112 C 
HETATM   18  C10         0      37.138  53.205   6.021  1.00  0.00     0.112 C 
HETATM   19  C12         0      36.828  51.905   5.640  1.00  0.00     0.028 C 
BRANCH  17  20
HETATM   20  O9          0      37.107  55.456   5.068  1.00  0.00    -0.357 OA
HETATM   21  H9          0      36.959  55.984   4.292  1.00  0.00     0.218 HD
ENDBRANCH  17  20
BRANCH  18  22
HETATM   22  O11         0      36.770  53.719   7.257  1.00  0.00    -0.357 OA
HETATM   23  H11         0      37.473  53.988   7.837  1.00  0.00     0.218 HD
ENDBRANCH  18  22
ENDBRANCH   4  14
BRANCH   8  24
HETATM   24  O17         0      31.119  51.604   0.795  1.00  0.00    -0.359 OA
HETATM   25  H17         0      31.085  52.010  -0.063  1.00  0.00     0.218 HD
ENDBRANCH   8  24
TORSDOF 5
ENDMDL
MODEL 7
REMARK VINA RESULT:      -6.7      1.989      6.754
REMARK  5 active torsions:
REMARK  status: ('A' for Active; 'I' for Inactive)
REMARK    1  A    between atoms: C4_4  and  C5_5 
REMARK    2  A    between atoms: C8_8  and  O9_9 
REMARK    3  A    between atoms: C10_11  and  O11_12 
REMARK    4  A    between atoms: C16_18  and  O17_19 
REMARK    5  A    between atoms: C19_22  and  O20_23 
ROOT
HETATM    1  O1          0      32.446  46.407   5.079  1.00  0.00    -0.286 OA
HETATM    2  C2          0      32.597  47.645   4.890  1.00  0.00     0.201 C 
HETATM    3  C3          0      33.837  48.230   4.703  1.00  0.00     0.067 C 
HETATM    4  C4          0      33.984  49.609   4.599  1.00  0.00     0.103 C 
HETATM    5  O13         0      32.905  50.369   4.661  1.00  0.00    -0.307 OA
HETATM    6  C14         0      31.708  49.867   4.874  1.00  0.00     0.107 C 
HETATM    7  C15         0      30.658  50.650   5.332  1.00  0.00     0.049 C 
HETATM    8  C16         0      29.480  50.078   5.796  1.00  0.00     0.093 C 
HETATM    9  C18         0      29.207  48.810   5.297  1.00  0.00     0.048 C 
HETATM   10  C19         0      30.227  48.018   4.788  1.00  0.00     0.096 C 
HETATM   11  C21         0      31.509  48.495   4.761  1.00  0.00     0.084 C 
ENDROOT
BRANCH  10  12
HETATM   12  O20         0      30.042  46.641   4.703  1.00  0.00    -0.359 OA
HETATM   13  H20         0      30.710  46.079   5.077  1.00  0.00     0.218 HD
ENDBRANCH  10  12
BRANCH   4  14
HETATM   14  C5          0      35.271  50.178   5.005  1.00  0.00     0.025 C 
HETATM   15  C6          0      36.415  50.079   4.227  1.00  0.00     0.004 C 
HETATM   16  C7          0      37.265  51.179   4.188  1.00  0.00     0.026 C 
HETATM   17  C8          0      37.057  52.291   4.997  1.00  0.00     0.112 C 
HETATM   18  C10         0      36.311  52.043   6.141  1.00  0.00     0.112 C 
HETATM   19  C12         0      35.407  50.988   6.125  1.00  0.00     0.028 C 
BRANCH  17  20
HETATM   20  O9          0      37.395  53.559   4.560  1.00  0.00    -0.357 OA
HETATM   21  H9          0      37.217  54.352   5.052  1.00  0.00     0.218 HD
ENDBRANCH  17  20
BRANCH  18  22
HETATM   22  O11         0      36.233  53.067   7.075  1.00  0.00    -0.357 OA
HETATM   23  H11         0      36.873  53.766   7.001  1.00  0.00     0.218 HD
ENDBRANCH  18  22
ENDBRANCH   4  14
BRANCH   8  24
HETATM   24  O17         0      28.814  50.586   6.917  1.00  0.00    -0.359 OA
HETATM   25  H17         0      27.871  50.524   7.008  1.00  0.00     0.218 HD
ENDBRANCH   8  24
TORSDOF 5
ENDMDL
MODEL 8
REMARK VINA RESULT:      -6.7      1.358      1.632
REMARK  5 active torsions:
REMARK  status: ('A' for Active; 'I' for Inactive)
REMARK    1  A    between atoms: C4_4  and  C5_5 
REMARK    2  A    between atoms: C8_8  and  O9_9 
REMARK    3  A    between atoms: C10_11  and  O11_12 
REMARK    4  A    between atoms: C16_18  and  O17_19 
REMARK    5  A    between atoms: C19_22  and  O20_23 
ROOT
HETATM    1  O1          0      36.163  50.583   2.152  1.00  0.00    -0.286 OA
HETATM    2  C2          0      35.727  50.564   3.336  1.00  0.00     0.201 C 
HETATM    3  C3          0      34.593  49.861   3.706  1.00  0.00     0.067 C 
HETATM    4  C4          0      34.075  49.940   4.994  1.00  0.00     0.103 C 
HETATM    5  O13         0      34.700  50.690   5.885  1.00  0.00    -0.307 OA
HETATM    6  C14         0      35.759  51.406   5.576  1.00  0.00     0.107 C 
HETATM    7  C15         0      36.171  52.475   6.357  1.00  0.00     0.049 C 
HETATM    8  C16         0      37.123  53.379   5.900  1.00  0.00     0.093 C 
HETATM    9  C18         0      37.984  52.883   4.929  1.00  0.00     0.048 C 
HETATM   10  C19         0      37.622  51.785   4.160  1.00  0.00     0.096 C 
HETATM   11  C21         0      36.416  51.175   4.372  1.00  0.00     0.084 C 
ENDROOT
BRANCH  10  12
HETATM   12  O20         0      38.256  51.570   2.940  1.00  0.00    -0.359 OA
HETATM   13  H20         0      38.911  50.883   2.893  1.00  0.00     0.218 HD
ENDBRANCH  10  12
BRANCH   4  14
HETATM   14  C5          0      32.639  49.704   5.155  1.00  0.00     0.025 C 
HETATM   15  C6          0      31.730  49.866   4.119  1.00  0.00     0.004 C 
HETATM   16  C7          0      30.684  48.953   4.032  1.00  0.00     0.026 C 
HETATM   17  C8          0      30.469  47.993   5.015  1.00  0.00     0.112 C 
HETATM   18  C10         0      31.000  48.308   6.259  1.00  0.00     0.112 C 
HETATM   19  C12         0      32.099  49.156   6.311  1.00  0.00     0.028 C 
BRANCH  17  20
HETATM   20  O9          0      29.955  46.750   4.692  1.00  0.00    -0.357 OA
HETATM   21  H9          0      30.351  46.163   4.058  1.00  0.00     0.218 HD
ENDBRANCH  17  20
BRANCH  18  22
HETATM   22  O11         0      30.654  47.481   7.317  1.00  0.00    -0.357 OA
HETATM   23  H11         0      29.740  47.231   7.388  1.00  0.00     0.218 HD
ENDBRANCH  18  22
ENDBRANCH   4  14
BRANCH   8  24
HETATM   24  O17         0      37.004  54.751   6.147  1.00  0.00    -0.359 OA
HETATM   25  H17         0      37.576  55.384   5.729  1.00  0.00     0.218 HD
ENDBRANCH   8  24
TORSDOF 5
ENDMDL
MODEL 9
REMARK VINA RESULT:      -6.5      2.425      3.531
REMARK  5 active torsions:
REMARK  status: ('A' for Active; 'I' for Inactive)
REMARK    1  A    between atoms: C4_4  and  C5_5 
REMARK    2  A    between atoms: C8_8  and  O9_9 
REMARK    3  A    between atoms: C10_11  and  O11_12 
REMARK    4  A    between atoms: C16_18  and  O17_19 
REMARK    5  A    between atoms: C19_22  and  O20_23 
ROOT
HETATM    1  O1          0      34.864  50.752   1.992  1.00  0.00    -0.286 OA
HETATM    2  C2          0      34.473  50.390   3.135  1.00  0.00     0.201 C 
HETATM    3  C3          0      33.281  49.716   3.342  1.00  0.00     0.067 C 
HETATM    4  C4          0      32.825  49.420   4.621  1.00  0.00     0.103 C 
HETATM    5  O13         0      33.563  49.777   5.657  1.00  0.00    -0.307 OA
HETATM    6  C14         0      34.683  50.452   5.518  1.00  0.00     0.107 C 
HETATM    7  C15         0      35.242  51.164   6.569  1.00  0.00     0.049 C 
HETATM    8  C16         0      36.272  52.073   6.357  1.00  0.00     0.093 C 
HETATM    9  C18         0      37.034  51.841   5.219  1.00  0.00     0.048 C 
HETATM   10  C19         0      36.523  51.092   4.168  1.00  0.00     0.096 C 
HETATM   11  C21         0      35.264  50.564   4.260  1.00  0.00     0.084 C 
ENDROOT
BRANCH  10  12
HETATM   12  O20         0      37.083  51.227   2.901  1.00  0.00    -0.359 OA
HETATM   13  H20         0      37.558  50.487   2.543  1.00  0.00     0.218 HD
ENDBRANCH  10  12
BRANCH   4  14
HETATM   14  C5          0      31.378  49.281   4.800  1.00  0.00     0.025 C 
HETATM   15  C6          0      30.815  48.568   5.849  1.00  0.00     0.004 C 
HETATM   16  C7          0      29.660  49.081   6.431  1.00  0.00     0.026 C 
HETATM   17  C8          0      29.010  50.191   5.904  1.00  0.00     0.112 C 
HETATM   18  C10         0      29.261  50.426   4.559  1.00  0.00     0.112 C 
HETATM   19  C12         0      30.462  49.977   4.023  1.00  0.00     0.028 C 
BRANCH  17  20
HETATM   20  O9          0      28.349  51.084   6.730  1.00  0.00    -0.357 OA
HETATM   21  H9          0      28.488  51.137   7.668  1.00  0.00     0.218 HD
ENDBRANCH  17  20
BRANCH  18  22
HETATM   22  O11         0      28.495  51.403   3.938  1.00  0.00    -0.357 OA
HETATM   23  H11         0      28.885  52.265   3.852  1.00  0.00     0.218 HD
ENDBRANCH  18  22
ENDBRANCH   4  14
BRANCH   8  24
HETATM   24  O17         0      36.317  53.295   7.037  1.00  0.00    -0.359 OA
HETATM   25  H17         0      36.827  53.407   7.831  1.00  0.00     0.218 HD
ENDBRANCH   8  24
TORSDOF 5
ENDMDL
