MODEL 1
REMARK VINA RESULT:      -6.8      0.000      0.000
REMARK  5 active torsions:
REMARK  status: ('A' for Active; 'I' for Inactive)
REMARK    1  A    between atoms: C4_4  and  C5_5 
REMARK    2  A    between atoms: C8_8  and  O9_9 
REMARK    3  A    between atoms: C10_11  and  O11_12 
REMARK    4  A    between atoms: C16_18  and  O17_19 
REMARK    5  A    between atoms: C19_22  and  O20_23 
ROOT
HETATM    1  O1          0      51.007  90.565 -24.285  1.00  0.00    -0.286 OA
HETATM    2  C2          0      51.907  91.019 -23.527  1.00  0.00     0.201 C 
HETATM    3  C3          0      51.797  92.238 -22.878  1.00  0.00     0.067 C 
HETATM    4  C4          0      52.845  92.763 -22.131  1.00  0.00     0.103 C 
HETATM    5  O13         0      53.962  92.064 -22.026  1.00  0.00    -0.307 OA
HETATM    6  C14         0      54.132  90.920 -22.652  1.00  0.00     0.107 C 
HETATM    7  C15         0      55.395  90.391 -22.877  1.00  0.00     0.049 C 
HETATM    8  C16         0      55.587  89.327 -23.750  1.00  0.00     0.093 C 
HETATM    9  C18         0      54.473  88.519 -23.944  1.00  0.00     0.048 C 
HETATM   10  C19         0      53.197  89.001 -23.683  1.00  0.00     0.096 C 
HETATM   11  C21         0      53.036  90.277 -23.217  1.00  0.00     0.084 C 
ENDROOT
BRANCH  10  12
HETATM   12  O20         0      52.101  88.379 -24.272  1.00  0.00    -0.359 OA
HETATM   13  H20         0      52.230  87.949 -25.110  1.00  0.00     0.218 HD
ENDBRANCH  10  12
BRANCH   4  14
HETATM   14  C5          0      52.909  94.219 -21.998  1.00  0.00     0.025 C 
HETATM   15  C6          0      52.619  95.083 -23.044  1.00  0.00     0.004 C 
HETATM   16  C7          0      51.934  96.255 -22.740  1.00  0.00     0.026 C 
HETATM   17  C8          0      51.664  96.623 -21.426  1.00  0.00     0.112 C 
HETATM   18  C10         0      52.513  96.062 -20.481  1.00  0.00     0.112 C 
HETATM   19  C12         0      53.119  94.847 -20.777  1.00  0.00     0.028 C 
BRANCH  17  20
HETATM   20  O9          0      50.511  97.317 -21.107  1.00  0.00    -0.357 OA
HETATM   21  H9          0      49.648  96.919 -21.069  1.00  0.00     0.218 HD
ENDBRANCH  17  20
BRANCH  18  22
HETATM   22  O11         0      52.410  96.539 -19.183  1.00  0.00    -0.357 OA
HETATM   23  H11         0      52.416  97.483 -19.069  1.00  0.00     0.218 HD
ENDBRANCH  18  22
ENDBRANCH   4  14
BRANCH   8  24
HETATM   24  O17         0      56.688  89.280 -24.612  1.00  0.00    -0.359 OA
HETATM   25  H17         0      56.823  88.555 -25.211  1.00  0.00     0.218 HD
ENDBRANCH   8  24
TORSDOF 5
ENDMDL
MODEL 2
REMARK VINA RESULT:      -6.5      1.881      7.158
REMARK  5 active torsions:
REMARK  status: ('A' for Active; 'I' for Inactive)
REMARK    1  A    between atoms: C4_4  and  C5_5 
REMARK    2  A    between atoms: C8_8  and  O9_9 
REMARK    3  A    between atoms: C10_11  and  O11_12 
REMARK    4  A    between atoms: C16_18  and  O17_19 
REMARK    5  A    between atoms: C19_22  and  O20_23 
ROOT
HETATM    1  O1          0      55.865  93.597 -20.709  1.00  0.00    -0.286 OA
HETATM    2  C2          0      54.941  92.916 -21.233  1.00  0.00     0.201 C 
HETATM    3  C3          0      55.077  91.570 -21.529  1.00  0.00     0.067 C 
HETATM    4  C4          0      54.082  90.868 -22.200  1.00  0.00     0.103 C 
HETATM    5  O13         0      52.976  91.505 -22.541  1.00  0.00    -0.307 OA
HETATM    6  C14         0      52.812  92.790 -22.318  1.00  0.00     0.107 C 
HETATM    7  C15         0      51.867  93.537 -23.007  1.00  0.00     0.049 C 
HETATM    8  C16         0      51.869  94.926 -22.957  1.00  0.00     0.093 C 
HETATM    9  C18         0      52.466  95.472 -21.827  1.00  0.00     0.048 C 
HETATM   10  C19         0      53.381  94.735 -21.088  1.00  0.00     0.096 C 
HETATM   11  C21         0      53.685  93.455 -21.464  1.00  0.00     0.084 C 
ENDROOT
BRANCH  10  12
HETATM   12  O20         0      54.277  95.400 -20.256  1.00  0.00    -0.359 OA
HETATM   13  H20         0      54.335  96.345 -20.330  1.00  0.00     0.218 HD
ENDBRANCH  10  12
BRANCH   4  14
HETATM   14  C5          0      54.497  89.705 -22.986  1.00  0.00     0.025 C 
HETATM   15  C6          0      55.790  89.542 -23.463  1.00  0.00     0.004 C 
HETATM   16  C7          0      56.326  88.259 -23.448  1.00  0.00     0.026 C 
HETATM   17  C8          0      55.559  87.152 -23.098  1.00  0.00     0.112 C 
HETATM   18  C10         0      54.190  87.321 -23.261  1.00  0.00     0.112 C 
HETATM   19  C12         0      53.670  88.608 -23.187  1.00  0.00     0.028 C 
BRANCH  17  20
HETATM   20  O9          0      56.128  86.072 -22.447  1.00  0.00    -0.357 OA
HETATM   21  H9          0      55.703  85.598 -21.741  1.00  0.00     0.218 HD
ENDBRANCH  17  20
BRANCH  18  22
HETATM   22  O11         0      53.396  86.194 -23.109  1.00  0.00    -0.357 OA
HETATM   23  H11         0      52.623  86.283 -22.563  1.00  0.00     0.218 HD
ENDBRANCH  18  22
ENDBRANCH   4  14
BRANCH   8  24
HETATM   24  O17         0      51.602  95.697 -24.094  1.00  0.00    -0.359 OA
HETATM   25  H17         0      52.111  95.603 -24.891  1.00  0.00     0.218 HD
ENDBRANCH   8  24
TORSDOF 5
ENDMDL
MODEL 3
REMARK VINA RESULT:      -6.3      1.563      2.143
REMARK  5 active torsions:
REMARK  status: ('A' for Active; 'I' for Inactive)
REMARK    1  A    between atoms: C4_4  and  C5_5 
REMARK    2  A    between atoms: C8_8  and  O9_9 
REMARK    3  A    between atoms: C10_11  and  O11_12 
REMARK    4  A    between atoms: C16_18  and  O17_19 
REMARK    5  A    between atoms: C19_22  and  O20_23 
ROOT
HETATM    1  O1          0      52.224  88.516 -24.406  1.00  0.00    -0.286 OA
HETATM    2  C2          0      52.852  89.152 -23.515  1.00  0.00     0.201 C 
HETATM    3  C3          0      52.472  90.412 -23.084  1.00  0.00     0.067 C 
HETATM    4  C4          0      53.239  91.133 -22.176  1.00  0.00     0.103 C 
HETATM    5  O13         0      54.345  90.585 -21.703  1.00  0.00    -0.307 OA
HETATM    6  C14         0      54.770  89.408 -22.107  1.00  0.00     0.107 C 
HETATM    7  C15         0      56.088  89.009 -21.938  1.00  0.00     0.049 C 
HETATM    8  C16         0      56.592  87.887 -22.585  1.00  0.00     0.093 C 
HETATM    9  C18         0      55.641  86.938 -22.939  1.00  0.00     0.048 C 
HETATM   10  C19         0      54.305  87.293 -23.073  1.00  0.00     0.096 C 
HETATM   11  C21         0      53.919  88.584 -22.836  1.00  0.00     0.084 C 
ENDROOT
BRANCH  10  12
HETATM   12  O20         0      53.459  86.487 -23.828  1.00  0.00    -0.359 OA
HETATM   13  H20         0      52.659  86.178 -23.421  1.00  0.00     0.218 HD
ENDBRANCH  10  12
BRANCH   4  14
HETATM   14  C5          0      53.142  92.593 -22.227  1.00  0.00     0.025 C 
HETATM   15  C6          0      51.949  93.259 -22.469  1.00  0.00     0.004 C 
HETATM   16  C7          0      51.714  94.435 -21.765  1.00  0.00     0.026 C 
HETATM   17  C8          0      52.685  95.003 -20.948  1.00  0.00     0.112 C 
HETATM   18  C10         0      53.989  94.643 -21.261  1.00  0.00     0.112 C 
HETATM   19  C12         0      54.204  93.422 -21.889  1.00  0.00     0.028 C 
BRANCH  17  20
HETATM   20  O9          0      52.333  95.691 -19.800  1.00  0.00    -0.357 OA
HETATM   21  H9          0      51.948  95.279 -19.035  1.00  0.00     0.218 HD
ENDBRANCH  17  20
BRANCH  18  22
HETATM   22  O11         0      55.004  95.323 -20.604  1.00  0.00    -0.357 OA
HETATM   23  H11         0      54.929  95.400 -19.659  1.00  0.00     0.218 HD
ENDBRANCH  18  22
ENDBRANCH   4  14
BRANCH   8  24
HETATM   24  O17         0      57.881  87.877 -23.129  1.00  0.00    -0.359 OA
HETATM   25  H17         0      58.211  88.603 -23.645  1.00  0.00     0.218 HD
ENDBRANCH   8  24
TORSDOF 5
ENDMDL
MODEL 4
REMARK VINA RESULT:      -6.2      1.805      6.613
REMARK  5 active torsions:
REMARK  status: ('A' for Active; 'I' for Inactive)
REMARK    1  A    between atoms: C4_4  and  C5_5 
REMARK    2  A    between atoms: C8_8  and  O9_9 
REMARK    3  A    between atoms: C10_11  and  O11_12 
REMARK    4  A    between atoms: C16_18  and  O17_19 
REMARK    5  A    between atoms: C19_22  and  O20_23 
ROOT
HETATM    1  O1          0      50.283  93.035 -22.478  1.00  0.00    -0.286 OA
HETATM    2  C2          0      51.519  92.801 -22.373  1.00  0.00     0.201 C 
HETATM    3  C3          0      52.075  91.565 -22.654  1.00  0.00     0.067 C 
HETATM    4  C4          0      53.423  91.305 -22.432  1.00  0.00     0.103 C 
HETATM    5  O13         0      54.187  92.275 -21.960  1.00  0.00    -0.307 OA
HETATM    6  C14         0      53.701  93.455 -21.641  1.00  0.00     0.107 C 
HETATM    7  C15         0      54.380  94.319 -20.794  1.00  0.00     0.049 C 
HETATM    8  C16         0      53.758  95.442 -20.260  1.00  0.00     0.093 C 
HETATM    9  C18         0      52.685  95.926 -20.999  1.00  0.00     0.048 C 
HETATM   10  C19         0      52.013  95.100 -21.890  1.00  0.00     0.096 C 
HETATM   11  C21         0      52.421  93.805 -22.056  1.00  0.00     0.084 C 
ENDROOT
BRANCH  10  12
HETATM   12  O20         0      50.720  95.432 -22.282  1.00  0.00    -0.359 OA
HETATM   13  H20         0      50.014  95.273 -21.668  1.00  0.00     0.218 HD
ENDBRANCH  10  12
BRANCH   4  14
HETATM   14  C5          0      53.802  89.916 -22.167  1.00  0.00     0.025 C 
HETATM   15  C6          0      53.391  88.859 -22.965  1.00  0.00     0.004 C 
HETATM   16  C7          0      54.304  87.837 -23.203  1.00  0.00     0.026 C 
HETATM   17  C8          0      55.537  87.797 -22.561  1.00  0.00     0.112 C 
HETATM   18  C10         0      55.591  88.499 -21.364  1.00  0.00     0.112 C 
HETATM   19  C12         0      54.724  89.570 -21.187  1.00  0.00     0.028 C 
BRANCH  17  20
HETATM   20  O9          0      56.650  87.275 -23.196  1.00  0.00    -0.357 OA
HETATM   21  H9          0      57.536  87.588 -23.052  1.00  0.00     0.218 HD
ENDBRANCH  17  20
BRANCH  18  22
HETATM   22  O11         0      56.733  88.338 -20.592  1.00  0.00    -0.357 OA
HETATM   23  H11         0      56.640  88.467 -19.655  1.00  0.00     0.218 HD
ENDBRANCH  18  22
ENDBRANCH   4  14
BRANCH   8  24
HETATM   24  O17         0      53.976  95.835 -18.935  1.00  0.00    -0.359 OA
HETATM   25  H17         0      54.850  95.997 -18.600  1.00  0.00     0.218 HD
ENDBRANCH   8  24
TORSDOF 5
ENDMDL
MODEL 5
REMARK VINA RESULT:      -5.9      1.978      3.097
REMARK  5 active torsions:
REMARK  status: ('A' for Active; 'I' for Inactive)
REMARK    1  A    between atoms: C4_4  and  C5_5 
REMARK    2  A    between atoms: C8_8  and  O9_9 
REMARK    3  A    between atoms: C10_11  and  O11_12 
REMARK    4  A    between atoms: C16_18  and  O17_19 
REMARK    5  A    between atoms: C19_22  and  O20_23 
ROOT
HETATM    1  O1          0      55.639  89.518 -19.744  1.00  0.00    -0.286 OA
HETATM    2  C2          0      55.470  90.045 -20.878  1.00  0.00     0.201 C 
HETATM    3  C3          0      55.410  91.415 -21.068  1.00  0.00     0.067 C 
HETATM    4  C4          0      55.122  91.967 -22.311  1.00  0.00     0.103 C 
HETATM    5  O13         0      54.921  91.155 -23.335  1.00  0.00    -0.307 OA
HETATM    6  C14         0      54.930  89.847 -23.201  1.00  0.00     0.107 C 
HETATM    7  C15         0      54.341  89.013 -24.141  1.00  0.00     0.049 C 
HETATM    8  C16         0      54.128  87.665 -23.876  1.00  0.00     0.093 C 
HETATM    9  C18         0      54.973  87.114 -22.921  1.00  0.00     0.048 C 
HETATM   10  C19         0      55.615  87.924 -21.995  1.00  0.00     0.096 C 
HETATM   11  C21         0      55.428  89.279 -22.034  1.00  0.00     0.084 C 
ENDROOT
BRANCH  10  12
HETATM   12  O20         0      56.086  87.365 -20.811  1.00  0.00    -0.359 OA
HETATM   13  H20         0      56.389  87.953 -20.130  1.00  0.00     0.218 HD
ENDBRANCH  10  12
BRANCH   4  14
HETATM   14  C5          0      54.495  93.290 -22.328  1.00  0.00     0.025 C 
HETATM   15  C6          0      54.147  93.942 -23.502  1.00  0.00     0.004 C 
HETATM   16  C7          0      52.960  94.667 -23.508  1.00  0.00     0.026 C 
HETATM   17  C8          0      52.211  94.851 -22.351  1.00  0.00     0.112 C 
HETATM   18  C10         0      52.929  94.725 -21.169  1.00  0.00     0.112 C 
HETATM   19  C12         0      54.066  93.925 -21.170  1.00  0.00     0.028 C 
BRANCH  17  20
HETATM   20  O9          0      50.831  94.937 -22.405  1.00  0.00    -0.357 OA
HETATM   21  H9          0      50.276  94.273 -22.797  1.00  0.00     0.218 HD
ENDBRANCH  17  20
BRANCH  18  22
HETATM   22  O11         0      52.279  95.082 -19.997  1.00  0.00    -0.357 OA
HETATM   23  H11         0      52.785  95.566 -19.355  1.00  0.00     0.218 HD
ENDBRANCH  18  22
ENDBRANCH   4  14
BRANCH   8  24
HETATM   24  O17         0      52.955  87.019 -24.282  1.00  0.00    -0.359 OA
HETATM   25  H17         0      52.240  86.855 -23.677  1.00  0.00     0.218 HD
ENDBRANCH   8  24
TORSDOF 5
ENDMDL
MODEL 6
REMARK VINA RESULT:      -5.6      1.642      6.869
REMARK  5 active torsions:
REMARK  status: ('A' for Active; 'I' for Inactive)
REMARK    1  A    between atoms: C4_4  and  C5_5 
REMARK    2  A    between atoms: C8_8  and  O9_9 
REMARK    3  A    between atoms: C10_11  and  O11_12 
REMARK    4  A    between atoms: C16_18  and  O17_19 
REMARK    5  A    between atoms: C19_22  and  O20_23 
ROOT
HETATM    1  O1          0      51.087  96.403 -23.397  1.00  0.00    -0.286 OA
HETATM    2  C2          0      51.830  95.610 -22.757  1.00  0.00     0.201 C 
HETATM    3  C3          0      52.036  94.296 -23.143  1.00  0.00     0.067 C 
HETATM    4  C4          0      52.776  93.415 -22.364  1.00  0.00     0.103 C 
HETATM    5  O13         0      53.310  93.857 -21.239  1.00  0.00    -0.307 OA
HETATM    6  C14         0      53.115  95.084 -20.808  1.00  0.00     0.107 C 
HETATM    7  C15         0      53.319  95.433 -19.480  1.00  0.00     0.049 C 
HETATM    8  C16         0      52.873  96.649 -18.977  1.00  0.00     0.093 C 
HETATM    9  C18         0      52.723  97.656 -19.923  1.00  0.00     0.048 C 
HETATM   10  C19         0      52.564  97.343 -21.267  1.00  0.00     0.096 C 
HETATM   11  C21         0      52.572  96.034 -21.665  1.00  0.00     0.084 C 
ENDROOT
BRANCH  10  12
HETATM   12  O20         0      51.991  98.281 -22.120  1.00  0.00    -0.359 OA
HETATM   13  H20         0      52.231  98.253 -23.038  1.00  0.00     0.218 HD
ENDBRANCH  10  12
BRANCH   4  14
HETATM   14  C5          0      52.463  91.990 -22.483  1.00  0.00     0.025 C 
HETATM   15  C6          0      51.483  91.504 -23.337  1.00  0.00     0.004 C 
HETATM   16  C7          0      51.739  90.308 -23.998  1.00  0.00     0.026 C 
HETATM   17  C8          0      52.872  89.549 -23.722  1.00  0.00     0.112 C 
HETATM   18  C10         0      53.425  89.770 -22.467  1.00  0.00     0.112 C 
HETATM   19  C12         0      53.224  91.006 -21.865  1.00  0.00     0.028 C 
BRANCH  17  20
HETATM   20  O9          0      53.489  88.809 -24.714  1.00  0.00    -0.357 OA
HETATM   21  H9          0      54.341  89.021 -25.078  1.00  0.00     0.218 HD
ENDBRANCH  17  20
BRANCH  18  22
HETATM   22  O11         0      54.437  88.909 -22.067  1.00  0.00    -0.357 OA
HETATM   23  H11         0      54.465  88.677 -21.146  1.00  0.00     0.218 HD
ENDBRANCH  18  22
ENDBRANCH   4  14
BRANCH   8  24
HETATM   24  O17         0      52.305  96.746 -17.702  1.00  0.00    -0.359 OA
HETATM   25  H17         0      52.607  97.386 -17.069  1.00  0.00     0.218 HD
ENDBRANCH   8  24
TORSDOF 5
ENDMDL
MODEL 7
REMARK VINA RESULT:      -5.5      1.548      2.082
REMARK  5 active torsions:
REMARK  status: ('A' for Active; 'I' for Inactive)
REMARK    1  A    between atoms: C4_4  and  C5_5 
REMARK    2  A    between atoms: C8_8  and  O9_9 
REMARK    3  A    between atoms: C10_11  and  O11_12 
REMARK    4  A    between atoms: C16_18  and  O17_19 
REMARK    5  A    between atoms: C19_22  and  O20_23 
ROOT
HETATM    1  O1          0      51.849  89.266 -24.120  1.00  0.00    -0.286 OA
HETATM    2  C2          0      52.541  90.106 -23.482  1.00  0.00     0.201 C 
HETATM    3  C3          0      52.022  91.299 -23.008  1.00  0.00     0.067 C 
HETATM    4  C4          0      52.829  92.253 -22.398  1.00  0.00     0.103 C 
HETATM    5  O13         0      54.117  91.996 -22.254  1.00  0.00    -0.307 OA
HETATM    6  C14         0      54.667  90.895 -22.718  1.00  0.00     0.107 C 
HETATM    7  C15         0      56.034  90.795 -22.931  1.00  0.00     0.049 C 
HETATM    8  C16         0      56.576  89.738 -23.653  1.00  0.00     0.093 C 
HETATM    9  C18         0      55.805  88.583 -23.671  1.00  0.00     0.048 C 
HETATM   10  C19         0      54.441  88.641 -23.416  1.00  0.00     0.096 C 
HETATM   11  C21         0      53.855  89.843 -23.128  1.00  0.00     0.084 C 
ENDROOT
BRANCH  10  12
HETATM   12  O20         0      53.622  87.604 -23.854  1.00  0.00    -0.359 OA
HETATM   13  H20         0      53.003  87.789 -24.549  1.00  0.00     0.218 HD
ENDBRANCH  10  12
BRANCH   4  14
HETATM   14  C5          0      52.394  93.649 -22.477  1.00  0.00     0.025 C 
HETATM   15  C6          0      52.075  94.401 -21.356  1.00  0.00     0.004 C 
HETATM   16  C7          0      52.452  95.740 -21.350  1.00  0.00     0.026 C 
HETATM   17  C8          0      53.008  96.347 -22.472  1.00  0.00     0.112 C 
HETATM   18  C10         0      52.703  95.727 -23.677  1.00  0.00     0.112 C 
HETATM   19  C12         0      52.412  94.368 -23.665  1.00  0.00     0.028 C 
BRANCH  17  20
HETATM   20  O9          0      53.951  97.350 -22.341  1.00  0.00    -0.357 OA
HETATM   21  H9          0      54.642  97.511 -22.973  1.00  0.00     0.218 HD
ENDBRANCH  17  20
BRANCH  18  22
HETATM   22  O11         0      53.071  96.393 -24.837  1.00  0.00    -0.357 OA
HETATM   23  H11         0      53.968  96.703 -24.889  1.00  0.00     0.218 HD
ENDBRANCH  18  22
ENDBRANCH   4  14
BRANCH   8  24
HETATM   24  O17         0      57.628  89.935 -24.554  1.00  0.00    -0.359 OA
HETATM   25  H17         0      57.998  90.796 -24.710  1.00  0.00     0.218 HD
ENDBRANCH   8  24
TORSDOF 5
ENDMDL
MODEL 8
REMARK VINA RESULT:      -5.3      2.572      3.272
REMARK  5 active torsions:
REMARK  status: ('A' for Active; 'I' for Inactive)
REMARK    1  A    between atoms: C4_4  and  C5_5 
REMARK    2  A    between atoms: C8_8  and  O9_9 
REMARK    3  A    between atoms: C10_11  and  O11_12 
REMARK    4  A    between atoms: C16_18  and  O17_19 
REMARK    5  A    between atoms: C19_22  and  O20_23 
ROOT
HETATM    1  O1          0      52.048  91.159 -22.242  1.00  0.00    -0.286 OA
HETATM    2  C2          0      53.066  91.882 -22.427  1.00  0.00     0.201 C 
HETATM    3  C3          0      52.988  93.249 -22.631  1.00  0.00     0.067 C 
HETATM    4  C4          0      54.115  94.005 -22.934  1.00  0.00     0.103 C 
HETATM    5  O13         0      55.286  93.398 -23.005  1.00  0.00    -0.307 OA
HETATM    6  C14         0      55.410  92.098 -22.857  1.00  0.00     0.107 C 
HETATM    7  C15         0      56.526  91.412 -23.315  1.00  0.00     0.049 C 
HETATM    8  C16         0      56.542  90.025 -23.387  1.00  0.00     0.093 C 
HETATM    9  C18         0      55.665  89.382 -22.522  1.00  0.00     0.048 C 
HETATM   10  C19         0      54.563  90.052 -22.007  1.00  0.00     0.096 C 
HETATM   11  C21         0      54.348  91.362 -22.342  1.00  0.00     0.084 C 
ENDROOT
BRANCH  10  12
HETATM   12  O20         0      53.486  89.318 -21.521  1.00  0.00    -0.359 OA
HETATM   13  H20         0      53.672  88.522 -21.037  1.00  0.00     0.218 HD
ENDBRANCH  10  12
BRANCH   4  14
HETATM   14  C5          0      53.910  95.234 -23.702  1.00  0.00     0.025 C 
HETATM   15  C6          0      54.928  95.858 -24.409  1.00  0.00     0.004 C 
HETATM   16  C7          0      54.606  96.421 -25.640  1.00  0.00     0.026 C 
HETATM   17  C8          0      53.293  96.482 -26.093  1.00  0.00     0.112 C 
HETATM   18  C10         0      52.331  96.428 -25.094  1.00  0.00     0.112 C 
HETATM   19  C12         0      52.651  95.785 -23.904  1.00  0.00     0.028 C 
BRANCH  17  20
HETATM   20  O9          0      53.004  96.387 -27.443  1.00  0.00    -0.357 OA
HETATM   21  H9          0      52.691  95.593 -27.862  1.00  0.00     0.218 HD
ENDBRANCH  17  20
BRANCH  18  22
HETATM   22  O11         0      51.018  96.674 -25.470  1.00  0.00    -0.357 OA
HETATM   23  H11         0      50.832  97.525 -25.850  1.00  0.00     0.218 HD
ENDBRANCH  18  22
ENDBRANCH   4  14
BRANCH   8  24
HETATM   24  O17         0      57.132  89.357 -24.466  1.00  0.00    -0.359 OA
HETATM   25  H17         0      58.030  89.051 -24.432  1.00  0.00     0.218 HD
ENDBRANCH   8  24
TORSDOF 5
ENDMDL
MODEL 9
REMARK VINA RESULT:      -5.3      2.201      6.476
REMARK  5 active torsions:
REMARK  status: ('A' for Active; 'I' for Inactive)
REMARK    1  A    between atoms: C4_4  and  C5_5 
REMARK    2  A    between atoms: C8_8  and  O9_9 
REMARK    3  A    between atoms: C10_11  and  O11_12 
REMARK    4  A    between atoms: C16_18  and  O17_19 
REMARK    5  A    between atoms: C19_22  and  O20_23 
ROOT
HETATM    1  O1          0      51.117  96.289 -21.398  1.00  0.00    -0.286 OA
HETATM    2  C2          0      51.559  95.527 -22.301  1.00  0.00     0.201 C 
HETATM    3  C3          0      51.457  94.148 -22.235  1.00  0.00     0.067 C 
HETATM    4  C4          0      52.043  93.328 -23.193  1.00  0.00     0.103 C 
HETATM    5  O13         0      52.694  93.889 -24.196  1.00  0.00    -0.307 OA
HETATM    6  C14         0      52.853  95.191 -24.286  1.00  0.00     0.107 C 
HETATM    7  C15         0      53.843  95.754 -25.079  1.00  0.00     0.049 C 
HETATM    8  C16         0      54.172  97.100 -24.975  1.00  0.00     0.093 C 
HETATM    9  C18         0      53.161  97.915 -24.478  1.00  0.00     0.048 C 
HETATM   10  C19         0      52.130  97.377 -23.720  1.00  0.00     0.096 C 
HETATM   11  C21         0      52.099  96.032 -23.474  1.00  0.00     0.084 C 
ENDROOT
BRANCH  10  12
HETATM   12  O20         0      51.395  98.211 -22.883  1.00  0.00    -0.359 OA
HETATM   13  H20         0      51.677  99.113 -22.794  1.00  0.00     0.218 HD
ENDBRANCH  10  12
BRANCH   4  14
HETATM   14  C5          0      52.419  91.975 -22.777  1.00  0.00     0.025 C 
HETATM   15  C6          0      51.894  90.834 -23.365  1.00  0.00     0.004 C 
HETATM   16  C7          0      52.751  89.754 -23.555  1.00  0.00     0.026 C 
HETATM   17  C8          0      54.049  89.757 -23.055  1.00  0.00     0.112 C 
HETATM   18  C10         0      54.256  90.615 -21.984  1.00  0.00     0.112 C 
HETATM   19  C12         0      53.440  91.734 -21.866  1.00  0.00     0.028 C 
BRANCH  17  20
HETATM   20  O9          0      55.069  89.109 -23.729  1.00  0.00    -0.357 OA
HETATM   21  H9          0      55.175  88.165 -23.744  1.00  0.00     0.218 HD
ENDBRANCH  17  20
BRANCH  18  22
HETATM   22  O11         0      55.476  90.519 -21.328  1.00  0.00    -0.357 OA
HETATM   23  H11         0      55.929  91.333 -21.143  1.00  0.00     0.218 HD
ENDBRANCH  18  22
ENDBRANCH   4  14
BRANCH   8  24
HETATM   24  O17         0      55.501  97.533 -25.040  1.00  0.00    -0.359 OA
HETATM   25  H17         0      55.731  98.388 -25.384  1.00  0.00     0.218 HD
ENDBRANCH   8  24
TORSDOF 5
ENDMDL
