MODEL 1
REMARK VINA RESULT:      -1.3      0.000      0.000
REMARK  5 active torsions:
REMARK  status: ('A' for Active; 'I' for Inactive)
REMARK    1  A    between atoms: C4_4  and  C5_5 
REMARK    2  A    between atoms: C8_8  and  O9_9 
REMARK    3  A    between atoms: C10_11  and  O11_12 
REMARK    4  A    between atoms: C16_18  and  O17_19 
REMARK    5  A    between atoms: C19_22  and  O20_23 
ROOT
HETATM    1  O1          0      48.920 100.995 -27.319  1.00  0.00    -0.286 OA
HETATM    2  C2          0      47.771 100.631 -26.947  1.00  0.00     0.201 C 
HETATM    3  C3          0      46.698 100.529 -27.816  1.00  0.00     0.067 C 
HETATM    4  C4          0      45.419 100.226 -27.363  1.00  0.00     0.103 C 
HETATM    5  O13         0      45.238 100.012 -26.072  1.00  0.00    -0.307 OA
HETATM    6  C14         0      46.214 100.132 -25.199  1.00  0.00     0.107 C 
HETATM    7  C15         0      45.966 100.306 -23.845  1.00  0.00     0.049 C 
HETATM    8  C16         0      46.977 100.685 -22.970  1.00  0.00     0.093 C 
HETATM    9  C18         0      48.264 100.363 -23.384  1.00  0.00     0.048 C 
HETATM   10  C19         0      48.537 100.137 -24.726  1.00  0.00     0.096 C 
HETATM   11  C21         0      47.528 100.215 -25.647  1.00  0.00     0.084 C 
ENDROOT
BRANCH  10  12
HETATM   12  O20         0      49.847 100.251 -25.182  1.00  0.00    -0.359 OA
HETATM   13  H20         0      50.014 100.082 -26.101  1.00  0.00     0.218 HD
ENDBRANCH  10  12
BRANCH   4  14
HETATM   14  C5          0      44.293 100.712 -28.162  1.00  0.00     0.025 C 
HETATM   15  C6          0      43.967 100.182 -29.402  1.00  0.00     0.004 C 
HETATM   16  C7          0      42.617 100.049 -29.712  1.00  0.00     0.026 C 
HETATM   17  C8          0      41.625 100.549 -28.876  1.00  0.00     0.112 C 
HETATM   18  C10         0      42.036 101.575 -28.036  1.00  0.00     0.112 C 
HETATM   19  C12         0      43.377 101.634 -27.674  1.00  0.00     0.028 C 
BRANCH  17  20
HETATM   20  O9          0      40.402  99.910 -28.767  1.00  0.00    -0.357 OA
HETATM   21  H9          0      40.147  99.383 -28.019  1.00  0.00     0.218 HD
ENDBRANCH  17  20
BRANCH  18  22
HETATM   22  O11         0      41.048 102.235 -27.320  1.00  0.00    -0.357 OA
HETATM   23  H11         0      40.888 103.144 -27.545  1.00  0.00     0.218 HD
ENDBRANCH  18  22
ENDBRANCH   4  14
BRANCH   8  24
HETATM   24  O17         0      46.743 101.604 -21.941  1.00  0.00    -0.359 OA
HETATM   25  H17         0      46.622 102.529 -22.116  1.00  0.00     0.218 HD
ENDBRANCH   8  24
TORSDOF 5
ENDMDL
MODEL 2
REMARK VINA RESULT:      -1.2      2.593      5.162
REMARK  5 active torsions:
REMARK  status: ('A' for Active; 'I' for Inactive)
REMARK    1  A    between atoms: C4_4  and  C5_5 
REMARK    2  A    between atoms: C8_8  and  O9_9 
REMARK    3  A    between atoms: C10_11  and  O11_12 
REMARK    4  A    between atoms: C16_18  and  O17_19 
REMARK    5  A    between atoms: C19_22  and  O20_23 
ROOT
HETATM    1  O1          0      43.865 100.759 -28.648  1.00  0.00    -0.286 OA
HETATM    2  C2          0      44.620 100.425 -27.693  1.00  0.00     0.201 C 
HETATM    3  C3          0      44.158 100.243 -26.400  1.00  0.00     0.067 C 
HETATM    4  C4          0      45.026  99.977 -25.347  1.00  0.00     0.103 C 
HETATM    5  O13         0      46.319  99.877 -25.601  1.00  0.00    -0.307 OA
HETATM    6  C14         0      46.814 100.078 -26.802  1.00  0.00     0.107 C 
HETATM    7  C15         0      48.156 100.369 -27.001  1.00  0.00     0.049 C 
HETATM    8  C16         0      48.620 100.828 -28.228  1.00  0.00     0.093 C 
HETATM    9  C18         0      47.838 100.476 -29.321  1.00  0.00     0.048 C 
HETATM   10  C19         0      46.503 100.133 -29.152  1.00  0.00     0.096 C 
HETATM   11  C21         0      45.958 100.125 -27.897  1.00  0.00     0.084 C 
ENDROOT
BRANCH  10  12
HETATM   12  O20         0      45.638 100.210 -30.239  1.00  0.00    -0.359 OA
HETATM   13  H20         0      44.707 100.268 -30.064  1.00  0.00     0.218 HD
ENDBRANCH  10  12
BRANCH   4  14
HETATM   14  C5          0      44.600 100.386 -24.008  1.00  0.00     0.025 C 
HETATM   15  C6          0      45.232 101.392 -23.292  1.00  0.00     0.004 C 
HETATM   16  C7          0      44.434 102.244 -22.534  1.00  0.00     0.026 C 
HETATM   17  C8          0      43.070 102.022 -22.384  1.00  0.00     0.112 C 
HETATM   18  C10         0      42.670 100.708 -22.585  1.00  0.00     0.112 C 
HETATM   19  C12         0      43.440  99.903 -23.416  1.00  0.00     0.028 C 
BRANCH  17  20
HETATM   20  O9          0      42.189 103.082 -22.257  1.00  0.00    -0.357 OA
HETATM   21  H9          0      42.462 103.979 -22.098  1.00  0.00     0.218 HD
ENDBRANCH  17  20
BRANCH  18  22
HETATM   22  O11         0      41.356 100.395 -22.264  1.00  0.00    -0.357 OA
HETATM   23  H11         0      40.900  99.802 -22.850  1.00  0.00     0.218 HD
ENDBRANCH  18  22
ENDBRANCH   4  14
BRANCH   8  24
HETATM   24  O17         0      49.590 101.834 -28.311  1.00  0.00    -0.359 OA
HETATM   25  H17         0      50.300 101.895 -27.683  1.00  0.00     0.218 HD
ENDBRANCH   8  24
TORSDOF 5
ENDMDL
MODEL 3
REMARK VINA RESULT:      -1.2      1.595      2.394
REMARK  5 active torsions:
REMARK  status: ('A' for Active; 'I' for Inactive)
REMARK    1  A    between atoms: C4_4  and  C5_5 
REMARK    2  A    between atoms: C8_8  and  O9_9 
REMARK    3  A    between atoms: C10_11  and  O11_12 
REMARK    4  A    between atoms: C16_18  and  O17_19 
REMARK    5  A    between atoms: C19_22  and  O20_23 
ROOT
HETATM    1  O1          0      46.729 101.092 -29.644  1.00  0.00    -0.286 OA
HETATM    2  C2          0      45.989 100.703 -28.700  1.00  0.00     0.201 C 
HETATM    3  C3          0      44.607 100.743 -28.764  1.00  0.00     0.067 C 
HETATM    4  C4          0      43.817 100.405 -27.671  1.00  0.00     0.103 C 
HETATM    5  O13         0      44.409 100.018 -26.555  1.00  0.00    -0.307 OA
HETATM    6  C14         0      45.718  99.997 -26.429  1.00  0.00     0.107 C 
HETATM    7  C15         0      46.332  99.987 -25.185  1.00  0.00     0.049 C 
HETATM    8  C16         0      47.695 100.222 -25.051  1.00  0.00     0.093 C 
HETATM    9  C18         0      48.454  99.935 -26.180  1.00  0.00     0.048 C 
HETATM   10  C19         0      47.862  99.892 -27.435  1.00  0.00     0.096 C 
HETATM   11  C21         0      46.518 100.116 -27.560  1.00  0.00     0.084 C 
ENDROOT
BRANCH  10  12
HETATM   12  O20         0      48.656 100.042 -28.567  1.00  0.00    -0.359 OA
HETATM   13  H20         0      48.395  99.585 -29.358  1.00  0.00     0.218 HD
ENDBRANCH  10  12
BRANCH   4  14
HETATM   14  C5          0      42.490 101.018 -27.588  1.00  0.00     0.025 C 
HETATM   15  C6          0      41.916 101.713 -28.643  1.00  0.00     0.004 C 
HETATM   16  C7          0      40.548 101.559 -28.847  1.00  0.00     0.026 C 
HETATM   17  C8          0      39.753 100.848 -27.955  1.00  0.00     0.112 C 
HETATM   18  C10         0      40.268 100.751 -26.669  1.00  0.00     0.112 C 
HETATM   19  C12         0      41.646 100.823 -26.503  1.00  0.00     0.028 C 
BRANCH  17  20
HETATM   20  O9          0      38.655 100.132 -28.399  1.00  0.00    -0.357 OA
HETATM   21  H9          0      37.793 100.188 -28.004  1.00  0.00     0.218 HD
ENDBRANCH  17  20
BRANCH  18  22
HETATM   22  O11         0      39.433 100.219 -25.696  1.00  0.00    -0.357 OA
HETATM   23  H11         0      38.778 100.800 -25.328  1.00  0.00     0.218 HD
ENDBRANCH  18  22
ENDBRANCH   4  14
BRANCH   8  24
HETATM   24  O17         0      48.203 100.994 -24.000  1.00  0.00    -0.359 OA
HETATM   25  H17         0      47.791 101.004 -23.144  1.00  0.00     0.218 HD
ENDBRANCH   8  24
TORSDOF 5
ENDMDL
MODEL 4
REMARK VINA RESULT:      -1.1      2.540      6.956
REMARK  5 active torsions:
REMARK  status: ('A' for Active; 'I' for Inactive)
REMARK    1  A    between atoms: C4_4  and  C5_5 
REMARK    2  A    between atoms: C8_8  and  O9_9 
REMARK    3  A    between atoms: C10_11  and  O11_12 
REMARK    4  A    between atoms: C16_18  and  O17_19 
REMARK    5  A    between atoms: C19_22  and  O20_23 
ROOT
HETATM    1  O1          0      42.140 100.648 -25.822  1.00  0.00    -0.286 OA
HETATM    2  C2          0      42.892 100.381 -26.799  1.00  0.00     0.201 C 
HETATM    3  C3          0      44.272 100.335 -26.694  1.00  0.00     0.067 C 
HETATM    4  C4          0      45.082 100.140 -27.807  1.00  0.00     0.103 C 
HETATM    5  O13         0      44.510  99.975 -28.987  1.00  0.00    -0.307 OA
HETATM    6  C14         0      43.207 100.047 -29.148  1.00  0.00     0.107 C 
HETATM    7  C15         0      42.635 100.275 -30.392  1.00  0.00     0.049 C 
HETATM    8  C16         0      41.291 100.602 -30.520  1.00  0.00     0.093 C 
HETATM    9  C18         0      40.481 100.174 -29.474  1.00  0.00     0.048 C 
HETATM   10  C19         0      41.027  99.892 -28.229  1.00  0.00     0.096 C 
HETATM   11  C21         0      42.375 100.020 -28.034  1.00  0.00     0.084 C 
ENDROOT
BRANCH  10  12
HETATM   12  O20         0      40.202  99.896 -27.108  1.00  0.00    -0.359 OA
HETATM   13  H20         0      39.608 100.628 -26.995  1.00  0.00     0.218 HD
ENDBRANCH  10  12
BRANCH   4  14
HETATM   14  C5          0      46.439 100.686 -27.752  1.00  0.00     0.025 C 
HETATM   15  C6          0      47.372 100.288 -26.806  1.00  0.00     0.004 C 
HETATM   16  C7          0      48.695 100.162 -27.219  1.00  0.00     0.026 C 
HETATM   17  C8          0      49.102 100.547 -28.492  1.00  0.00     0.112 C 
HETATM   18  C10         0      48.280 101.484 -29.104  1.00  0.00     0.112 C 
HETATM   19  C12         0      46.942 101.531 -28.733  1.00  0.00     0.028 C 
BRANCH  17  20
HETATM   20  O9          0      50.120  99.875 -29.144  1.00  0.00    -0.357 OA
HETATM   21  H9          0      51.022 100.173 -29.162  1.00  0.00     0.218 HD
ENDBRANCH  17  20
BRANCH  18  22
HETATM   22  O11         0      48.738 102.042 -30.289  1.00  0.00    -0.357 OA
HETATM   23  H11         0      48.621 102.979 -30.397  1.00  0.00     0.218 HD
ENDBRANCH  18  22
ENDBRANCH   4  14
BRANCH   8  24
HETATM   24  O17         0      40.858 101.563 -31.440  1.00  0.00    -0.359 OA
HETATM   25  H17         0      39.997 101.959 -31.380  1.00  0.00     0.218 HD
ENDBRANCH   8  24
TORSDOF 5
ENDMDL
MODEL 5
REMARK VINA RESULT:      -1.0      1.998      6.947
REMARK  5 active torsions:
REMARK  status: ('A' for Active; 'I' for Inactive)
REMARK    1  A    between atoms: C4_4  and  C5_5 
REMARK    2  A    between atoms: C8_8  and  O9_9 
REMARK    3  A    between atoms: C10_11  and  O11_12 
REMARK    4  A    between atoms: C16_18  and  O17_19 
REMARK    5  A    between atoms: C19_22  and  O20_23 
ROOT
HETATM    1  O1          0      41.281 101.253 -25.603  1.00  0.00    -0.286 OA
HETATM    2  C2          0      42.393 100.768 -25.952  1.00  0.00     0.201 C 
HETATM    3  C3          0      43.468 100.659 -25.087  1.00  0.00     0.067 C 
HETATM    4  C4          0      44.712 100.217 -25.523  1.00  0.00     0.103 C 
HETATM    5  O13         0      44.855  99.876 -26.791  1.00  0.00    -0.307 OA
HETATM    6  C14         0      43.877  99.995 -27.662  1.00  0.00     0.107 C 
HETATM    7  C15         0      44.116 100.028 -29.028  1.00  0.00     0.049 C 
HETATM    8  C16         0      43.124 100.407 -29.925  1.00  0.00     0.093 C 
HETATM    9  C18         0      41.823 100.226 -29.472  1.00  0.00     0.048 C 
HETATM   10  C19         0      41.554 100.142 -28.112  1.00  0.00     0.096 C 
HETATM   11  C21         0      42.581 100.221 -27.212  1.00  0.00     0.084 C 
ENDROOT
BRANCH  10  12
HETATM   12  O20         0      40.265 100.399 -27.656  1.00  0.00    -0.359 OA
HETATM   13  H20         0      39.642 100.772 -28.268  1.00  0.00     0.218 HD
ENDBRANCH  10  12
BRANCH   4  14
HETATM   14  C5          0      45.886 100.681 -24.781  1.00  0.00     0.025 C 
HETATM   15  C6          0      46.420 101.952 -24.937  1.00  0.00     0.004 C 
HETATM   16  C7          0      46.899 102.594 -23.800  1.00  0.00     0.026 C 
HETATM   17  C8          0      46.968 101.947 -22.571  1.00  0.00     0.112 C 
HETATM   18  C10         0      47.022 100.562 -22.648  1.00  0.00     0.112 C 
HETATM   19  C12         0      46.460  99.939 -23.756  1.00  0.00     0.028 C 
BRANCH  17  20
HETATM   20  O9          0      46.781 102.644 -21.391  1.00  0.00    -0.357 OA
HETATM   21  H9          0      45.929 102.904 -21.061  1.00  0.00     0.218 HD
ENDBRANCH  17  20
BRANCH  18  22
HETATM   22  O11         0      47.281  99.876 -21.469  1.00  0.00    -0.357 OA
HETATM   23  H11         0      47.403  98.936 -21.536  1.00  0.00     0.218 HD
ENDBRANCH  18  22
ENDBRANCH   4  14
BRANCH   8  24
HETATM   24  O17         0      43.411 101.210 -31.034  1.00  0.00    -0.359 OA
HETATM   25  H17         0      42.725 101.638 -31.532  1.00  0.00     0.218 HD
ENDBRANCH   8  24
TORSDOF 5
ENDMDL
MODEL 6
REMARK VINA RESULT:      -1.0      2.543      7.383
REMARK  5 active torsions:
REMARK  status: ('A' for Active; 'I' for Inactive)
REMARK    1  A    between atoms: C4_4  and  C5_5 
REMARK    2  A    between atoms: C8_8  and  O9_9 
REMARK    3  A    between atoms: C10_11  and  O11_12 
REMARK    4  A    between atoms: C16_18  and  O17_19 
REMARK    5  A    between atoms: C19_22  and  O20_23 
ROOT
HETATM    1  O1          0      40.729 101.138 -23.909  1.00  0.00    -0.286 OA
HETATM    2  C2          0      41.911 100.708 -24.004  1.00  0.00     0.201 C 
HETATM    3  C3          0      42.750 100.571 -22.911  1.00  0.00     0.067 C 
HETATM    4  C4          0      44.079 100.193 -23.056  1.00  0.00     0.103 C 
HETATM    5  O13         0      44.539  99.940 -24.269  1.00  0.00    -0.307 OA
HETATM    6  C14         0      43.796 100.091 -25.343  1.00  0.00     0.107 C 
HETATM    7  C15         0      44.355 100.220 -26.606  1.00  0.00     0.049 C 
HETATM    8  C16         0      43.593 100.631 -27.694  1.00  0.00     0.093 C 
HETATM    9  C18         0      42.230 100.385 -27.582  1.00  0.00     0.048 C 
HETATM   10  C19         0      41.646 100.204 -26.336  1.00  0.00     0.096 C 
HETATM   11  C21         0      42.421 100.251 -25.209  1.00  0.00     0.084 C 
ENDROOT
BRANCH  10  12
HETATM   12  O20         0      40.275 100.394 -26.193  1.00  0.00    -0.359 OA
HETATM   13  H20         0      39.698  99.953 -26.805  1.00  0.00     0.218 HD
ENDBRANCH  10  12
BRANCH   4  14
HETATM   14  C5          0      45.019 100.639 -22.025  1.00  0.00     0.025 C 
HETATM   15  C6          0      45.127 100.020 -20.788  1.00  0.00     0.004 C 
HETATM   16  C7          0      46.399  99.893 -20.240  1.00  0.00     0.026 C 
HETATM   17  C8          0      47.511 100.479 -20.835  1.00  0.00     0.112 C 
HETATM   18  C10         0      47.227 101.559 -21.660  1.00  0.00     0.112 C 
HETATM   19  C12         0      45.976 101.617 -22.263  1.00  0.00     0.028 C 
BRANCH  17  20
HETATM   20  O9          0      48.755  99.877 -20.758  1.00  0.00    -0.357 OA
HETATM   21  H9          0      49.510 100.277 -20.341  1.00  0.00     0.218 HD
ENDBRANCH  17  20
BRANCH  18  22
HETATM   22  O11         0      48.306 102.295 -22.126  1.00  0.00    -0.357 OA
HETATM   23  H11         0      48.238 103.241 -22.070  1.00  0.00     0.218 HD
ENDBRANCH  18  22
ENDBRANCH   4  14
BRANCH   8  24
HETATM   24  O17         0      44.105 101.513 -28.652  1.00  0.00    -0.359 OA
HETATM   25  H17         0      43.615 101.742 -29.432  1.00  0.00     0.218 HD
ENDBRANCH   8  24
TORSDOF 5
ENDMDL
MODEL 7
REMARK VINA RESULT:      -1.0      2.267      3.447
REMARK  5 active torsions:
REMARK  status: ('A' for Active; 'I' for Inactive)
REMARK    1  A    between atoms: C4_4  and  C5_5 
REMARK    2  A    between atoms: C8_8  and  O9_9 
REMARK    3  A    between atoms: C10_11  and  O11_12 
REMARK    4  A    between atoms: C16_18  and  O17_19 
REMARK    5  A    between atoms: C19_22  and  O20_23 
ROOT
HETATM    1  O1          0      47.322 101.765 -31.113  1.00  0.00    -0.286 OA
HETATM    2  C2          0      46.861 101.147 -30.114  1.00  0.00     0.201 C 
HETATM    3  C3          0      45.504 101.011 -29.876  1.00  0.00     0.067 C 
HETATM    4  C4          0      45.024 100.415 -28.716  1.00  0.00     0.103 C 
HETATM    5  O13         0      45.892  99.953 -27.833  1.00  0.00    -0.307 OA
HETATM    6  C14         0      47.191 100.090 -27.992  1.00  0.00     0.107 C 
HETATM    7  C15         0      48.073  99.981 -26.927  1.00  0.00     0.049 C 
HETATM    8  C16         0      49.400 100.374 -27.047  1.00  0.00     0.093 C 
HETATM    9  C18         0      49.903 100.359 -28.342  1.00  0.00     0.048 C 
HETATM   10  C19         0      49.045 100.419 -29.432  1.00  0.00     0.096 C 
HETATM   11  C21         0      47.693 100.477 -29.230  1.00  0.00     0.084 C 
ENDROOT
BRANCH  10  12
HETATM   12  O20         0      49.539 100.837 -30.664  1.00  0.00    -0.359 OA
HETATM   13  H20         0      50.404 101.228 -30.687  1.00  0.00     0.218 HD
ENDBRANCH  10  12
BRANCH   4  14
HETATM   14  C5          0      43.698 100.827 -28.250  1.00  0.00     0.025 C 
HETATM   15  C6          0      43.443 102.085 -27.725  1.00  0.00     0.004 C 
HETATM   16  C7          0      42.231 102.685 -28.049  1.00  0.00     0.026 C 
HETATM   17  C8          0      41.247 102.006 -28.760  1.00  0.00     0.112 C 
HETATM   18  C10         0      41.326 100.622 -28.680  1.00  0.00     0.112 C 
HETATM   19  C12         0      42.567 100.044 -28.439  1.00  0.00     0.028 C 
BRANCH  17  20
HETATM   20  O9          0      40.411 102.678 -29.633  1.00  0.00    -0.357 OA
HETATM   21  H9          0      40.403 103.623 -29.735  1.00  0.00     0.218 HD
ENDBRANCH  17  20
BRANCH  18  22
HETATM   22  O11         0      40.266  99.900 -29.211  1.00  0.00    -0.357 OA
HETATM   23  H11         0      40.289  99.727 -30.145  1.00  0.00     0.218 HD
ENDBRANCH  18  22
ENDBRANCH   4  14
BRANCH   8  24
HETATM   24  O17         0      50.058 101.046 -26.010  1.00  0.00    -0.359 OA
HETATM   25  H17         0      50.375 100.589 -25.241  1.00  0.00     0.218 HD
ENDBRANCH   8  24
TORSDOF 5
ENDMDL
MODEL 8
REMARK VINA RESULT:      -1.0      3.144      5.039
REMARK  5 active torsions:
REMARK  status: ('A' for Active; 'I' for Inactive)
REMARK    1  A    between atoms: C4_4  and  C5_5 
REMARK    2  A    between atoms: C8_8  and  O9_9 
REMARK    3  A    between atoms: C10_11  and  O11_12 
REMARK    4  A    between atoms: C16_18  and  O17_19 
REMARK    5  A    between atoms: C19_22  and  O20_23 
ROOT
HETATM    1  O1          0      45.162 102.046 -31.910  1.00  0.00    -0.286 OA
HETATM    2  C2          0      45.267 101.333 -30.875  1.00  0.00     0.201 C 
HETATM    3  C3          0      44.227 101.154 -29.978  1.00  0.00     0.067 C 
HETATM    4  C4          0      44.400 100.447 -28.794  1.00  0.00     0.103 C 
HETATM    5  O13         0      45.584  99.920 -28.536  1.00  0.00    -0.307 OA
HETATM    6  C14         0      46.614 100.091 -29.335  1.00  0.00     0.107 C 
HETATM    7  C15         0      47.917  99.899 -28.899  1.00  0.00     0.049 C 
HETATM    8  C16         0      49.002 100.322 -29.658  1.00  0.00     0.093 C 
HETATM    9  C18         0      48.757 100.433 -31.021  1.00  0.00     0.048 C 
HETATM   10  C19         0      47.460 100.579 -31.495  1.00  0.00     0.096 C 
HETATM   11  C21         0      46.413 100.598 -30.615  1.00  0.00     0.084 C 
ENDROOT
BRANCH  10  12
HETATM   12  O20         0      47.256 101.116 -32.763  1.00  0.00    -0.359 OA
HETATM   13  H20         0      47.334 102.056 -32.866  1.00  0.00     0.218 HD
ENDBRANCH  10  12
BRANCH   4  14
HETATM   14  C5          0      43.524 100.794 -27.673  1.00  0.00     0.025 C 
HETATM   15  C6          0      42.482  99.981 -27.253  1.00  0.00     0.004 C 
HETATM   16  C7          0      42.250  99.885 -25.885  1.00  0.00     0.026 C 
HETATM   17  C8          0      42.941 100.674 -24.971  1.00  0.00     0.112 C 
HETATM   18  C10         0      43.461 101.849 -25.496  1.00  0.00     0.112 C 
HETATM   19  C12         0      43.764 101.889 -26.852  1.00  0.00     0.028 C 
BRANCH  17  20
HETATM   20  O9          0      43.246 100.194 -23.709  1.00  0.00    -0.357 OA
HETATM   21  H9          0      42.598 100.034 -23.034  1.00  0.00     0.218 HD
ENDBRANCH  17  20
BRANCH  18  22
HETATM   22  O11         0      43.993 102.759 -24.594  1.00  0.00    -0.357 OA
HETATM   23  H11         0      43.672 103.652 -24.644  1.00  0.00     0.218 HD
ENDBRANCH  18  22
ENDBRANCH   4  14
BRANCH   8  24
HETATM   24  O17         0      50.125 100.907 -29.062  1.00  0.00    -0.359 OA
HETATM   25  H17         0      50.187 101.022 -28.121  1.00  0.00     0.218 HD
ENDBRANCH   8  24
TORSDOF 5
ENDMDL
MODEL 9
REMARK VINA RESULT:      -1.0      2.861      5.602
REMARK  5 active torsions:
REMARK  status: ('A' for Active; 'I' for Inactive)
REMARK    1  A    between atoms: C4_4  and  C5_5 
REMARK    2  A    between atoms: C8_8  and  O9_9 
REMARK    3  A    between atoms: C10_11  and  O11_12 
REMARK    4  A    between atoms: C16_18  and  O17_19 
REMARK    5  A    between atoms: C19_22  and  O20_23 
ROOT
HETATM    1  O1          0      43.689 104.107 -25.491  1.00  0.00    -0.286 OA
HETATM    2  C2          0      43.890 102.865 -25.398  1.00  0.00     0.201 C 
HETATM    3  C3          0      44.962 102.230 -26.004  1.00  0.00     0.067 C 
HETATM    4  C4          0      45.103 100.848 -25.971  1.00  0.00     0.103 C 
HETATM    5  O13         0      44.198 100.132 -25.326  1.00  0.00    -0.307 OA
HETATM    6  C14         0      43.142 100.681 -24.766  1.00  0.00     0.107 C 
HETATM    7  C15         0      42.014  99.938 -24.450  1.00  0.00     0.049 C 
HETATM    8  C16         0      40.819 100.555 -24.100  1.00  0.00     0.093 C 
HETATM    9  C18         0      40.951 101.836 -23.578  1.00  0.00     0.048 C 
HETATM   10  C19         0      42.088 102.590 -23.836  1.00  0.00     0.096 C 
HETATM   11  C21         0      43.095 102.060 -24.596  1.00  0.00     0.084 C 
ENDROOT
BRANCH  10  12
HETATM   12  O20         0      42.033 103.973 -23.697  1.00  0.00    -0.359 OA
HETATM   13  H20         0      42.263 104.345 -22.855  1.00  0.00     0.218 HD
ENDBRANCH  10  12
BRANCH   4  14
HETATM   14  C5          0      45.843 100.224 -27.070  1.00  0.00     0.025 C 
HETATM   15  C6          0      45.312 100.071 -28.342  1.00  0.00     0.004 C 
HETATM   16  C7          0      46.167 100.259 -29.424  1.00  0.00     0.026 C 
HETATM   17  C8          0      47.532 100.458 -29.248  1.00  0.00     0.112 C 
HETATM   18  C10         0      48.040  99.972 -28.051  1.00  0.00     0.112 C 
HETATM   19  C12         0      47.183  99.875 -26.961  1.00  0.00     0.028 C 
BRANCH  17  20
HETATM   20  O9          0      48.248 101.264 -30.116  1.00  0.00    -0.357 OA
HETATM   21  H9          0      48.445 101.028 -31.015  1.00  0.00     0.218 HD
ENDBRANCH  17  20
BRANCH  18  22
HETATM   22  O11         0      49.420  99.974 -27.907  1.00  0.00    -0.357 OA
HETATM   23  H11         0      49.863  99.138 -27.997  1.00  0.00     0.218 HD
ENDBRANCH  18  22
ENDBRANCH   4  14
BRANCH   8  24
HETATM   24  O17         0      39.587 100.067 -24.549  1.00  0.00    -0.359 OA
HETATM   25  H17         0      39.317 100.153 -25.456  1.00  0.00     0.218 HD
ENDBRANCH   8  24
TORSDOF 5
ENDMDL
