MODEL 1
REMARK VINA RESULT:      -1.7      0.000      0.000
REMARK  5 active torsions:
REMARK  status: ('A' for Active; 'I' for Inactive)
REMARK    1  A    between atoms: C4_4  and  C5_5 
REMARK    2  A    between atoms: C8_8  and  O9_9 
REMARK    3  A    between atoms: C10_11  and  O11_12 
REMARK    4  A    between atoms: C16_18  and  O17_19 
REMARK    5  A    between atoms: C19_22  and  O20_23 
ROOT
HETATM    1  O1          0      64.356  92.535 -27.608  1.00  0.00    -0.286 OA
HETATM    2  C2          0      63.176  92.951 -27.449  1.00  0.00     0.201 C 
HETATM    3  C3          0      62.836  94.291 -27.530  1.00  0.00     0.067 C 
HETATM    4  C4          0      61.548  94.733 -27.250  1.00  0.00     0.103 C 
HETATM    5  O13         0      60.629  93.843 -26.919  1.00  0.00    -0.307 OA
HETATM    6  C14         0      60.907  92.564 -26.792  1.00  0.00     0.107 C 
HETATM    7  C15         0      60.086  91.705 -26.077  1.00  0.00     0.049 C 
HETATM    8  C16         0      60.507  90.426 -25.731  1.00  0.00     0.093 C 
HETATM    9  C18         0      61.492  89.890 -26.551  1.00  0.00     0.048 C 
HETATM   10  C19         0      62.301  90.719 -27.316  1.00  0.00     0.096 C 
HETATM   11  C21         0      62.116  92.074 -27.275  1.00  0.00     0.084 C 
ENDROOT
BRANCH  10  12
HETATM   12  O20         0      63.525  90.241 -27.774  1.00  0.00    -0.359 OA
HETATM   13  H20         0      63.566  89.343 -28.080  1.00  0.00     0.218 HD
ENDBRANCH  10  12
BRANCH   4  14
HETATM   14  C5          0      61.402  96.109 -26.770  1.00  0.00     0.025 C 
HETATM   15  C6          0      60.175  96.659 -26.427  1.00  0.00     0.004 C 
HETATM   16  C7          0      60.136  97.510 -25.326  1.00  0.00     0.026 C 
HETATM   17  C8          0      61.296  97.907 -24.670  1.00  0.00     0.112 C 
HETATM   18  C10         0      62.450  97.835 -25.438  1.00  0.00     0.112 C 
HETATM   19  C12         0      62.494  96.915 -26.479  1.00  0.00     0.028 C 
BRANCH  17  20
HETATM   20  O9          0      61.293  98.143 -23.307  1.00  0.00    -0.357 OA
HETATM   21  H9          0      61.378  99.007 -22.920  1.00  0.00     0.218 HD
ENDBRANCH  17  20
BRANCH  18  22
HETATM   22  O11         0      63.600  98.395 -24.898  1.00  0.00    -0.357 OA
HETATM   23  H11         0      64.388  98.351 -25.427  1.00  0.00     0.218 HD
ENDBRANCH  18  22
ENDBRANCH   4  14
BRANCH   8  24
HETATM   24  O17         0      60.212  89.876 -24.478  1.00  0.00    -0.359 OA
HETATM   25  H17         0      59.610  90.298 -23.877  1.00  0.00     0.218 HD
ENDBRANCH   8  24
TORSDOF 5
ENDMDL
MODEL 2
REMARK VINA RESULT:      -1.6      3.166      6.147
REMARK  5 active torsions:
REMARK  status: ('A' for Active; 'I' for Inactive)
REMARK    1  A    between atoms: C4_4  and  C5_5 
REMARK    2  A    between atoms: C8_8  and  O9_9 
REMARK    3  A    between atoms: C10_11  and  O11_12 
REMARK    4  A    between atoms: C16_18  and  O17_19 
REMARK    5  A    between atoms: C19_22  and  O20_23 
ROOT
HETATM    1  O1          0      65.933  94.968 -26.696  1.00  0.00    -0.286 OA
HETATM    2  C2          0      65.295  94.153 -27.417  1.00  0.00     0.201 C 
HETATM    3  C3          0      64.004  93.746 -27.127  1.00  0.00     0.067 C 
HETATM    4  C4          0      63.362  92.769 -27.880  1.00  0.00     0.103 C 
HETATM    5  O13         0      64.001  92.238 -28.908  1.00  0.00    -0.307 OA
HETATM    6  C14         0      65.240  92.561 -29.203  1.00  0.00     0.107 C 
HETATM    7  C15         0      66.038  91.749 -29.997  1.00  0.00     0.049 C 
HETATM    8  C16         0      67.408  91.960 -30.096  1.00  0.00     0.093 C 
HETATM    9  C18         0      67.823  93.259 -29.829  1.00  0.00     0.048 C 
HETATM   10  C19         0      67.028  94.113 -29.078  1.00  0.00     0.096 C 
HETATM   11  C21         0      65.818  93.679 -28.610  1.00  0.00     0.084 C 
ENDROOT
BRANCH  10  12
HETATM   12  O20         0      67.610  95.215 -28.458  1.00  0.00    -0.359 OA
HETATM   13  H20         0      68.477  95.109 -28.086  1.00  0.00     0.218 HD
ENDBRANCH  10  12
BRANCH   4  14
HETATM   14  C5          0      62.325  91.982 -27.211  1.00  0.00     0.025 C 
HETATM   15  C6          0      62.236  90.602 -27.327  1.00  0.00     0.004 C 
HETATM   16  C7          0      61.870  89.883 -26.194  1.00  0.00     0.026 C 
HETATM   17  C8          0      61.476  90.519 -25.021  1.00  0.00     0.112 C 
HETATM   18  C10         0      60.997  91.810 -25.196  1.00  0.00     0.112 C 
HETATM   19  C12         0      61.445  92.538 -26.292  1.00  0.00     0.028 C 
BRANCH  17  20
HETATM   20  O9          0      61.751  89.962 -23.785  1.00  0.00    -0.357 OA
HETATM   21  H9          0      61.901  89.034 -23.646  1.00  0.00     0.218 HD
ENDBRANCH  17  20
BRANCH  18  22
HETATM   22  O11         0      60.416  92.419 -24.092  1.00  0.00    -0.357 OA
HETATM   23  H11         0      60.933  93.078 -23.642  1.00  0.00     0.218 HD
ENDBRANCH  18  22
ENDBRANCH   4  14
BRANCH   8  24
HETATM   24  O17         0      68.310  90.890 -30.125  1.00  0.00    -0.359 OA
HETATM   25  H17         0      68.223  90.181 -30.751  1.00  0.00     0.218 HD
ENDBRANCH   8  24
TORSDOF 5
ENDMDL
MODEL 3
REMARK VINA RESULT:      -1.6      2.167      2.745
REMARK  5 active torsions:
REMARK  status: ('A' for Active; 'I' for Inactive)
REMARK    1  A    between atoms: C4_4  and  C5_5 
REMARK    2  A    between atoms: C8_8  and  O9_9 
REMARK    3  A    between atoms: C10_11  and  O11_12 
REMARK    4  A    between atoms: C16_18  and  O17_19 
REMARK    5  A    between atoms: C19_22  and  O20_23 
ROOT
HETATM    1  O1          0      64.089  91.681 -28.377  1.00  0.00    -0.286 OA
HETATM    2  C2          0      63.243  92.530 -27.982  1.00  0.00     0.201 C 
HETATM    3  C3          0      63.389  93.890 -28.193  1.00  0.00     0.067 C 
HETATM    4  C4          0      62.495  94.811 -27.659  1.00  0.00     0.103 C 
HETATM    5  O13         0      61.473  94.365 -26.950  1.00  0.00    -0.307 OA
HETATM    6  C14         0      61.308  93.087 -26.688  1.00  0.00     0.107 C 
HETATM    7  C15         0      60.503  92.652 -25.646  1.00  0.00     0.049 C 
HETATM    8  C16         0      60.531  91.332 -25.214  1.00  0.00     0.093 C 
HETATM    9  C18         0      60.957  90.412 -26.164  1.00  0.00     0.048 C 
HETATM   10  C19         0      61.726  90.821 -27.246  1.00  0.00     0.096 C 
HETATM   11  C21         0      62.052  92.142 -27.386  1.00  0.00     0.084 C 
ENDROOT
BRANCH  10  12
HETATM   12  O20         0      62.496  89.883 -27.926  1.00  0.00    -0.359 OA
HETATM   13  H20         0      63.424  89.843 -27.731  1.00  0.00     0.218 HD
ENDBRANCH  10  12
BRANCH   4  14
HETATM   14  C5          0      63.000  96.160 -27.396  1.00  0.00     0.025 C 
HETATM   15  C6          0      63.781  96.469 -26.292  1.00  0.00     0.004 C 
HETATM   16  C7          0      64.819  97.378 -26.470  1.00  0.00     0.026 C 
HETATM   17  C8          0      64.993  98.060 -27.670  1.00  0.00     0.112 C 
HETATM   18  C10         0      63.847  98.168 -28.447  1.00  0.00     0.112 C 
HETATM   19  C12         0      62.862  97.197 -28.310  1.00  0.00     0.028 C 
BRANCH  17  20
HETATM   20  O9          0      66.258  98.400 -28.115  1.00  0.00    -0.357 OA
HETATM   21  H9          0      67.052  98.242 -27.618  1.00  0.00     0.218 HD
ENDBRANCH  17  20
BRANCH  18  22
HETATM   22  O11         0      63.917  98.996 -29.558  1.00  0.00    -0.357 OA
HETATM   23  H11         0      63.396  99.791 -29.535  1.00  0.00     0.218 HD
ENDBRANCH  18  22
ENDBRANCH   4  14
BRANCH   8  24
HETATM   24  O17         0      60.467  91.008 -23.854  1.00  0.00    -0.359 OA
HETATM   25  H17         0      60.578  91.666 -23.178  1.00  0.00     0.218 HD
ENDBRANCH   8  24
TORSDOF 5
ENDMDL
MODEL 4
REMARK VINA RESULT:      -1.5      2.159      6.586
REMARK  5 active torsions:
REMARK  status: ('A' for Active; 'I' for Inactive)
REMARK    1  A    between atoms: C4_4  and  C5_5 
REMARK    2  A    between atoms: C8_8  and  O9_9 
REMARK    3  A    between atoms: C10_11  and  O11_12 
REMARK    4  A    between atoms: C16_18  and  O17_19 
REMARK    5  A    between atoms: C19_22  and  O20_23 
ROOT
HETATM    1  O1          0      64.231  96.150 -24.949  1.00  0.00    -0.286 OA
HETATM    2  C2          0      63.446  95.420 -25.614  1.00  0.00     0.201 C 
HETATM    3  C3          0      63.577  94.044 -25.682  1.00  0.00     0.067 C 
HETATM    4  C4          0      62.762  93.274 -26.503  1.00  0.00     0.103 C 
HETATM    5  O13         0      61.829  93.878 -27.218  1.00  0.00    -0.307 OA
HETATM    6  C14         0      61.686  95.185 -27.219  1.00  0.00     0.107 C 
HETATM    7  C15         0      61.008  95.845 -28.234  1.00  0.00     0.049 C 
HETATM    8  C16         0      61.077  97.227 -28.368  1.00  0.00     0.093 C 
HETATM    9  C18         0      61.378  97.915 -27.199  1.00  0.00     0.048 C 
HETATM   10  C19         0      62.014  97.273 -26.145  1.00  0.00     0.096 C 
HETATM   11  C21         0      62.332  95.947 -26.252  1.00  0.00     0.084 C 
ENDROOT
BRANCH  10  12
HETATM   12  O20         0      62.688  98.032 -25.193  1.00  0.00    -0.359 OA
HETATM   13  H20         0      63.117  98.829 -25.481  1.00  0.00     0.218 HD
ENDBRANCH  10  12
BRANCH   4  14
HETATM   14  C5          0      63.306  92.003 -26.985  1.00  0.00     0.025 C 
HETATM   15  C6          0      62.601  91.153 -27.826  1.00  0.00     0.004 C 
HETATM   16  C7          0      63.314  90.496 -28.823  1.00  0.00     0.026 C 
HETATM   17  C8          0      64.700  90.574 -28.901  1.00  0.00     0.112 C 
HETATM   18  C10         0      65.331  90.892 -27.705  1.00  0.00     0.112 C 
HETATM   19  C12         0      64.623  91.623 -26.759  1.00  0.00     0.028 C 
BRANCH  17  20
HETATM   20  O9          0      65.345  90.543 -30.125  1.00  0.00    -0.357 OA
HETATM   21  H9          0      66.248  90.809 -30.253  1.00  0.00     0.218 HD
ENDBRANCH  17  20
BRANCH  18  22
HETATM   22  O11         0      66.715  90.797 -27.680  1.00  0.00    -0.357 OA
HETATM   23  H11         0      67.101  90.026 -28.080  1.00  0.00     0.218 HD
ENDBRANCH  18  22
ENDBRANCH   4  14
BRANCH   8  24
HETATM   24  O17         0      61.174  97.833 -29.625  1.00  0.00    -0.359 OA
HETATM   25  H17         0      60.591  97.601 -30.338  1.00  0.00     0.218 HD
ENDBRANCH   8  24
TORSDOF 5
ENDMDL
MODEL 5
REMARK VINA RESULT:      -1.4      2.024      6.471
REMARK  5 active torsions:
REMARK  status: ('A' for Active; 'I' for Inactive)
REMARK    1  A    between atoms: C4_4  and  C5_5 
REMARK    2  A    between atoms: C8_8  and  O9_9 
REMARK    3  A    between atoms: C10_11  and  O11_12 
REMARK    4  A    between atoms: C16_18  and  O17_19 
REMARK    5  A    between atoms: C19_22  and  O20_23 
ROOT
HETATM    1  O1          0      63.929  95.750 -23.663  1.00  0.00    -0.286 OA
HETATM    2  C2          0      62.861  95.209 -24.060  1.00  0.00     0.201 C 
HETATM    3  C3          0      62.662  93.839 -24.043  1.00  0.00     0.067 C 
HETATM    4  C4          0      61.517  93.263 -24.582  1.00  0.00     0.103 C 
HETATM    5  O13         0      60.593  94.052 -25.102  1.00  0.00    -0.307 OA
HETATM    6  C14         0      60.749  95.356 -25.177  1.00  0.00     0.107 C 
HETATM    7  C15         0      60.004  96.132 -26.053  1.00  0.00     0.049 C 
HETATM    8  C16         0      60.343  97.454 -26.313  1.00  0.00     0.093 C 
HETATM    9  C18         0      61.071  98.081 -25.309  1.00  0.00     0.048 C 
HETATM   10  C19         0      61.791  97.333 -24.387  1.00  0.00     0.096 C 
HETATM   11  C21         0      61.769  95.967 -24.457  1.00  0.00     0.084 C 
ENDROOT
BRANCH  10  12
HETATM   12  O20         0      62.833  97.935 -23.688  1.00  0.00    -0.359 OA
HETATM   13  H20         0      62.803  97.915 -22.740  1.00  0.00     0.218 HD
ENDBRANCH  10  12
BRANCH   4  14
HETATM   14  C5          0      61.627  91.888 -25.072  1.00  0.00     0.025 C 
HETATM   15  C6          0      60.572  91.218 -25.675  1.00  0.00     0.004 C 
HETATM   16  C7          0      60.866  90.386 -26.750  1.00  0.00     0.026 C 
HETATM   17  C8          0      62.178  90.123 -27.131  1.00  0.00     0.112 C 
HETATM   18  C10         0      63.120  90.303 -26.127  1.00  0.00     0.112 C 
HETATM   19  C12         0      62.836  91.205 -25.109  1.00  0.00     0.028 C 
BRANCH  17  20
HETATM   20  O9          0      62.501  89.910 -28.459  1.00  0.00    -0.357 OA
HETATM   21  H9          0      63.304  90.220 -28.863  1.00  0.00     0.218 HD
ENDBRANCH  17  20
BRANCH  18  22
HETATM   22  O11         0      64.413  89.876 -26.395  1.00  0.00    -0.357 OA
HETATM   23  H11         0      64.520  88.970 -26.661  1.00  0.00     0.218 HD
ENDBRANCH  18  22
ENDBRANCH   4  14
BRANCH   8  24
HETATM   24  O17         0      60.255  97.989 -27.603  1.00  0.00    -0.359 OA
HETATM   25  H17         0      61.009  98.029 -28.179  1.00  0.00     0.218 HD
ENDBRANCH   8  24
TORSDOF 5
ENDMDL
MODEL 6
REMARK VINA RESULT:      -1.4      2.834      6.963
REMARK  5 active torsions:
REMARK  status: ('A' for Active; 'I' for Inactive)
REMARK    1  A    between atoms: C4_4  and  C5_5 
REMARK    2  A    between atoms: C8_8  and  O9_9 
REMARK    3  A    between atoms: C10_11  and  O11_12 
REMARK    4  A    between atoms: C16_18  and  O17_19 
REMARK    5  A    between atoms: C19_22  and  O20_23 
ROOT
HETATM    1  O1          0      67.143  94.850 -24.910  1.00  0.00    -0.286 OA
HETATM    2  C2          0      65.999  94.446 -25.256  1.00  0.00     0.201 C 
HETATM    3  C3          0      65.707  93.110 -25.470  1.00  0.00     0.067 C 
HETATM    4  C4          0      64.468  92.702 -25.950  1.00  0.00     0.103 C 
HETATM    5  O13         0      63.545  93.619 -26.185  1.00  0.00    -0.307 OA
HETATM    6  C14         0      63.782  94.903 -26.034  1.00  0.00     0.107 C 
HETATM    7  C15         0      62.992  95.869 -26.641  1.00  0.00     0.049 C 
HETATM    8  C16         0      63.389  97.200 -26.690  1.00  0.00     0.093 C 
HETATM    9  C18         0      64.276  97.585 -25.693  1.00  0.00     0.048 C 
HETATM   10  C19         0      65.049  96.639 -25.032  1.00  0.00     0.096 C 
HETATM   11  C21         0      64.923  95.315 -25.354  1.00  0.00     0.084 C 
ENDROOT
BRANCH  10  12
HETATM   12  O20         0      66.208  97.045 -24.378  1.00  0.00    -0.359 OA
HETATM   13  H20         0      66.896  97.443 -24.897  1.00  0.00     0.218 HD
ENDBRANCH  10  12
BRANCH   4  14
HETATM   14  C5          0      64.420  91.446 -26.701  1.00  0.00     0.025 C 
HETATM   15  C6          0      63.388  90.529 -26.567  1.00  0.00     0.004 C 
HETATM   16  C7          0      62.953  89.875 -27.715  1.00  0.00     0.026 C 
HETATM   17  C8          0      63.609  90.026 -28.933  1.00  0.00     0.112 C 
HETATM   18  C10         0      64.936  90.422 -28.832  1.00  0.00     0.112 C 
HETATM   19  C12         0      65.324  91.148 -27.712  1.00  0.00     0.028 C 
BRANCH  17  20
HETATM   20  O9          0      62.908  89.985 -30.125  1.00  0.00    -0.357 OA
HETATM   21  H9          0      62.458  89.212 -30.447  1.00  0.00     0.218 HD
ENDBRANCH  17  20
BRANCH  18  22
HETATM   22  O11         0      65.687  90.405 -29.998  1.00  0.00    -0.357 OA
HETATM   23  H11         0      66.280  89.672 -30.117  1.00  0.00     0.218 HD
ENDBRANCH  18  22
ENDBRANCH   4  14
BRANCH   8  24
HETATM   24  O17         0      63.182  97.980 -27.833  1.00  0.00    -0.359 OA
HETATM   25  H17         0      62.616  97.692 -28.539  1.00  0.00     0.218 HD
ENDBRANCH   8  24
TORSDOF 5
ENDMDL
MODEL 7
REMARK VINA RESULT:      -1.4      3.555      6.803
REMARK  5 active torsions:
REMARK  status: ('A' for Active; 'I' for Inactive)
REMARK    1  A    between atoms: C4_4  and  C5_5 
REMARK    2  A    between atoms: C8_8  and  O9_9 
REMARK    3  A    between atoms: C10_11  and  O11_12 
REMARK    4  A    between atoms: C16_18  and  O17_19 
REMARK    5  A    between atoms: C19_22  and  O20_23 
ROOT
HETATM    1  O1          0      66.934  96.814 -26.105  1.00  0.00    -0.286 OA
HETATM    2  C2          0      66.314  95.743 -25.857  1.00  0.00     0.201 C 
HETATM    3  C3          0      65.915  94.861 -26.847  1.00  0.00     0.067 C 
HETATM    4  C4          0      65.145  93.741 -26.558  1.00  0.00     0.103 C 
HETATM    5  O13         0      64.807  93.510 -25.301  1.00  0.00    -0.307 OA
HETATM    6  C14         0      65.127  94.335 -24.329  1.00  0.00     0.107 C 
HETATM    7  C15         0      64.460  94.325 -23.112  1.00  0.00     0.049 C 
HETATM    8  C16         0      64.624  95.352 -22.191  1.00  0.00     0.093 C 
HETATM    9  C18         0      65.821  96.051 -22.297  1.00  0.00     0.048 C 
HETATM   10  C19         0      66.538  96.044 -23.486  1.00  0.00     0.096 C 
HETATM   11  C21         0      66.072  95.330 -24.556  1.00  0.00     0.084 C 
ENDROOT
BRANCH  10  12
HETATM   12  O20         0      67.461  97.057 -23.730  1.00  0.00    -0.359 OA
HETATM   13  H20         0      67.959  97.020 -24.537  1.00  0.00     0.218 HD
ENDBRANCH  10  12
BRANCH   4  14
HETATM   14  C5          0      64.285  93.225 -27.625  1.00  0.00     0.025 C 
HETATM   15  C6          0      64.505  93.500 -28.967  1.00  0.00     0.004 C 
HETATM   16  C7          0      64.271  92.478 -29.881  1.00  0.00     0.026 C 
HETATM   17  C8          0      63.709  91.266 -29.492  1.00  0.00     0.112 C 
HETATM   18  C10         0      62.964  91.322 -28.322  1.00  0.00     0.112 C 
HETATM   19  C12         0      63.275  92.301 -27.386  1.00  0.00     0.028 C 
BRANCH  17  20
HETATM   20  O9          0      64.061  90.087 -30.124  1.00  0.00    -0.357 OA
HETATM   21  H9          0      63.448  89.386 -30.312  1.00  0.00     0.218 HD
ENDBRANCH  17  20
BRANCH  18  22
HETATM   22  O11         0      62.229  90.192 -27.991  1.00  0.00    -0.357 OA
HETATM   23  H11         0      62.099  90.020 -27.065  1.00  0.00     0.218 HD
ENDBRANCH  18  22
ENDBRANCH   4  14
BRANCH   8  24
HETATM   24  O17         0      63.544  95.851 -21.455  1.00  0.00    -0.359 OA
HETATM   25  H17         0      63.589  95.961 -20.513  1.00  0.00     0.218 HD
ENDBRANCH   8  24
TORSDOF 5
ENDMDL
MODEL 8
REMARK VINA RESULT:      -1.3      1.928      6.667
REMARK  5 active torsions:
REMARK  status: ('A' for Active; 'I' for Inactive)
REMARK    1  A    between atoms: C4_4  and  C5_5 
REMARK    2  A    between atoms: C8_8  and  O9_9 
REMARK    3  A    between atoms: C10_11  and  O11_12 
REMARK    4  A    between atoms: C16_18  and  O17_19 
REMARK    5  A    between atoms: C19_22  and  O20_23 
ROOT
HETATM    1  O1          0      65.579  97.085 -25.818  1.00  0.00    -0.286 OA
HETATM    2  C2          0      64.545  96.363 -25.774  1.00  0.00     0.201 C 
HETATM    3  C3          0      64.475  95.115 -26.369  1.00  0.00     0.067 C 
HETATM    4  C4          0      63.293  94.385 -26.394  1.00  0.00     0.103 C 
HETATM    5  O13         0      62.220  94.894 -25.815  1.00  0.00    -0.307 OA
HETATM    6  C14         0      62.222  96.090 -25.269  1.00  0.00     0.107 C 
HETATM    7  C15         0      61.045  96.785 -25.027  1.00  0.00     0.049 C 
HETATM    8  C16         0      61.060  98.134 -24.692  1.00  0.00     0.093 C 
HETATM    9  C18         0      62.239  98.581 -24.108  1.00  0.00     0.048 C 
HETATM   10  C19         0      63.425  97.884 -24.291  1.00  0.00     0.096 C 
HETATM   11  C21         0      63.431  96.738 -25.038  1.00  0.00     0.084 C 
ENDROOT
BRANCH  10  12
HETATM   12  O20         0      64.637  98.539 -24.092  1.00  0.00    -0.359 OA
HETATM   13  H20         0      65.145  98.777 -24.858  1.00  0.00     0.218 HD
ENDBRANCH  10  12
BRANCH   4  14
HETATM   14  C5          0      63.116  93.433 -27.493  1.00  0.00     0.025 C 
HETATM   15  C6          0      63.819  93.523 -28.685  1.00  0.00     0.004 C 
HETATM   16  C7          0      64.240  92.336 -29.276  1.00  0.00     0.026 C 
HETATM   17  C8          0      63.862  91.096 -28.772  1.00  0.00     0.112 C 
HETATM   18  C10         0      62.698  91.108 -28.016  1.00  0.00     0.112 C 
HETATM   19  C12         0      62.345  92.285 -27.366  1.00  0.00     0.028 C 
BRANCH  17  20
HETATM   20  O9          0      64.712  90.008 -28.858  1.00  0.00    -0.357 OA
HETATM   21  H9          0      65.656  90.067 -28.769  1.00  0.00     0.218 HD
ENDBRANCH  17  20
BRANCH  18  22
HETATM   22  O11         0      62.174  89.877 -27.649  1.00  0.00    -0.357 OA
HETATM   23  H11         0      61.279  89.868 -27.330  1.00  0.00     0.218 HD
ENDBRANCH  18  22
ENDBRANCH   4  14
BRANCH   8  24
HETATM   24  O17         0      60.110  99.024 -25.207  1.00  0.00    -0.359 OA
HETATM   25  H17         0      60.308  99.596 -25.938  1.00  0.00     0.218 HD
ENDBRANCH   8  24
TORSDOF 5
ENDMDL
MODEL 9
REMARK VINA RESULT:      -1.3      3.665      6.734
REMARK  5 active torsions:
REMARK  status: ('A' for Active; 'I' for Inactive)
REMARK    1  A    between atoms: C4_4  and  C5_5 
REMARK    2  A    between atoms: C8_8  and  O9_9 
REMARK    3  A    between atoms: C10_11  and  O11_12 
REMARK    4  A    between atoms: C16_18  and  O17_19 
REMARK    5  A    between atoms: C19_22  and  O20_23 
ROOT
HETATM    1  O1          0      64.776  95.773 -25.947  1.00  0.00    -0.286 OA
HETATM    2  C2          0      64.860  94.609 -25.467  1.00  0.00     0.201 C 
HETATM    3  C3          0      65.182  93.502 -26.235  1.00  0.00     0.067 C 
HETATM    4  C4          0      65.168  92.218 -25.703  1.00  0.00     0.103 C 
HETATM    5  O13         0      64.858  92.062 -24.428  1.00  0.00    -0.307 OA
HETATM    6  C14         0      64.509  93.074 -23.665  1.00  0.00     0.107 C 
HETATM    7  C15         0      63.812  92.889 -22.479  1.00  0.00     0.049 C 
HETATM    8  C16         0      63.226  93.958 -21.812  1.00  0.00     0.093 C 
HETATM    9  C18         0      63.801  95.197 -22.070  1.00  0.00     0.048 C 
HETATM   10  C19         0      64.545  95.403 -23.224  1.00  0.00     0.096 C 
HETATM   11  C21         0      64.727  94.374 -24.107  1.00  0.00     0.084 C 
ENDROOT
BRANCH  10  12
HETATM   12  O20         0      64.737  96.702 -23.686  1.00  0.00    -0.359 OA
HETATM   13  H20         0      64.506  96.892 -24.587  1.00  0.00     0.218 HD
ENDBRANCH  10  12
BRANCH   4  14
HETATM   14  C5          0      64.918  91.112 -26.630  1.00  0.00     0.025 C 
HETATM   15  C6          0      63.780  90.321 -26.566  1.00  0.00     0.004 C 
HETATM   16  C7          0      63.208  89.917 -27.768  1.00  0.00     0.026 C 
HETATM   17  C8          0      63.819  90.176 -28.990  1.00  0.00     0.112 C 
HETATM   18  C10         0      65.190  90.383 -28.920  1.00  0.00     0.112 C 
HETATM   19  C12         0      65.725  90.868 -27.733  1.00  0.00     0.028 C 
BRANCH  17  20
HETATM   20  O9          0      63.063  90.412 -30.125  1.00  0.00    -0.357 OA
HETATM   21  H9          0      63.413  90.791 -30.923  1.00  0.00     0.218 HD
ENDBRANCH  17  20
BRANCH  18  22
HETATM   22  O11         0      65.877  90.457 -30.124  1.00  0.00    -0.357 OA
HETATM   23  H11         0      66.820  90.347 -30.089  1.00  0.00     0.218 HD
ENDBRANCH  18  22
ENDBRANCH   4  14
BRANCH   8  24
HETATM   24  O17         0      61.968  93.842 -21.211  1.00  0.00    -0.359 OA
HETATM   25  H17         0      61.768  93.139 -20.604  1.00  0.00     0.218 HD
ENDBRANCH   8  24
TORSDOF 5
ENDMDL
