MODEL 1
REMARK VINA RESULT:      -1.6      0.000      0.000
REMARK  5 active torsions:
REMARK  status: ('A' for Active; 'I' for Inactive)
REMARK    1  A    between atoms: C4_4  and  C5_5 
REMARK    2  A    between atoms: C8_8  and  O9_9 
REMARK    3  A    between atoms: C10_11  and  O11_12 
REMARK    4  A    between atoms: C16_18  and  O17_19 
REMARK    5  A    between atoms: C19_22  and  O20_23 
ROOT
HETATM    1  O1          0      56.413  44.811 -20.316  1.00  0.00    -0.286 OA
HETATM    2  C2          0      55.894  45.958 -20.390  1.00  0.00     0.201 C 
HETATM    3  C3          0      54.554  46.194 -20.132  1.00  0.00     0.067 C 
HETATM    4  C4          0      53.986  47.448 -20.320  1.00  0.00     0.103 C 
HETATM    5  O13         0      54.756  48.438 -20.736  1.00  0.00    -0.307 OA
HETATM    6  C14         0      56.025  48.260 -21.030  1.00  0.00     0.107 C 
HETATM    7  C15         0      56.723  49.157 -21.826  1.00  0.00     0.049 C 
HETATM    8  C16         0      57.975  48.841 -22.341  1.00  0.00     0.093 C 
HETATM    9  C18         0      58.682  47.886 -21.621  1.00  0.00     0.048 C 
HETATM   10  C19         0      58.020  47.004 -20.779  1.00  0.00     0.096 C 
HETATM   11  C21         0      56.660  47.085 -20.644  1.00  0.00     0.084 C 
ENDROOT
BRANCH  10  12
HETATM   12  O20         0      58.641  45.812 -20.418  1.00  0.00    -0.359 OA
HETATM   13  H20         0      59.085  45.318 -21.096  1.00  0.00     0.218 HD
ENDBRANCH  10  12
BRANCH   4  14
HETATM   14  C5          0      52.553  47.497 -20.619  1.00  0.00     0.025 C 
HETATM   15  C6          0      51.886  48.677 -20.913  1.00  0.00     0.004 C 
HETATM   16  C7          0      50.899  48.633 -21.893  1.00  0.00     0.026 C 
HETATM   17  C8          0      50.495  47.432 -22.468  1.00  0.00     0.112 C 
HETATM   18  C10         0      50.740  46.307 -21.692  1.00  0.00     0.112 C 
HETATM   19  C12         0      51.787  46.349 -20.779  1.00  0.00     0.028 C 
BRANCH  17  20
HETATM   20  O9          0      50.085  47.381 -23.788  1.00  0.00    -0.357 OA
HETATM   21  H9          0      50.577  46.949 -24.477  1.00  0.00     0.218 HD
ENDBRANCH  17  20
BRANCH  18  22
HETATM   22  O11         0      50.190  45.111 -22.130  1.00  0.00    -0.357 OA
HETATM   23  H11         0      50.244  44.370 -21.537  1.00  0.00     0.218 HD
ENDBRANCH  18  22
ENDBRANCH   4  14
BRANCH   8  24
HETATM   24  O17         0      58.338  49.198 -23.645  1.00  0.00    -0.359 OA
HETATM   25  H17         0      58.751  50.032 -23.837  1.00  0.00     0.218 HD
ENDBRANCH   8  24
TORSDOF 5
ENDMDL
MODEL 2
REMARK VINA RESULT:      -1.5      2.571      5.874
REMARK  5 active torsions:
REMARK  status: ('A' for Active; 'I' for Inactive)
REMARK    1  A    between atoms: C4_4  and  C5_5 
REMARK    2  A    between atoms: C8_8  and  O9_9 
REMARK    3  A    between atoms: C10_11  and  O11_12 
REMARK    4  A    between atoms: C16_18  and  O17_19 
REMARK    5  A    between atoms: C19_22  and  O20_23 
ROOT
HETATM    1  O1          0      55.563  48.395 -20.682  1.00  0.00    -0.286 OA
HETATM    2  C2          0      54.756  47.426 -20.635  1.00  0.00     0.201 C 
HETATM    3  C3          0      55.167  46.114 -20.467  1.00  0.00     0.067 C 
HETATM    4  C4          0      54.267  45.056 -20.522  1.00  0.00     0.103 C 
HETATM    5  O13         0      52.988  45.320 -20.720  1.00  0.00    -0.307 OA
HETATM    6  C14         0      52.550  46.543 -20.923  1.00  0.00     0.107 C 
HETATM    7  C15         0      51.320  46.791 -21.516  1.00  0.00     0.049 C 
HETATM    8  C16         0      50.975  48.062 -21.958  1.00  0.00     0.093 C 
HETATM    9  C18         0      51.639  49.105 -21.323  1.00  0.00     0.048 C 
HETATM   10  C19         0      52.849  48.883 -20.680  1.00  0.00     0.096 C 
HETATM   11  C21         0      53.384  47.624 -20.656  1.00  0.00     0.084 C 
ENDROOT
BRANCH  10  12
HETATM   12  O20         0      53.699  49.958 -20.440  1.00  0.00    -0.359 OA
HETATM   13  H20         0      53.492  50.789 -20.850  1.00  0.00     0.218 HD
ENDBRANCH  10  12
BRANCH   4  14
HETATM   14  C5          0      54.791  43.753 -20.937  1.00  0.00     0.025 C 
HETATM   15  C6          0      54.002  42.784 -21.541  1.00  0.00     0.004 C 
HETATM   16  C7          0      54.575  42.031 -22.561  1.00  0.00     0.026 C 
HETATM   17  C8          0      55.923  42.143 -22.882  1.00  0.00     0.112 C 
HETATM   18  C10         0      56.725  42.627 -21.857  1.00  0.00     0.112 C 
HETATM   19  C12         0      56.145  43.447 -20.896  1.00  0.00     0.028 C 
BRANCH  17  20
HETATM   20  O9          0      56.358  41.981 -24.185  1.00  0.00    -0.357 OA
HETATM   21  H9          0      57.208  41.627 -24.418  1.00  0.00     0.218 HD
ENDBRANCH  17  20
BRANCH  18  22
HETATM   22  O11         0      58.097  42.581 -22.057  1.00  0.00    -0.357 OA
HETATM   23  H11         0      58.493  43.327 -22.492  1.00  0.00     0.218 HD
ENDBRANCH  18  22
ENDBRANCH   4  14
BRANCH   8  24
HETATM   24  O17         0      50.283  48.253 -23.159  1.00  0.00    -0.359 OA
HETATM   25  H17         0      50.473  48.986 -23.733  1.00  0.00     0.218 HD
ENDBRANCH   8  24
TORSDOF 5
ENDMDL
MODEL 3
REMARK VINA RESULT:      -1.5      2.140      6.588
REMARK  5 active torsions:
REMARK  status: ('A' for Active; 'I' for Inactive)
REMARK    1  A    between atoms: C4_4  and  C5_5 
REMARK    2  A    between atoms: C8_8  and  O9_9 
REMARK    3  A    between atoms: C10_11  and  O11_12 
REMARK    4  A    between atoms: C16_18  and  O17_19 
REMARK    5  A    between atoms: C19_22  and  O20_23 
ROOT
HETATM    1  O1          0      54.910  48.466 -24.755  1.00  0.00    -0.286 OA
HETATM    2  C2          0      54.925  48.668 -23.510  1.00  0.00     0.201 C 
HETATM    3  C3          0      56.008  48.346 -22.710  1.00  0.00     0.067 C 
HETATM    4  C4          0      55.959  48.484 -21.327  1.00  0.00     0.103 C 
HETATM    5  O13         0      54.854  48.954 -20.775  1.00  0.00    -0.307 OA
HETATM    6  C14         0      53.785  49.240 -21.485  1.00  0.00     0.107 C 
HETATM    7  C15         0      52.529  49.343 -20.905  1.00  0.00     0.049 C 
HETATM    8  C16         0      51.377  49.391 -21.681  1.00  0.00     0.093 C 
HETATM    9  C18         0      51.562  49.858 -22.977  1.00  0.00     0.048 C 
HETATM   10  C19         0      52.815  49.813 -23.571  1.00  0.00     0.096 C 
HETATM   11  C21         0      53.882  49.320 -22.870  1.00  0.00     0.084 C 
ENDROOT
BRANCH  10  12
HETATM   12  O20         0      52.913  49.860 -24.959  1.00  0.00    -0.359 OA
HETATM   13  H20         0      53.414  50.568 -25.346  1.00  0.00     0.218 HD
ENDBRANCH  10  12
BRANCH   4  14
HETATM   14  C5          0      56.825  47.608 -20.536  1.00  0.00     0.025 C 
HETATM   15  C6          0      56.444  46.336 -20.135  1.00  0.00     0.004 C 
HETATM   16  C7          0      57.414  45.339 -20.147  1.00  0.00     0.026 C 
HETATM   17  C8          0      58.748  45.622 -20.418  1.00  0.00     0.112 C 
HETATM   18  C10         0      59.122  46.938 -20.177  1.00  0.00     0.112 C 
HETATM   19  C12         0      58.148  47.926 -20.255  1.00  0.00     0.028 C 
BRANCH  17  20
HETATM   20  O9          0      59.549  44.704 -21.073  1.00  0.00    -0.357 OA
HETATM   21  H9          0      60.357  44.931 -21.519  1.00  0.00     0.218 HD
ENDBRANCH  17  20
BRANCH  18  22
HETATM   22  O11         0      60.476  47.229 -20.248  1.00  0.00    -0.357 OA
HETATM   23  H11         0      60.920  47.417 -19.429  1.00  0.00     0.218 HD
ENDBRANCH  18  22
ENDBRANCH   4  14
BRANCH   8  24
HETATM   24  O17         0      50.214  48.711 -21.303  1.00  0.00    -0.359 OA
HETATM   25  H17         0      50.219  48.060 -20.611  1.00  0.00     0.218 HD
ENDBRANCH   8  24
TORSDOF 5
ENDMDL
MODEL 4
REMARK VINA RESULT:      -1.4      2.052      6.962
REMARK  5 active torsions:
REMARK  status: ('A' for Active; 'I' for Inactive)
REMARK    1  A    between atoms: C4_4  and  C5_5 
REMARK    2  A    between atoms: C8_8  and  O9_9 
REMARK    3  A    between atoms: C10_11  and  O11_12 
REMARK    4  A    between atoms: C16_18  and  O17_19 
REMARK    5  A    between atoms: C19_22  and  O20_23 
ROOT
HETATM    1  O1          0      54.339  48.957 -24.649  1.00  0.00    -0.286 OA
HETATM    2  C2          0      54.624  49.113 -23.430  1.00  0.00     0.201 C 
HETATM    3  C3          0      55.907  49.389 -22.989  1.00  0.00     0.067 C 
HETATM    4  C4          0      56.213  49.454 -21.634  1.00  0.00     0.103 C 
HETATM    5  O13         0      55.245  49.267 -20.755  1.00  0.00    -0.307 OA
HETATM    6  C14         0      54.018  48.965 -21.119  1.00  0.00     0.107 C 
HETATM    7  C15         0      53.116  48.384 -20.239  1.00  0.00     0.049 C 
HETATM    8  C16         0      51.920  47.837 -20.689  1.00  0.00     0.093 C 
HETATM    9  C18         0      51.451  48.357 -21.889  1.00  0.00     0.048 C 
HETATM   10  C19         0      52.319  48.986 -22.772  1.00  0.00     0.096 C 
HETATM   11  C21         0      53.643  49.110 -22.450  1.00  0.00     0.084 C 
ENDROOT
BRANCH  10  12
HETATM   12  O20         0      51.959  49.104 -24.111  1.00  0.00    -0.359 OA
HETATM   13  H20         0      51.422  49.845 -24.364  1.00  0.00     0.218 HD
ENDBRANCH  10  12
BRANCH   4  14
HETATM   14  C5          0      57.590  49.146 -21.243  1.00  0.00     0.025 C 
HETATM   15  C6          0      57.905  48.180 -20.298  1.00  0.00     0.004 C 
HETATM   16  C7          0      59.032  47.398 -20.528  1.00  0.00     0.026 C 
HETATM   17  C8          0      59.894  47.654 -21.589  1.00  0.00     0.112 C 
HETATM   18  C10         0      59.859  48.959 -22.063  1.00  0.00     0.112 C 
HETATM   19  C12         0      58.689  49.690 -21.896  1.00  0.00     0.028 C 
BRANCH  17  20
HETATM   20  O9          0      60.557  46.622 -22.229  1.00  0.00    -0.357 OA
HETATM   21  H9          0      60.276  45.714 -22.197  1.00  0.00     0.218 HD
ENDBRANCH  17  20
BRANCH  18  22
HETATM   22  O11         0      60.827  49.317 -22.989  1.00  0.00    -0.357 OA
HETATM   23  H11         0      60.565  49.921 -23.674  1.00  0.00     0.218 HD
ENDBRANCH  18  22
ENDBRANCH   4  14
BRANCH   8  24
HETATM   24  O17         0      51.420  46.642 -20.159  1.00  0.00    -0.359 OA
HETATM   25  H17         0      51.963  46.062 -19.638  1.00  0.00     0.218 HD
ENDBRANCH   8  24
TORSDOF 5
ENDMDL
MODEL 5
REMARK VINA RESULT:      -1.3      2.738      5.038
REMARK  5 active torsions:
REMARK  status: ('A' for Active; 'I' for Inactive)
REMARK    1  A    between atoms: C4_4  and  C5_5 
REMARK    2  A    between atoms: C8_8  and  O9_9 
REMARK    3  A    between atoms: C10_11  and  O11_12 
REMARK    4  A    between atoms: C16_18  and  O17_19 
REMARK    5  A    between atoms: C19_22  and  O20_23 
ROOT
HETATM    1  O1          0      55.927  47.937 -21.414  1.00  0.00    -0.286 OA
HETATM    2  C2          0      54.838  47.367 -21.129  1.00  0.00     0.201 C 
HETATM    3  C3          0      54.739  46.005 -20.903  1.00  0.00     0.067 C 
HETATM    4  C4          0      53.511  45.388 -20.693  1.00  0.00     0.103 C 
HETATM    5  O13         0      52.419  46.132 -20.692  1.00  0.00    -0.307 OA
HETATM    6  C14         0      52.453  47.423 -20.939  1.00  0.00     0.107 C 
HETATM    7  C15         0      51.320  48.122 -21.331  1.00  0.00     0.049 C 
HETATM    8  C16         0      51.407  49.414 -21.834  1.00  0.00     0.093 C 
HETATM    9  C18         0      52.532  50.125 -21.433  1.00  0.00     0.048 C 
HETATM   10  C19         0      53.667  49.459 -20.990  1.00  0.00     0.096 C 
HETATM   11  C21         0      53.672  48.092 -20.932  1.00  0.00     0.084 C 
ENDROOT
BRANCH  10  12
HETATM   12  O20         0      54.893  50.115 -21.012  1.00  0.00    -0.359 OA
HETATM   13  H20         0      54.897  51.056 -20.879  1.00  0.00     0.218 HD
ENDBRANCH  10  12
BRANCH   4  14
HETATM   14  C5          0      53.401  43.975 -21.057  1.00  0.00     0.025 C 
HETATM   15  C6          0      54.029  42.963 -20.345  1.00  0.00     0.004 C 
HETATM   16  C7          0      53.336  41.768 -20.176  1.00  0.00     0.026 C 
HETATM   17  C8          0      52.119  41.536 -20.806  1.00  0.00     0.112 C 
HETATM   18  C10         0      51.901  42.297 -21.946  1.00  0.00     0.112 C 
HETATM   19  C12         0      52.540  43.527 -22.051  1.00  0.00     0.028 C 
BRANCH  17  20
HETATM   20  O9          0      51.144  40.763 -20.201  1.00  0.00    -0.357 OA
HETATM   21  H9          0      50.274  41.081 -19.987  1.00  0.00     0.218 HD
ENDBRANCH  17  20
BRANCH  18  22
HETATM   22  O11         0      50.793  41.974 -22.716  1.00  0.00    -0.357 OA
HETATM   23  H11         0      50.687  42.442 -23.536  1.00  0.00     0.218 HD
ENDBRANCH  18  22
ENDBRANCH   4  14
BRANCH   8  24
HETATM   24  O17         0      50.617  49.834 -22.910  1.00  0.00    -0.359 OA
HETATM   25  H17         0      50.296  49.221 -23.561  1.00  0.00     0.218 HD
ENDBRANCH   8  24
TORSDOF 5
ENDMDL
MODEL 6
REMARK VINA RESULT:      -1.2      2.069      2.633
REMARK  5 active torsions:
REMARK  status: ('A' for Active; 'I' for Inactive)
REMARK    1  A    between atoms: C4_4  and  C5_5 
REMARK    2  A    between atoms: C8_8  and  O9_9 
REMARK    3  A    between atoms: C10_11  and  O11_12 
REMARK    4  A    between atoms: C16_18  and  O17_19 
REMARK    5  A    between atoms: C19_22  and  O20_23 
ROOT
HETATM    1  O1          0      56.668  45.913 -24.646  1.00  0.00    -0.286 OA
HETATM    2  C2          0      56.724  46.269 -23.437  1.00  0.00     0.201 C 
HETATM    3  C3          0      55.615  46.289 -22.608  1.00  0.00     0.067 C 
HETATM    4  C4          0      55.684  46.783 -21.311  1.00  0.00     0.103 C 
HETATM    5  O13         0      56.845  47.224 -20.860  1.00  0.00    -0.307 OA
HETATM    6  C14         0      57.919  47.263 -21.618  1.00  0.00     0.107 C 
HETATM    7  C15         0      59.004  48.070 -21.306  1.00  0.00     0.049 C 
HETATM    8  C16         0      60.019  48.303 -22.228  1.00  0.00     0.093 C 
HETATM    9  C18         0      60.166  47.320 -23.199  1.00  0.00     0.048 C 
HETATM   10  C19         0      59.116  46.464 -23.502  1.00  0.00     0.096 C 
HETATM   11  C21         0      57.930  46.579 -22.829  1.00  0.00     0.084 C 
ENDROOT
BRANCH  10  12
HETATM   12  O20         0      59.109  45.803 -24.727  1.00  0.00    -0.359 OA
HETATM   13  H20         0      58.268  45.591 -25.113  1.00  0.00     0.218 HD
ENDBRANCH  10  12
BRANCH   4  14
HETATM   14  C5          0      54.452  47.326 -20.735  1.00  0.00     0.025 C 
HETATM   15  C6          0      54.057  48.644 -20.910  1.00  0.00     0.004 C 
HETATM   16  C7          0      52.700  48.892 -21.088  1.00  0.00     0.026 C 
HETATM   17  C8          0      51.751  47.882 -20.962  1.00  0.00     0.112 C 
HETATM   18  C10         0      52.154  46.802 -20.189  1.00  0.00     0.112 C 
HETATM   19  C12         0      53.513  46.525 -20.097  1.00  0.00     0.028 C 
BRANCH  17  20
HETATM   20  O9          0      50.601  47.891 -21.730  1.00  0.00    -0.357 OA
HETATM   21  H9          0      50.468  48.466 -22.476  1.00  0.00     0.218 HD
ENDBRANCH  17  20
BRANCH  18  22
HETATM   22  O11         0      51.186  45.858 -19.875  1.00  0.00    -0.357 OA
HETATM   23  H11         0      50.843  45.339 -20.593  1.00  0.00     0.218 HD
ENDBRANCH  18  22
ENDBRANCH   4  14
BRANCH   8  24
HETATM   24  O17         0      60.603  49.567 -22.365  1.00  0.00    -0.359 OA
HETATM   25  H17         0      60.289  50.194 -23.006  1.00  0.00     0.218 HD
ENDBRANCH   8  24
TORSDOF 5
ENDMDL
MODEL 7
REMARK VINA RESULT:      -1.2      3.770      4.360
REMARK  5 active torsions:
REMARK  status: ('A' for Active; 'I' for Inactive)
REMARK    1  A    between atoms: C4_4  and  C5_5 
REMARK    2  A    between atoms: C8_8  and  O9_9 
REMARK    3  A    between atoms: C10_11  and  O11_12 
REMARK    4  A    between atoms: C16_18  and  O17_19 
REMARK    5  A    between atoms: C19_22  and  O20_23 
ROOT
HETATM    1  O1          0      53.637  43.415 -25.383  1.00  0.00    -0.286 OA
HETATM    2  C2          0      54.401  43.885 -24.496  1.00  0.00     0.201 C 
HETATM    3  C3          0      54.001  44.074 -23.184  1.00  0.00     0.067 C 
HETATM    4  C4          0      54.829  44.688 -22.252  1.00  0.00     0.103 C 
HETATM    5  O13         0      56.033  45.079 -22.632  1.00  0.00    -0.307 OA
HETATM    6  C14         0      56.448  44.958 -23.874  1.00  0.00     0.107 C 
HETATM    7  C15         0      57.509  45.703 -24.366  1.00  0.00     0.049 C 
HETATM    8  C16         0      57.779  45.763 -25.728  1.00  0.00     0.093 C 
HETATM    9  C18         0      57.317  44.679 -26.465  1.00  0.00     0.048 C 
HETATM   10  C19         0      56.288  43.884 -25.981  1.00  0.00     0.096 C 
HETATM   11  C21         0      55.735  44.158 -24.760  1.00  0.00     0.084 C 
ENDROOT
BRANCH  10  12
HETATM   12  O20         0      55.552  43.106 -26.871  1.00  0.00    -0.359 OA
HETATM   13  H20         0      55.925  42.938 -27.728  1.00  0.00     0.218 HD
ENDBRANCH  10  12
BRANCH   4  14
HETATM   14  C5          0      54.183  45.380 -21.135  1.00  0.00     0.025 C 
HETATM   15  C6          0      54.634  46.596 -20.642  1.00  0.00     0.004 C 
HETATM   16  C7          0      53.678  47.526 -20.246  1.00  0.00     0.026 C 
HETATM   17  C8          0      52.324  47.211 -20.215  1.00  0.00     0.112 C 
HETATM   18  C10         0      52.046  45.855 -20.105  1.00  0.00     0.112 C 
HETATM   19  C12         0      52.983  44.948 -20.586  1.00  0.00     0.028 C 
BRANCH  17  20
HETATM   20  O9          0      51.366  48.172 -20.488  1.00  0.00    -0.357 OA
HETATM   21  H9          0      50.608  48.333 -19.938  1.00  0.00     0.218 HD
ENDBRANCH  17  20
BRANCH  18  22
HETATM   22  O11         0      50.723  45.501 -19.880  1.00  0.00    -0.357 OA
HETATM   23  H11         0      50.096  45.729 -20.556  1.00  0.00     0.218 HD
ENDBRANCH  18  22
ENDBRANCH   4  14
BRANCH   8  24
HETATM   24  O17         0      58.172  46.957 -26.342  1.00  0.00    -0.359 OA
HETATM   25  H17         0      57.985  47.133 -27.257  1.00  0.00     0.218 HD
ENDBRANCH   8  24
TORSDOF 5
ENDMDL
MODEL 8
REMARK VINA RESULT:      -1.2      3.152      5.889
REMARK  5 active torsions:
REMARK  status: ('A' for Active; 'I' for Inactive)
REMARK    1  A    between atoms: C4_4  and  C5_5 
REMARK    2  A    between atoms: C8_8  and  O9_9 
REMARK    3  A    between atoms: C10_11  and  O11_12 
REMARK    4  A    between atoms: C16_18  and  O17_19 
REMARK    5  A    between atoms: C19_22  and  O20_23 
ROOT
HETATM    1  O1          0      53.895  46.196 -24.497  1.00  0.00    -0.286 OA
HETATM    2  C2          0      53.873  46.299 -23.240  1.00  0.00     0.201 C 
HETATM    3  C3          0      54.445  45.359 -22.400  1.00  0.00     0.067 C 
HETATM    4  C4          0      54.318  45.443 -21.018  1.00  0.00     0.103 C 
HETATM    5  O13         0      53.650  46.461 -20.503  1.00  0.00    -0.307 OA
HETATM    6  C14         0      53.057  47.361 -21.256  1.00  0.00     0.107 C 
HETATM    7  C15         0      52.048  48.176 -20.764  1.00  0.00     0.049 C 
HETATM    8  C16         0      51.255  48.937 -21.615  1.00  0.00     0.093 C 
HETATM    9  C18         0      51.839  49.250 -22.836  1.00  0.00     0.048 C 
HETATM   10  C19         0      52.882  48.484 -23.337  1.00  0.00     0.096 C 
HETATM   11  C21         0      53.352  47.421 -22.614  1.00  0.00     0.084 C 
ENDROOT
BRANCH  10  12
HETATM   12  O20         0      53.159  48.519 -24.700  1.00  0.00    -0.359 OA
HETATM   13  H20         0      52.591  49.038 -25.257  1.00  0.00     0.218 HD
ENDBRANCH  10  12
BRANCH   4  14
HETATM   14  C5          0      54.389  44.192 -20.261  1.00  0.00     0.025 C 
HETATM   15  C6          0      53.262  43.481 -19.876  1.00  0.00     0.004 C 
HETATM   16  C7          0      53.329  42.092 -19.927  1.00  0.00     0.026 C 
HETATM   17  C8          0      54.515  41.428 -20.220  1.00  0.00     0.112 C 
HETATM   18  C10         0      55.667  42.159 -19.963  1.00  0.00     0.112 C 
HETATM   19  C12         0      55.592  43.547 -20.002  1.00  0.00     0.028 C 
BRANCH  17  20
HETATM   20  O9          0      54.505  40.228 -20.909  1.00  0.00    -0.357 OA
HETATM   21  H9          0      55.024  40.061 -21.687  1.00  0.00     0.218 HD
ENDBRANCH  17  20
BRANCH  18  22
HETATM   22  O11         0      56.875  41.483 -20.058  1.00  0.00    -0.357 OA
HETATM   23  H11         0      56.907  40.607 -19.691  1.00  0.00     0.218 HD
ENDBRANCH  18  22
ENDBRANCH   4  14
BRANCH   8  24
HETATM   24  O17         0      49.880  49.080 -21.398  1.00  0.00    -0.359 OA
HETATM   25  H17         0      49.494  48.950 -20.540  1.00  0.00     0.218 HD
ENDBRANCH   8  24
TORSDOF 5
ENDMDL
MODEL 9
REMARK VINA RESULT:      -1.1      3.244      4.681
REMARK  5 active torsions:
REMARK  status: ('A' for Active; 'I' for Inactive)
REMARK    1  A    between atoms: C4_4  and  C5_5 
REMARK    2  A    between atoms: C8_8  and  O9_9 
REMARK    3  A    between atoms: C10_11  and  O11_12 
REMARK    4  A    between atoms: C16_18  and  O17_19 
REMARK    5  A    between atoms: C19_22  and  O20_23 
ROOT
HETATM    1  O1          0      54.837  43.736 -24.781  1.00  0.00    -0.286 OA
HETATM    2  C2          0      54.525  43.942 -23.576  1.00  0.00     0.201 C 
HETATM    3  C3          0      53.537  44.835 -23.199  1.00  0.00     0.067 C 
HETATM    4  C4          0      53.284  45.119 -21.862  1.00  0.00     0.103 C 
HETATM    5  O13         0      53.995  44.501 -20.936  1.00  0.00    -0.307 OA
HETATM    6  C14         0      54.969  43.672 -21.240  1.00  0.00     0.107 C 
HETATM    7  C15         0      55.958  43.339 -20.326  1.00  0.00     0.049 C 
HETATM    8  C16         0      57.113  42.675 -20.722  1.00  0.00     0.093 C 
HETATM    9  C18         0      56.989  41.923 -21.884  1.00  0.00     0.048 C 
HETATM   10  C19         0      55.981  42.199 -22.798  1.00  0.00     0.096 C 
HETATM   11  C21         0      55.093  43.209 -22.546  1.00  0.00     0.084 C 
ENDROOT
BRANCH  10  12
HETATM   12  O20         0      56.118  41.764 -24.113  1.00  0.00    -0.359 OA
HETATM   13  H20         0      55.440  41.203 -24.469  1.00  0.00     0.218 HD
ENDBRANCH  10  12
BRANCH   4  14
HETATM   14  C5          0      52.712  46.431 -21.553  1.00  0.00     0.025 C 
HETATM   15  C6          0      52.319  46.798 -20.274  1.00  0.00     0.004 C 
HETATM   16  C7          0      52.562  48.108 -19.875  1.00  0.00     0.026 C 
HETATM   17  C8          0      53.056  49.060 -20.760  1.00  0.00     0.112 C 
HETATM   18  C10         0      52.816  48.786 -22.100  1.00  0.00     0.112 C 
HETATM   19  C12         0      52.661  47.459 -22.485  1.00  0.00     0.028 C 
BRANCH  17  20
HETATM   20  O9          0      53.895  50.069 -20.321  1.00  0.00    -0.357 OA
HETATM   21  H9          0      54.567  50.469 -20.861  1.00  0.00     0.218 HD
ENDBRANCH  17  20
BRANCH  18  22
HETATM   22  O11         0      53.118  49.788 -23.011  1.00  0.00    -0.357 OA
HETATM   23  H11         0      52.761  50.651 -22.834  1.00  0.00     0.218 HD
ENDBRANCH  18  22
ENDBRANCH   4  14
BRANCH   8  24
HETATM   24  O17         0      58.364  43.009 -20.192  1.00  0.00    -0.359 OA
HETATM   25  H17         0      59.121  43.147 -20.749  1.00  0.00     0.218 HD
ENDBRANCH   8  24
TORSDOF 5
ENDMDL
