MODEL 1
REMARK VINA RESULT:      -0.0      0.000      0.000
REMARK  5 active torsions:
REMARK  status: ('A' for Active; 'I' for Inactive)
REMARK    1  A    between atoms: C4_4  and  C5_5 
REMARK    2  A    between atoms: C8_8  and  O9_9 
REMARK    3  A    between atoms: C10_11  and  O11_12 
REMARK    4  A    between atoms: C16_18  and  O17_19 
REMARK    5  A    between atoms: C19_22  and  O20_23 
ROOT
HETATM    1  O1          0      23.231 117.730 -20.994  1.00  0.00    -0.286 OA
HETATM    2  C2          0      22.377 118.597 -20.660  1.00  0.00     0.201 C 
HETATM    3  C3          0      21.098 118.269 -20.245  1.00  0.00     0.067 C 
HETATM    4  C4          0      20.144 119.246 -19.981  1.00  0.00     0.103 C 
HETATM    5  O13         0      20.484 120.516 -20.112  1.00  0.00    -0.307 OA
HETATM    6  C14         0      21.673 120.881 -20.538  1.00  0.00     0.107 C 
HETATM    7  C15         0      21.908 122.148 -21.054  1.00  0.00     0.049 C 
HETATM    8  C16         0      23.084 122.444 -21.731  1.00  0.00     0.093 C 
HETATM    9  C18         0      24.168 121.637 -21.407  1.00  0.00     0.048 C 
HETATM   10  C19         0      23.971 120.383 -20.846  1.00  0.00     0.096 C 
HETATM   11  C21         0      22.699 119.944 -20.595  1.00  0.00     0.084 C 
ENDROOT
BRANCH  10  12
HETATM   12  O20         0      24.984 119.433 -20.930  1.00  0.00    -0.359 OA
HETATM   13  H20         0      25.169 119.053 -21.780  1.00  0.00     0.218 HD
ENDBRANCH  10  12
BRANCH   4  14
HETATM   14  C5          0      18.738 118.871 -20.146  1.00  0.00     0.025 C 
HETATM   15  C6          0      17.746 119.792 -20.450  1.00  0.00     0.004 C 
HETATM   16  C7          0      16.743 119.392 -21.328  1.00  0.00     0.026 C 
HETATM   17  C8          0      16.653 118.081 -21.783  1.00  0.00     0.112 C 
HETATM   18  C10         0      17.260 117.139 -20.963  1.00  0.00     0.112 C 
HETATM   19  C12         0      18.317 117.548 -20.158  1.00  0.00     0.028 C 
BRANCH  17  20
HETATM   20  O9          0      16.179 117.802 -23.053  1.00  0.00    -0.357 OA
HETATM   21  H9          0      16.184 118.429 -23.767  1.00  0.00     0.218 HD
ENDBRANCH  17  20
BRANCH  18  22
HETATM   22  O11         0      17.039 115.804 -21.269  1.00  0.00    -0.357 OA
HETATM   23  H11         0      16.313 115.377 -20.830  1.00  0.00     0.218 HD
ENDBRANCH  18  22
ENDBRANCH   4  14
BRANCH   8  24
HETATM   24  O17         0      23.084 123.251 -22.875  1.00  0.00    -0.359 OA
HETATM   25  H17         0      23.831 123.287 -23.461  1.00  0.00     0.218 HD
ENDBRANCH   8  24
TORSDOF 5
ENDMDL
MODEL 2
REMARK VINA RESULT:      -0.0      5.811      9.337
REMARK  5 active torsions:
REMARK  status: ('A' for Active; 'I' for Inactive)
REMARK    1  A    between atoms: C4_4  and  C5_5 
REMARK    2  A    between atoms: C8_8  and  O9_9 
REMARK    3  A    between atoms: C10_11  and  O11_12 
REMARK    4  A    between atoms: C16_18  and  O17_19 
REMARK    5  A    between atoms: C19_22  and  O20_23 
ROOT
HETATM    1  O1          0      23.222 123.183 -22.599  1.00  0.00    -0.286 OA
HETATM    2  C2          0      24.339 123.105 -22.017  1.00  0.00     0.201 C 
HETATM    3  C3          0      24.746 124.008 -21.050  1.00  0.00     0.067 C 
HETATM    4  C4          0      26.021 123.960 -20.498  1.00  0.00     0.103 C 
HETATM    5  O13         0      26.851 123.013 -20.899  1.00  0.00    -0.307 OA
HETATM    6  C14         0      26.528 122.154 -21.841  1.00  0.00     0.107 C 
HETATM    7  C15         0      27.490 121.438 -22.538  1.00  0.00     0.049 C 
HETATM    8  C16         0      27.170 120.731 -23.692  1.00  0.00     0.093 C 
HETATM    9  C18         0      25.838 120.347 -23.794  1.00  0.00     0.048 C 
HETATM   10  C19         0      24.855 121.012 -23.074  1.00  0.00     0.096 C 
HETATM   11  C21         0      25.201 122.043 -22.244  1.00  0.00     0.084 C 
ENDROOT
BRANCH  10  12
HETATM   12  O20         0      23.531 120.929 -23.494  1.00  0.00    -0.359 OA
HETATM   13  H20         0      23.328 120.344 -24.214  1.00  0.00     0.218 HD
ENDBRANCH  10  12
BRANCH   4  14
HETATM   14  C5          0      26.577 125.214 -19.987  1.00  0.00     0.025 C 
HETATM   15  C6          0      27.941 125.459 -19.919  1.00  0.00     0.004 C 
HETATM   16  C7          0      28.380 126.745 -20.218  1.00  0.00     0.026 C 
HETATM   17  C8          0      27.487 127.786 -20.445  1.00  0.00     0.112 C 
HETATM   18  C10         0      26.231 127.606 -19.881  1.00  0.00     0.112 C 
HETATM   19  C12         0      25.781 126.308 -19.672  1.00  0.00     0.028 C 
BRANCH  17  20
HETATM   20  O9          0      27.790 128.798 -21.339  1.00  0.00    -0.357 OA
HETATM   21  H9          0      27.601 129.716 -21.182  1.00  0.00     0.218 HD
ENDBRANCH  17  20
BRANCH  18  22
HETATM   22  O11         0      25.366 128.690 -19.915  1.00  0.00    -0.357 OA
HETATM   23  H11         0      24.545 128.571 -20.378  1.00  0.00     0.218 HD
ENDBRANCH  18  22
ENDBRANCH   4  14
BRANCH   8  24
HETATM   24  O17         0      28.028 120.712 -24.797  1.00  0.00    -0.359 OA
HETATM   25  H17         0      27.868 120.146 -25.543  1.00  0.00     0.218 HD
ENDBRANCH   8  24
TORSDOF 5
ENDMDL
MODEL 3
REMARK VINA RESULT:      -0.0      6.461      9.695
REMARK  5 active torsions:
REMARK  status: ('A' for Active; 'I' for Inactive)
REMARK    1  A    between atoms: C4_4  and  C5_5 
REMARK    2  A    between atoms: C8_8  and  O9_9 
REMARK    3  A    between atoms: C10_11  and  O11_12 
REMARK    4  A    between atoms: C16_18  and  O17_19 
REMARK    5  A    between atoms: C19_22  and  O20_23 
ROOT
HETATM    1  O1          0      23.309 121.358 -24.615  1.00  0.00    -0.286 OA
HETATM    2  C2          0      24.566 121.463 -24.637  1.00  0.00     0.201 C 
HETATM    3  C3          0      25.250 122.439 -23.934  1.00  0.00     0.067 C 
HETATM    4  C4          0      26.626 122.597 -24.058  1.00  0.00     0.103 C 
HETATM    5  O13         0      27.290 121.776 -24.853  1.00  0.00    -0.307 OA
HETATM    6  C14         0      26.684 120.856 -25.571  1.00  0.00     0.107 C 
HETATM    7  C15         0      27.289 120.277 -26.677  1.00  0.00     0.049 C 
HETATM    8  C16         0      26.562 119.504 -27.575  1.00  0.00     0.093 C 
HETATM    9  C18         0      25.414 118.921 -27.052  1.00  0.00     0.048 C 
HETATM   10  C19         0      24.809 119.447 -25.919  1.00  0.00     0.096 C 
HETATM   11  C21         0      25.358 120.538 -25.301  1.00  0.00     0.084 C 
ENDROOT
BRANCH  10  12
HETATM   12  O20         0      23.473 119.156 -25.663  1.00  0.00    -0.359 OA
HETATM   13  H20         0      22.830 119.410 -26.314  1.00  0.00     0.218 HD
ENDBRANCH  10  12
BRANCH   4  14
HETATM   14  C5          0      27.173 123.932 -23.808  1.00  0.00     0.025 C 
HETATM   15  C6          0      28.352 124.381 -24.384  1.00  0.00     0.004 C 
HETATM   16  C7          0      28.406 125.711 -24.789  1.00  0.00     0.026 C 
HETATM   17  C8          0      27.374 126.600 -24.511  1.00  0.00     0.112 C 
HETATM   18  C10         0      26.579 126.246 -23.429  1.00  0.00     0.112 C 
HETATM   19  C12         0      26.475 124.901 -23.098  1.00  0.00     0.028 C 
BRANCH  17  20
HETATM   20  O9          0      27.065 127.625 -25.388  1.00  0.00    -0.357 OA
HETATM   21  H9          0      26.844 128.507 -25.113  1.00  0.00     0.218 HD
ENDBRANCH  17  20
BRANCH  18  22
HETATM   22  O11         0      25.657 127.187 -22.992  1.00  0.00    -0.357 OA
HETATM   23  H11         0      24.896 126.859 -22.526  1.00  0.00     0.218 HD
ENDBRANCH  18  22
ENDBRANCH   4  14
BRANCH   8  24
HETATM   24  O17         0      26.783 119.587 -28.954  1.00  0.00    -0.359 OA
HETATM   25  H17         0      26.923 120.421 -29.388  1.00  0.00     0.218 HD
ENDBRANCH   8  24
TORSDOF 5
ENDMDL
MODEL 4
REMARK VINA RESULT:       0.0      2.256      6.149
REMARK  5 active torsions:
REMARK  status: ('A' for Active; 'I' for Inactive)
REMARK    1  A    between atoms: C4_4  and  C5_5 
REMARK    2  A    between atoms: C8_8  and  O9_9 
REMARK    3  A    between atoms: C10_11  and  O11_12 
REMARK    4  A    between atoms: C16_18  and  O17_19 
REMARK    5  A    between atoms: C19_22  and  O20_23 
ROOT
HETATM    1  O1          0      16.904 119.058 -21.901  1.00  0.00    -0.286 OA
HETATM    2  C2          0      18.115 119.145 -21.561  1.00  0.00     0.201 C 
HETATM    3  C3          0      18.661 120.295 -21.017  1.00  0.00     0.067 C 
HETATM    4  C4          0      20.021 120.398 -20.746  1.00  0.00     0.103 C 
HETATM    5  O13         0      20.799 119.361 -20.999  1.00  0.00    -0.307 OA
HETATM    6  C14         0      20.339 118.259 -21.550  1.00  0.00     0.107 C 
HETATM    7  C15         0      21.178 117.348 -22.176  1.00  0.00     0.049 C 
HETATM    8  C16         0      20.671 116.327 -22.970  1.00  0.00     0.093 C 
HETATM    9  C18         0      19.365 115.951 -22.680  1.00  0.00     0.048 C 
HETATM   10  C19         0      18.512 116.821 -22.013  1.00  0.00     0.096 C 
HETATM   11  C21         0      18.966 118.051 -21.624  1.00  0.00     0.084 C 
ENDROOT
BRANCH  10  12
HETATM   12  O20         0      17.137 116.633 -22.112  1.00  0.00    -0.359 OA
HETATM   13  H20         0      16.820 115.766 -22.334  1.00  0.00     0.218 HD
ENDBRANCH  10  12
BRANCH   4  14
HETATM   14  C5          0      20.607 121.740 -20.763  1.00  0.00     0.025 C 
HETATM   15  C6          0      21.945 121.972 -21.050  1.00  0.00     0.004 C 
HETATM   16  C7          0      22.255 123.097 -21.808  1.00  0.00     0.026 C 
HETATM   17  C8          0      21.286 124.033 -22.155  1.00  0.00     0.112 C 
HETATM   18  C10         0      20.175 124.054 -21.322  1.00  0.00     0.112 C 
HETATM   19  C12         0      19.838 122.890 -20.642  1.00  0.00     0.028 C 
BRANCH  17  20
HETATM   20  O9          0      21.359 124.716 -23.356  1.00  0.00    -0.357 OA
HETATM   21  H9          0      20.769 124.565 -24.086  1.00  0.00     0.218 HD
ENDBRANCH  17  20
BRANCH  18  22
HETATM   22  O11         0      19.270 125.089 -21.508  1.00  0.00    -0.357 OA
HETATM   23  H11         0      19.181 125.715 -20.798  1.00  0.00     0.218 HD
ENDBRANCH  18  22
ENDBRANCH   4  14
BRANCH   8  24
HETATM   24  O17         0      21.295 115.956 -24.166  1.00  0.00    -0.359 OA
HETATM   25  H17         0      21.054 116.348 -24.997  1.00  0.00     0.218 HD
ENDBRANCH   8  24
TORSDOF 5
ENDMDL
MODEL 5
REMARK VINA RESULT:       0.0      2.709      6.500
REMARK  5 active torsions:
REMARK  status: ('A' for Active; 'I' for Inactive)
REMARK    1  A    between atoms: C4_4  and  C5_5 
REMARK    2  A    between atoms: C8_8  and  O9_9 
REMARK    3  A    between atoms: C10_11  and  O11_12 
REMARK    4  A    between atoms: C16_18  and  O17_19 
REMARK    5  A    between atoms: C19_22  and  O20_23 
ROOT
HETATM    1  O1          0      21.393 119.015 -18.566  1.00  0.00    -0.286 OA
HETATM    2  C2          0      21.153 119.792 -19.531  1.00  0.00     0.201 C 
HETATM    3  C3          0      21.877 120.949 -19.760  1.00  0.00     0.067 C 
HETATM    4  C4          0      21.527 121.840 -20.769  1.00  0.00     0.103 C 
HETATM    5  O13         0      20.488 121.555 -21.534  1.00  0.00    -0.307 OA
HETATM    6  C14         0      19.744 120.489 -21.335  1.00  0.00     0.107 C 
HETATM    7  C15         0      18.459 120.388 -21.848  1.00  0.00     0.049 C 
HETATM    8  C16         0      17.591 119.387 -21.429  1.00  0.00     0.093 C 
HETATM    9  C18         0      18.208 118.247 -20.929  1.00  0.00     0.048 C 
HETATM   10  C19         0      19.510 118.302 -20.451  1.00  0.00     0.096 C 
HETATM   11  C21         0      20.198 119.484 -20.488  1.00  0.00     0.084 C 
ENDROOT
BRANCH  10  12
HETATM   12  O20         0      19.957 117.315 -19.578  1.00  0.00    -0.359 OA
HETATM   13  H20         0      19.877 116.409 -19.851  1.00  0.00     0.218 HD
ENDBRANCH  10  12
BRANCH   4  14
HETATM   14  C5          0      21.903 123.242 -20.584  1.00  0.00     0.025 C 
HETATM   15  C6          0      21.205 124.291 -21.166  1.00  0.00     0.004 C 
HETATM   16  C7          0      21.040 125.451 -20.415  1.00  0.00     0.026 C 
HETATM   17  C8          0      21.662 125.616 -19.182  1.00  0.00     0.112 C 
HETATM   18  C10         0      22.793 124.834 -18.994  1.00  0.00     0.112 C 
HETATM   19  C12         0      22.893 123.637 -19.693  1.00  0.00     0.028 C 
BRANCH  17  20
HETATM   20  O9          0      21.055 126.344 -18.174  1.00  0.00    -0.357 OA
HETATM   21  H9          0      20.479 127.084 -18.331  1.00  0.00     0.218 HD
ENDBRANCH  17  20
BRANCH  18  22
HETATM   22  O11         0      23.557 125.094 -17.865  1.00  0.00    -0.357 OA
HETATM   23  H11         0      24.056 125.903 -17.860  1.00  0.00     0.218 HD
ENDBRANCH  18  22
ENDBRANCH   4  14
BRANCH   8  24
HETATM   24  O17         0      16.232 119.643 -21.214  1.00  0.00    -0.359 OA
HETATM   25  H17         0      15.917 120.014 -20.398  1.00  0.00     0.218 HD
ENDBRANCH   8  24
TORSDOF 5
ENDMDL
MODEL 6
REMARK VINA RESULT:       0.0      5.665      8.251
REMARK  5 active torsions:
REMARK  status: ('A' for Active; 'I' for Inactive)
REMARK    1  A    between atoms: C4_4  and  C5_5 
REMARK    2  A    between atoms: C8_8  and  O9_9 
REMARK    3  A    between atoms: C10_11  and  O11_12 
REMARK    4  A    between atoms: C16_18  and  O17_19 
REMARK    5  A    between atoms: C19_22  and  O20_23 
ROOT
HETATM    1  O1          0      11.965 119.778 -24.805  1.00  0.00    -0.286 OA
HETATM    2  C2          0      12.837 118.913 -24.520  1.00  0.00     0.201 C 
HETATM    3  C3          0      12.517 117.638 -24.083  1.00  0.00     0.067 C 
HETATM    4  C4          0      13.496 116.739 -23.678  1.00  0.00     0.103 C 
HETATM    5  O13         0      14.763 117.112 -23.733  1.00  0.00    -0.307 OA
HETATM    6  C14         0      15.119 118.323 -24.104  1.00  0.00     0.107 C 
HETATM    7  C15         0      16.365 118.846 -23.790  1.00  0.00     0.049 C 
HETATM    8  C16         0      16.643 120.197 -23.956  1.00  0.00     0.093 C 
HETATM    9  C18         0      15.859 120.846 -24.902  1.00  0.00     0.048 C 
HETATM   10  C19         0      14.626 120.325 -25.273  1.00  0.00     0.096 C 
HETATM   11  C21         0      14.188 119.154 -24.716  1.00  0.00     0.084 C 
ENDROOT
BRANCH  10  12
HETATM   12  O20         0      13.682 121.163 -25.858  1.00  0.00    -0.359 OA
HETATM   13  H20         0      13.995 121.922 -26.336  1.00  0.00     0.218 HD
ENDBRANCH  10  12
BRANCH   4  14
HETATM   14  C5          0      13.105 115.715 -22.707  1.00  0.00     0.025 C 
HETATM   15  C6          0      14.004 115.129 -21.828  1.00  0.00     0.004 C 
HETATM   16  C7          0      13.561 114.858 -20.538  1.00  0.00     0.026 C 
HETATM   17  C8          0      12.232 115.038 -20.171  1.00  0.00     0.112 C 
HETATM   18  C10         0      11.329 115.005 -21.225  1.00  0.00     0.112 C 
HETATM   19  C12         0      11.779 115.363 -22.491  1.00  0.00     0.028 C 
BRANCH  17  20
HETATM   20  O9          0      11.898 115.427 -18.885  1.00  0.00    -0.357 OA
HETATM   21  H9          0      12.283 116.175 -18.443  1.00  0.00     0.218 HD
ENDBRANCH  17  20
BRANCH  18  22
HETATM   22  O11         0       9.981 114.989 -20.898  1.00  0.00    -0.357 OA
HETATM   23  H11         0       9.755 114.719 -20.015  1.00  0.00     0.218 HD
ENDBRANCH  18  22
ENDBRANCH   4  14
BRANCH   8  24
HETATM   24  O17         0      17.402 120.906 -23.018  1.00  0.00    -0.359 OA
HETATM   25  H17         0      16.994 121.407 -22.323  1.00  0.00     0.218 HD
ENDBRANCH   8  24
TORSDOF 5
ENDMDL
MODEL 7
REMARK VINA RESULT:       0.0      4.456      6.687
REMARK  5 active torsions:
REMARK  status: ('A' for Active; 'I' for Inactive)
REMARK    1  A    between atoms: C4_4  and  C5_5 
REMARK    2  A    between atoms: C8_8  and  O9_9 
REMARK    3  A    between atoms: C10_11  and  O11_12 
REMARK    4  A    between atoms: C16_18  and  O17_19 
REMARK    5  A    between atoms: C19_22  and  O20_23 
ROOT
HETATM    1  O1          0      16.444 117.671 -21.357  1.00  0.00    -0.286 OA
HETATM    2  C2          0      16.991 117.353 -20.265  1.00  0.00     0.201 C 
HETATM    3  C3          0      16.819 118.082 -19.100  1.00  0.00     0.067 C 
HETATM    4  C4          0      17.514 117.770 -17.937  1.00  0.00     0.103 C 
HETATM    5  O13         0      18.340 116.739 -17.948  1.00  0.00    -0.307 OA
HETATM    6  C14         0      18.567 116.037 -19.036  1.00  0.00     0.107 C 
HETATM    7  C15         0      19.694 115.238 -19.169  1.00  0.00     0.049 C 
HETATM    8  C16         0      20.060 114.705 -20.399  1.00  0.00     0.093 C 
HETATM    9  C18         0      19.020 114.560 -21.309  1.00  0.00     0.048 C 
HETATM   10  C19         0      17.860 115.311 -21.179  1.00  0.00     0.096 C 
HETATM   11  C21         0      17.731 116.188 -20.137  1.00  0.00     0.084 C 
ENDROOT
BRANCH  10  12
HETATM   12  O20         0      17.038 115.490 -22.288  1.00  0.00    -0.359 OA
HETATM   13  H20         0      17.175 116.262 -22.823  1.00  0.00     0.218 HD
ENDBRANCH  10  12
BRANCH   4  14
HETATM   14  C5          0      17.760 118.860 -16.991  1.00  0.00     0.025 C 
HETATM   15  C6          0      18.835 118.867 -16.114  1.00  0.00     0.004 C 
HETATM   16  C7          0      19.468 120.083 -15.880  1.00  0.00     0.026 C 
HETATM   17  C8          0      18.970 121.276 -16.392  1.00  0.00     0.112 C 
HETATM   18  C10         0      17.614 121.257 -16.690  1.00  0.00     0.112 C 
HETATM   19  C12         0      17.024 120.038 -17.005  1.00  0.00     0.028 C 
BRANCH  17  20
HETATM   20  O9          0      19.823 122.301 -16.761  1.00  0.00    -0.357 OA
HETATM   21  H9          0      19.555 123.210 -16.833  1.00  0.00     0.218 HD
ENDBRANCH  17  20
BRANCH  18  22
HETATM   22  O11         0      17.026 122.469 -17.024  1.00  0.00    -0.357 OA
HETATM   23  H11         0      17.585 123.237 -17.004  1.00  0.00     0.218 HD
ENDBRANCH  18  22
ENDBRANCH   4  14
BRANCH   8  24
HETATM   24  O17         0      21.400 114.645 -20.797  1.00  0.00    -0.359 OA
HETATM   25  H17         0      21.649 114.383 -21.676  1.00  0.00     0.218 HD
ENDBRANCH   8  24
TORSDOF 5
ENDMDL
MODEL 8
REMARK VINA RESULT:       0.0      3.927      6.308
REMARK  5 active torsions:
REMARK  status: ('A' for Active; 'I' for Inactive)
REMARK    1  A    between atoms: C4_4  and  C5_5 
REMARK    2  A    between atoms: C8_8  and  O9_9 
REMARK    3  A    between atoms: C10_11  and  O11_12 
REMARK    4  A    between atoms: C16_18  and  O17_19 
REMARK    5  A    between atoms: C19_22  and  O20_23 
ROOT
HETATM    1  O1          0      16.444 117.671 -21.357  1.00  0.00    -0.286 OA
HETATM    2  C2          0      16.808 117.487 -20.163  1.00  0.00     0.201 C 
HETATM    3  C3          0      16.062 117.913 -19.077  1.00  0.00     0.067 C 
HETATM    4  C4          0      16.535 117.790 -17.775  1.00  0.00     0.103 C 
HETATM    5  O13         0      17.716 117.232 -17.579  1.00  0.00    -0.307 OA
HETATM    6  C14         0      18.481 116.845 -18.576  1.00  0.00     0.107 C 
HETATM    7  C15         0      19.844 116.641 -18.416  1.00  0.00     0.049 C 
HETATM    8  C16         0      20.684 116.483 -19.512  1.00  0.00     0.093 C 
HETATM    9  C18         0      20.063 116.016 -20.664  1.00  0.00     0.048 C 
HETATM   10  C19         0      18.693 116.162 -20.837  1.00  0.00     0.096 C 
HETATM   11  C21         0      17.945 116.755 -19.856  1.00  0.00     0.084 C 
ENDROOT
BRANCH  10  12
HETATM   12  O20         0      18.159 116.105 -22.120  1.00  0.00    -0.359 OA
HETATM   13  H20         0      18.050 116.921 -22.594  1.00  0.00     0.218 HD
ENDBRANCH  10  12
BRANCH   4  14
HETATM   14  C5          0      16.034 118.748 -16.787  1.00  0.00     0.025 C 
HETATM   15  C6          0      16.756 119.110 -15.659  1.00  0.00     0.004 C 
HETATM   16  C7          0      16.695 120.440 -15.255  1.00  0.00     0.026 C 
HETATM   17  C8          0      15.841 121.351 -15.869  1.00  0.00     0.112 C 
HETATM   18  C10         0      14.751 120.780 -16.513  1.00  0.00     0.112 C 
HETATM   19  C12         0      14.869 119.478 -16.982  1.00  0.00     0.028 C 
BRANCH  17  20
HETATM   20  O9          0      16.195 122.683 -15.990  1.00  0.00    -0.357 OA
HETATM   21  H9          0      15.569 123.385 -16.122  1.00  0.00     0.218 HD
ENDBRANCH  17  20
BRANCH  18  22
HETATM   22  O11         0      13.772 121.647 -16.977  1.00  0.00    -0.357 OA
HETATM   23  H11         0      13.899 122.572 -16.803  1.00  0.00     0.218 HD
ENDBRANCH  18  22
ENDBRANCH   4  14
BRANCH   8  24
HETATM   24  O17         0      21.956 117.064 -19.545  1.00  0.00    -0.359 OA
HETATM   25  H17         0      22.490 117.051 -20.330  1.00  0.00     0.218 HD
ENDBRANCH   8  24
TORSDOF 5
ENDMDL
MODEL 9
REMARK VINA RESULT:       0.0      3.673      5.965
REMARK  5 active torsions:
REMARK  status: ('A' for Active; 'I' for Inactive)
REMARK    1  A    between atoms: C4_4  and  C5_5 
REMARK    2  A    between atoms: C8_8  and  O9_9 
REMARK    3  A    between atoms: C10_11  and  O11_12 
REMARK    4  A    between atoms: C16_18  and  O17_19 
REMARK    5  A    between atoms: C19_22  and  O20_23 
ROOT
HETATM    1  O1          0      21.449 119.718 -18.677  1.00  0.00    -0.286 OA
HETATM    2  C2          0      21.956 120.185 -19.733  1.00  0.00     0.201 C 
HETATM    3  C3          0      22.474 119.383 -20.736  1.00  0.00     0.067 C 
HETATM    4  C4          0      23.119 119.925 -21.842  1.00  0.00     0.103 C 
HETATM    5  O13         0      23.218 121.239 -21.939  1.00  0.00    -0.307 OA
HETATM    6  C14         0      22.778 122.045 -20.997  1.00  0.00     0.107 C 
HETATM    7  C15         0      23.219 123.355 -20.891  1.00  0.00     0.049 C 
HETATM    8  C16         0      22.952 124.117 -19.759  1.00  0.00     0.093 C 
HETATM    9  C18         0      21.833 123.722 -19.036  1.00  0.00     0.048 C 
HETATM   10  C19         0      21.336 122.431 -19.155  1.00  0.00     0.096 C 
HETATM   11  C21         0      21.943 121.545 -20.003  1.00  0.00     0.084 C 
ENDROOT
BRANCH  10  12
HETATM   12  O20         0      20.527 121.919 -18.145  1.00  0.00    -0.359 OA
HETATM   13  H20         0      20.941 121.660 -17.331  1.00  0.00     0.218 HD
ENDBRANCH  10  12
BRANCH   4  14
HETATM   14  C5          0      24.124 119.092 -22.506  1.00  0.00     0.025 C 
HETATM   15  C6          0      25.188 119.623 -23.220  1.00  0.00     0.004 C 
HETATM   16  C7          0      26.417 118.979 -23.119  1.00  0.00     0.026 C 
HETATM   17  C8          0      26.555 117.773 -22.440  1.00  0.00     0.112 C 
HETATM   18  C10         0      25.385 117.035 -22.325  1.00  0.00     0.112 C 
HETATM   19  C12         0      24.172 117.713 -22.344  1.00  0.00     0.028 C 
BRANCH  17  20
HETATM   20  O9          0      27.725 117.470 -21.766  1.00  0.00    -0.357 OA
HETATM   21  H9          0      28.429 118.092 -21.623  1.00  0.00     0.218 HD
ENDBRANCH  17  20
BRANCH  18  22
HETATM   22  O11         0      25.502 115.745 -21.827  1.00  0.00    -0.357 OA
HETATM   23  H11         0      26.207 115.212 -22.175  1.00  0.00     0.218 HD
ENDBRANCH  18  22
ENDBRANCH   4  14
BRANCH   8  24
HETATM   24  O17         0      23.913 124.978 -19.217  1.00  0.00    -0.359 OA
HETATM   25  H17         0      24.840 124.859 -19.382  1.00  0.00     0.218 HD
ENDBRANCH   8  24
TORSDOF 5
ENDMDL
