MODEL 1
REMARK VINA RESULT:      -6.4      0.000      0.000
REMARK  5 active torsions:
REMARK  status: ('A' for Active; 'I' for Inactive)
REMARK    1  A    between atoms: C4_4  and  C5_5 
REMARK    2  A    between atoms: C8_8  and  O9_9 
REMARK    3  A    between atoms: C10_11  and  O11_12 
REMARK    4  A    between atoms: C16_18  and  O17_19 
REMARK    5  A    between atoms: C19_22  and  O20_23 
ROOT
HETATM    1  O1          0      -0.125  73.687 -13.891  1.00  0.00    -0.286 OA
HETATM    2  C2          0       0.840  74.288 -13.344  1.00  0.00     0.201 C 
HETATM    3  C3          0       1.159  75.606 -13.623  1.00  0.00     0.067 C 
HETATM    4  C4          0       2.288  76.212 -13.084  1.00  0.00     0.103 C 
HETATM    5  O13         0       3.058  75.510 -12.270  1.00  0.00    -0.307 OA
HETATM    6  C14         0       2.821  74.245 -12.002  1.00  0.00     0.107 C 
HETATM    7  C15         0       3.806  73.409 -11.495  1.00  0.00     0.049 C 
HETATM    8  C16         0       3.631  72.031 -11.453  1.00  0.00     0.093 C 
HETATM    9  C18         0       2.307  71.608 -11.426  1.00  0.00     0.048 C 
HETATM   10  C19         0       1.292  72.438 -11.882  1.00  0.00     0.096 C 
HETATM   11  C21         0       1.594  73.689 -12.346  1.00  0.00     0.084 C 
ENDROOT
BRANCH  10  12
HETATM   12  O20         0       0.074  71.879 -12.257  1.00  0.00    -0.359 OA
HETATM   13  H20         0      -0.474  72.370 -12.858  1.00  0.00     0.218 HD
ENDBRANCH  10  12
BRANCH   4  14
HETATM   14  C5          0       2.884  77.313 -13.842  1.00  0.00     0.025 C 
HETATM   15  C6          0       3.935  78.079 -13.358  1.00  0.00     0.004 C 
HETATM   16  C7          0       4.916  78.472 -14.261  1.00  0.00     0.026 C 
HETATM   17  C8          0       4.792  78.229 -15.625  1.00  0.00     0.112 C 
HETATM   18  C10         0       3.487  78.053 -16.066  1.00  0.00     0.112 C 
HETATM   19  C12         0       2.543  77.577 -15.163  1.00  0.00     0.028 C 
BRANCH  17  20
HETATM   20  O9          0       5.906  77.978 -16.405  1.00  0.00    -0.357 OA
HETATM   21  H9          0       6.478  78.658 -16.743  1.00  0.00     0.218 HD
ENDBRANCH  17  20
BRANCH  18  22
HETATM   22  O11         0       3.289  77.997 -17.438  1.00  0.00    -0.357 OA
HETATM   23  H11         0       3.232  77.132 -17.829  1.00  0.00     0.218 HD
ENDBRANCH  18  22
ENDBRANCH   4  14
BRANCH   8  24
HETATM   24  O17         0       4.677  71.153 -11.757  1.00  0.00    -0.359 OA
HETATM   25  H17         0       4.517  70.244 -11.980  1.00  0.00     0.218 HD
ENDBRANCH   8  24
TORSDOF 5
ENDMDL
MODEL 2
REMARK VINA RESULT:      -6.1      9.314     12.314
REMARK  5 active torsions:
REMARK  status: ('A' for Active; 'I' for Inactive)
REMARK    1  A    between atoms: C4_4  and  C5_5 
REMARK    2  A    between atoms: C8_8  and  O9_9 
REMARK    3  A    between atoms: C10_11  and  O11_12 
REMARK    4  A    between atoms: C16_18  and  O17_19 
REMARK    5  A    between atoms: C19_22  and  O20_23 
ROOT
HETATM    1  O1          0       7.209  66.430  -2.950  1.00  0.00    -0.286 OA
HETATM    2  C2          0       6.996  66.729  -4.157  1.00  0.00     0.201 C 
HETATM    3  C3          0       5.776  67.201  -4.609  1.00  0.00     0.067 C 
HETATM    4  C4          0       5.537  67.425  -5.960  1.00  0.00     0.103 C 
HETATM    5  O13         0       6.511  67.197  -6.823  1.00  0.00    -0.307 OA
HETATM    6  C14         0       7.675  66.713  -6.452  1.00  0.00     0.107 C 
HETATM    7  C15         0       8.536  66.106  -7.354  1.00  0.00     0.049 C 
HETATM    8  C16         0       9.637  65.376  -6.922  1.00  0.00     0.093 C 
HETATM    9  C18         0      10.115  65.724  -5.664  1.00  0.00     0.048 C 
HETATM   10  C19         0       9.295  66.375  -4.753  1.00  0.00     0.096 C 
HETATM   11  C21         0       8.010  66.691  -5.102  1.00  0.00     0.084 C 
ENDROOT
BRANCH  10  12
HETATM   12  O20         0       9.610  66.327  -3.399  1.00  0.00    -0.359 OA
HETATM   13  H20         0       8.915  66.494  -2.774  1.00  0.00     0.218 HD
ENDBRANCH  10  12
BRANCH   4  14
HETATM   14  C5          0       4.150  67.327  -6.420  1.00  0.00     0.025 C 
HETATM   15  C6          0       3.067  67.665  -5.621  1.00  0.00     0.004 C 
HETATM   16  C7          0       1.995  68.310  -6.229  1.00  0.00     0.026 C 
HETATM   17  C8          0       1.939  68.493  -7.606  1.00  0.00     0.112 C 
HETATM   18  C10         0       2.705  67.598  -8.341  1.00  0.00     0.112 C 
HETATM   19  C12         0       3.822  67.033  -7.737  1.00  0.00     0.028 C 
BRANCH  17  20
HETATM   20  O9          0       1.333  69.612  -8.148  1.00  0.00    -0.357 OA
HETATM   21  H9          0       1.797  70.415  -8.356  1.00  0.00     0.218 HD
ENDBRANCH  17  20
BRANCH  18  22
HETATM   22  O11         0       2.540  67.614  -9.719  1.00  0.00    -0.357 OA
HETATM   23  H11         0       2.162  68.399 -10.098  1.00  0.00     0.218 HD
ENDBRANCH  18  22
ENDBRANCH   4  14
BRANCH   8  24
HETATM   24  O17         0      10.010  64.180  -7.546  1.00  0.00    -0.359 OA
HETATM   25  H17         0      10.381  64.168  -8.420  1.00  0.00     0.218 HD
ENDBRANCH   8  24
TORSDOF 5
ENDMDL
MODEL 3
REMARK VINA RESULT:      -5.9     12.377     14.106
REMARK  5 active torsions:
REMARK  status: ('A' for Active; 'I' for Inactive)
REMARK    1  A    between atoms: C4_4  and  C5_5 
REMARK    2  A    between atoms: C8_8  and  O9_9 
REMARK    3  A    between atoms: C10_11  and  O11_12 
REMARK    4  A    between atoms: C16_18  and  O17_19 
REMARK    5  A    between atoms: C19_22  and  O20_23 
ROOT
HETATM    1  O1          0       6.969  65.811  -3.233  1.00  0.00    -0.286 OA
HETATM    2  C2          0       7.028  65.677  -4.486  1.00  0.00     0.201 C 
HETATM    3  C3          0       5.916  65.406  -5.265  1.00  0.00     0.067 C 
HETATM    4  C4          0       6.024  65.161  -6.629  1.00  0.00     0.103 C 
HETATM    5  O13         0       7.220  65.211  -7.190  1.00  0.00    -0.307 OA
HETATM    6  C14         0       8.312  65.428  -6.490  1.00  0.00     0.107 C 
HETATM    7  C15         0       9.568  65.092  -6.973  1.00  0.00     0.049 C 
HETATM    8  C16         0      10.682  65.084  -6.143  1.00  0.00     0.093 C 
HETATM    9  C18         0      10.587  65.904  -5.025  1.00  0.00     0.048 C 
HETATM   10  C19         0       9.346  66.297  -4.542  1.00  0.00     0.096 C 
HETATM   11  C21         0       8.208  65.888  -5.182  1.00  0.00     0.084 C 
ENDROOT
BRANCH  10  12
HETATM   12  O20         0       9.235  66.728  -3.224  1.00  0.00    -0.359 OA
HETATM   13  H20         0       9.466  66.117  -2.535  1.00  0.00     0.218 HD
ENDBRANCH  10  12
BRANCH   4  14
HETATM   14  C5          0       4.992  64.324  -7.244  1.00  0.00     0.025 C 
HETATM   15  C6          0       3.720  64.794  -7.539  1.00  0.00     0.004 C 
HETATM   16  C7          0       3.129  64.355  -8.718  1.00  0.00     0.026 C 
HETATM   17  C8          0       3.721  63.378  -9.512  1.00  0.00     0.112 C 
HETATM   18  C10         0       4.612  62.549  -8.843  1.00  0.00     0.112 C 
HETATM   19  C12         0       5.254  63.044  -7.714  1.00  0.00     0.028 C 
BRANCH  17  20
HETATM   20  O9          0       3.575  63.398 -10.888  1.00  0.00    -0.357 OA
HETATM   21  H9          0       2.782  63.678 -11.330  1.00  0.00     0.218 HD
ENDBRANCH  17  20
BRANCH  18  22
HETATM   22  O11         0       5.086  61.446  -9.538  1.00  0.00    -0.357 OA
HETATM   23  H11         0       6.003  61.455  -9.786  1.00  0.00     0.218 HD
ENDBRANCH  18  22
ENDBRANCH   4  14
BRANCH   8  24
HETATM   24  O17         0      11.659  64.087  -6.243  1.00  0.00    -0.359 OA
HETATM   25  H17         0      11.606  63.400  -6.897  1.00  0.00     0.218 HD
ENDBRANCH   8  24
TORSDOF 5
ENDMDL
MODEL 4
REMARK VINA RESULT:      -5.8     12.091     13.893
REMARK  5 active torsions:
REMARK  status: ('A' for Active; 'I' for Inactive)
REMARK    1  A    between atoms: C4_4  and  C5_5 
REMARK    2  A    between atoms: C8_8  and  O9_9 
REMARK    3  A    between atoms: C10_11  and  O11_12 
REMARK    4  A    between atoms: C16_18  and  O17_19 
REMARK    5  A    between atoms: C19_22  and  O20_23 
ROOT
HETATM    1  O1          0       3.915  66.480  -6.983  1.00  0.00    -0.286 OA
HETATM    2  C2          0       4.609  65.427  -7.031  1.00  0.00     0.201 C 
HETATM    3  C3          0       5.849  65.317  -6.424  1.00  0.00     0.067 C 
HETATM    4  C4          0       6.637  64.183  -6.578  1.00  0.00     0.103 C 
HETATM    5  O13         0       6.175  63.183  -7.307  1.00  0.00    -0.307 OA
HETATM    6  C14         0       5.021  63.250  -7.935  1.00  0.00     0.107 C 
HETATM    7  C15         0       4.715  62.408  -8.994  1.00  0.00     0.049 C 
HETATM    8  C16         0       3.617  62.646  -9.812  1.00  0.00     0.093 C 
HETATM    9  C18         0       2.600  63.390  -9.226  1.00  0.00     0.048 C 
HETATM   10  C19         0       2.861  64.207  -8.135  1.00  0.00     0.096 C 
HETATM   11  C21         0       4.128  64.269  -7.621  1.00  0.00     0.084 C 
ENDROOT
BRANCH  10  12
HETATM   12  O20         0       1.986  65.247  -7.838  1.00  0.00    -0.359 OA
HETATM   13  H20         0       2.331  66.131  -7.829  1.00  0.00     0.218 HD
ENDBRANCH  10  12
BRANCH   4  14
HETATM   14  C5          0       8.086  64.352  -6.452  1.00  0.00     0.025 C 
HETATM   15  C6          0       8.786  65.352  -7.110  1.00  0.00     0.004 C 
HETATM   16  C7          0       9.831  65.965  -6.426  1.00  0.00     0.026 C 
HETATM   17  C8          0      10.254  65.510  -5.182  1.00  0.00     0.112 C 
HETATM   18  C10         0       9.947  64.183  -4.914  1.00  0.00     0.112 C 
HETATM   19  C12         0       8.845  63.620  -5.548  1.00  0.00     0.028 C 
BRANCH  17  20
HETATM   20  O9          0      10.745  66.391  -4.234  1.00  0.00    -0.357 OA
HETATM   21  H9          0      10.506  67.309  -4.193  1.00  0.00     0.218 HD
ENDBRANCH  17  20
BRANCH  18  22
HETATM   22  O11         0      10.507  63.625  -3.774  1.00  0.00    -0.357 OA
HETATM   23  H11         0      10.367  62.695  -3.637  1.00  0.00     0.218 HD
ENDBRANCH  18  22
ENDBRANCH   4  14
BRANCH   8  24
HETATM   24  O17         0       3.683  62.451 -11.196  1.00  0.00    -0.359 OA
HETATM   25  H17         0       2.996  61.997 -11.669  1.00  0.00     0.218 HD
ENDBRANCH   8  24
TORSDOF 5
ENDMDL
MODEL 5
REMARK VINA RESULT:      -5.7     11.790     14.041
REMARK  5 active torsions:
REMARK  status: ('A' for Active; 'I' for Inactive)
REMARK    1  A    between atoms: C4_4  and  C5_5 
REMARK    2  A    between atoms: C8_8  and  O9_9 
REMARK    3  A    between atoms: C10_11  and  O11_12 
REMARK    4  A    between atoms: C16_18  and  O17_19 
REMARK    5  A    between atoms: C19_22  and  O20_23 
ROOT
HETATM    1  O1          0       8.869  66.275  -2.688  1.00  0.00    -0.286 OA
HETATM    2  C2          0       8.128  66.630  -3.646  1.00  0.00     0.201 C 
HETATM    3  C3          0       6.863  67.160  -3.459  1.00  0.00     0.067 C 
HETATM    4  C4          0       6.028  67.448  -4.533  1.00  0.00     0.103 C 
HETATM    5  O13         0       6.470  67.226  -5.758  1.00  0.00    -0.307 OA
HETATM    6  C14         0       7.648  66.690  -5.990  1.00  0.00     0.107 C 
HETATM    7  C15         0       7.954  66.094  -7.205  1.00  0.00     0.049 C 
HETATM    8  C16         0       9.093  65.312  -7.359  1.00  0.00     0.093 C 
HETATM    9  C18         0      10.121  65.591  -6.467  1.00  0.00     0.048 C 
HETATM   10  C19         0       9.857  66.229  -5.262  1.00  0.00     0.096 C 
HETATM   11  C21         0       8.576  66.601  -4.958  1.00  0.00     0.084 C 
ENDROOT
BRANCH  10  12
HETATM   12  O20         0      10.769  66.114  -4.218  1.00  0.00    -0.359 OA
HETATM   13  H20         0      11.680  65.957  -4.437  1.00  0.00     0.218 HD
ENDBRANCH  10  12
BRANCH   4  14
HETATM   14  C5          0       4.585  67.414  -4.287  1.00  0.00     0.025 C 
HETATM   15  C6          0       3.649  67.754  -5.253  1.00  0.00     0.004 C 
HETATM   16  C7          0       2.477  67.007  -5.307  1.00  0.00     0.026 C 
HETATM   17  C8          0       2.183  66.041  -4.351  1.00  0.00     0.112 C 
HETATM   18  C10         0       2.827  66.217  -3.133  1.00  0.00     0.112 C 
HETATM   19  C12         0       4.041  66.894  -3.120  1.00  0.00     0.028 C 
BRANCH  17  20
HETATM   20  O9          0       1.474  64.902  -4.688  1.00  0.00    -0.357 OA
HETATM   21  H9          0       1.089  64.754  -5.544  1.00  0.00     0.218 HD
ENDBRANCH  17  20
BRANCH  18  22
HETATM   22  O11         0       2.428  65.397  -2.087  1.00  0.00    -0.357 OA
HETATM   23  H11         0       2.958  65.417  -1.298  1.00  0.00     0.218 HD
ENDBRANCH  18  22
ENDBRANCH   4  14
BRANCH   8  24
HETATM   24  O17         0       9.071  64.133  -8.111  1.00  0.00    -0.359 OA
HETATM   25  H17         0       9.151  64.143  -9.058  1.00  0.00     0.218 HD
ENDBRANCH   8  24
TORSDOF 5
ENDMDL
MODEL 6
REMARK VINA RESULT:      -5.7      2.590      3.609
REMARK  5 active torsions:
REMARK  status: ('A' for Active; 'I' for Inactive)
REMARK    1  A    between atoms: C4_4  and  C5_5 
REMARK    2  A    between atoms: C8_8  and  O9_9 
REMARK    3  A    between atoms: C10_11  and  O11_12 
REMARK    4  A    between atoms: C16_18  and  O17_19 
REMARK    5  A    between atoms: C19_22  and  O20_23 
ROOT
HETATM    1  O1          0       0.311  71.426 -11.455  1.00  0.00    -0.286 OA
HETATM    2  C2          0       1.338  72.031 -11.868  1.00  0.00     0.201 C 
HETATM    3  C3          0       1.426  73.412 -11.917  1.00  0.00     0.067 C 
HETATM    4  C4          0       2.528  74.053 -12.471  1.00  0.00     0.103 C 
HETATM    5  O13         0       3.519  73.318 -12.942  1.00  0.00    -0.307 OA
HETATM    6  C14         0       3.470  72.004 -12.954  1.00  0.00     0.107 C 
HETATM    7  C15         0       4.288  71.249 -13.783  1.00  0.00     0.049 C 
HETATM    8  C16         0       4.061  69.893 -13.981  1.00  0.00     0.093 C 
HETATM    9  C18         0       3.371  69.257 -12.955  1.00  0.00     0.048 C 
HETATM   10  C19         0       2.580  69.988 -12.079  1.00  0.00     0.096 C 
HETATM   11  C21         0       2.492  71.347 -12.215  1.00  0.00     0.084 C 
ENDROOT
BRANCH  10  12
HETATM   12  O20         0       1.580  69.338 -11.362  1.00  0.00    -0.359 OA
HETATM   13  H20         0       1.772  69.074 -10.470  1.00  0.00     0.218 HD
ENDBRANCH  10  12
BRANCH   4  14
HETATM   14  C5          0       2.314  75.389 -13.030  1.00  0.00     0.025 C 
HETATM   15  C6          0       1.223  75.706 -13.826  1.00  0.00     0.004 C 
HETATM   16  C7          0       0.644  76.960 -13.656  1.00  0.00     0.026 C 
HETATM   17  C8          0       1.209  77.918 -12.822  1.00  0.00     0.112 C 
HETATM   18  C10         0       2.569  77.755 -12.590  1.00  0.00     0.112 C 
HETATM   19  C12         0       3.106  76.477 -12.683  1.00  0.00     0.028 C 
BRANCH  17  20
HETATM   20  O9          0       0.414  78.813 -12.129  1.00  0.00    -0.357 OA
HETATM   21  H9          0      -0.150  78.568 -11.405  1.00  0.00     0.218 HD
ENDBRANCH  17  20
BRANCH  18  22
HETATM   22  O11         0       3.220  78.783 -11.923  1.00  0.00    -0.357 OA
HETATM   23  H11         0       2.888  79.016 -11.064  1.00  0.00     0.218 HD
ENDBRANCH  18  22
ENDBRANCH   4  14
BRANCH   8  24
HETATM   24  O17         0       4.210  69.304 -15.242  1.00  0.00    -0.359 OA
HETATM   25  H17         0       3.766  69.648 -16.008  1.00  0.00     0.218 HD
ENDBRANCH   8  24
TORSDOF 5
ENDMDL
MODEL 7
REMARK VINA RESULT:      -5.7     12.818     14.263
REMARK  5 active torsions:
REMARK  status: ('A' for Active; 'I' for Inactive)
REMARK    1  A    between atoms: C4_4  and  C5_5 
REMARK    2  A    between atoms: C8_8  and  O9_9 
REMARK    3  A    between atoms: C10_11  and  O11_12 
REMARK    4  A    between atoms: C16_18  and  O17_19 
REMARK    5  A    between atoms: C19_22  and  O20_23 
ROOT
HETATM    1  O1          0       4.289  65.925  -5.742  1.00  0.00    -0.286 OA
HETATM    2  C2          0       5.497  66.105  -5.427  1.00  0.00     0.201 C 
HETATM    3  C3          0       6.551  65.671  -6.214  1.00  0.00     0.067 C 
HETATM    4  C4          0       7.871  65.792  -5.795  1.00  0.00     0.103 C 
HETATM    5  O13         0       8.117  66.354  -4.625  1.00  0.00    -0.307 OA
HETATM    6  C14         0       7.152  66.749  -3.823  1.00  0.00     0.107 C 
HETATM    7  C15         0       7.368  66.959  -2.468  1.00  0.00     0.049 C 
HETATM    8  C16         0       6.308  67.126  -1.586  1.00  0.00     0.093 C 
HETATM    9  C18         0       5.133  67.594  -2.162  1.00  0.00     0.048 C 
HETATM   10  C19         0       4.905  67.442  -3.523  1.00  0.00     0.096 C 
HETATM   11  C21         0       5.852  66.841  -4.307  1.00  0.00     0.084 C 
ENDROOT
BRANCH  10  12
HETATM   12  O20         0       3.601  67.502  -4.005  1.00  0.00    -0.359 OA
HETATM   13  H20         0       3.476  67.556  -4.945  1.00  0.00     0.218 HD
ENDBRANCH  10  12
BRANCH   4  14
HETATM   14  C5          0       8.834  64.827  -6.330  1.00  0.00     0.025 C 
HETATM   15  C6          0       8.787  64.364  -7.637  1.00  0.00     0.004 C 
HETATM   16  C7          0       9.997  64.171  -8.295  1.00  0.00     0.026 C 
HETATM   17  C8          0      11.215  64.303  -7.638  1.00  0.00     0.112 C 
HETATM   18  C10         0      11.152  64.137  -6.261  1.00  0.00     0.112 C 
HETATM   19  C12         0       9.953  64.419  -5.616  1.00  0.00     0.028 C 
BRANCH  17  20
HETATM   20  O9          0      12.333  64.773  -8.304  1.00  0.00    -0.357 OA
HETATM   21  H9          0      12.734  64.328  -9.041  1.00  0.00     0.218 HD
ENDBRANCH  17  20
BRANCH  18  22
HETATM   22  O11         0      12.359  64.071  -5.579  1.00  0.00    -0.357 OA
HETATM   23  H11         0      12.937  63.349  -5.797  1.00  0.00     0.218 HD
ENDBRANCH  18  22
ENDBRANCH   4  14
BRANCH   8  24
HETATM   24  O17         0       6.323  66.551  -0.310  1.00  0.00    -0.359 OA
HETATM   25  H17         0       6.615  65.658  -0.169  1.00  0.00     0.218 HD
ENDBRANCH   8  24
TORSDOF 5
ENDMDL
MODEL 8
REMARK VINA RESULT:      -5.4      8.269     11.457
REMARK  5 active torsions:
REMARK  status: ('A' for Active; 'I' for Inactive)
REMARK    1  A    between atoms: C4_4  and  C5_5 
REMARK    2  A    between atoms: C8_8  and  O9_9 
REMARK    3  A    between atoms: C10_11  and  O11_12 
REMARK    4  A    between atoms: C16_18  and  O17_19 
REMARK    5  A    between atoms: C19_22  and  O20_23 
ROOT
HETATM    1  O1          0       5.101  62.689  -7.806  1.00  0.00    -0.286 OA
HETATM    2  C2          0       4.672  63.859  -7.607  1.00  0.00     0.201 C 
HETATM    3  C3          0       3.513  64.342  -8.191  1.00  0.00     0.067 C 
HETATM    4  C4          0       3.118  65.666  -8.038  1.00  0.00     0.103 C 
HETATM    5  O13         0       3.862  66.469  -7.299  1.00  0.00    -0.307 OA
HETATM    6  C14         0       4.990  66.072  -6.753  1.00  0.00     0.107 C 
HETATM    7  C15         0       5.956  66.974  -6.330  1.00  0.00     0.049 C 
HETATM    8  C16         0       7.238  66.555  -5.995  1.00  0.00     0.093 C 
HETATM    9  C18         0       7.336  65.227  -5.597  1.00  0.00     0.048 C 
HETATM   10  C19         0       6.363  64.307  -5.963  1.00  0.00     0.096 C 
HETATM   11  C21         0       5.290  64.714  -6.708  1.00  0.00     0.084 C 
ENDROOT
BRANCH  10  12
HETATM   12  O20         0       6.670  62.950  -5.949  1.00  0.00    -0.359 OA
HETATM   13  H20         0       7.515  62.681  -6.287  1.00  0.00     0.218 HD
ENDBRANCH  10  12
BRANCH   4  14
HETATM   14  C5          0       2.296  66.246  -9.102  1.00  0.00     0.025 C 
HETATM   15  C6          0       1.985  67.597  -9.159  1.00  0.00     0.004 C 
HETATM   16  C7          0       1.960  68.200 -10.413  1.00  0.00     0.026 C 
HETATM   17  C8          0       2.106  67.460 -11.581  1.00  0.00     0.112 C 
HETATM   18  C10         0       1.777  66.117 -11.462  1.00  0.00     0.112 C 
HETATM   19  C12         0       1.893  65.517 -10.213  1.00  0.00     0.028 C 
BRANCH  17  20
HETATM   20  O9          0       2.732  68.002 -12.690  1.00  0.00    -0.357 OA
HETATM   21  H9          0       2.941  68.925 -12.779  1.00  0.00     0.218 HD
ENDBRANCH  17  20
BRANCH  18  22
HETATM   22  O11         0       1.723  65.376 -12.634  1.00  0.00    -0.357 OA
HETATM   23  H11         0       1.836  64.436 -12.554  1.00  0.00     0.218 HD
ENDBRANCH  18  22
ENDBRANCH   4  14
BRANCH   8  24
HETATM   24  O17         0       8.366  67.301  -6.353  1.00  0.00    -0.359 OA
HETATM   25  H17         0       8.316  68.008  -6.985  1.00  0.00     0.218 HD
ENDBRANCH   8  24
TORSDOF 5
ENDMDL
MODEL 9
REMARK VINA RESULT:      -5.4      9.033     11.588
REMARK  5 active torsions:
REMARK  status: ('A' for Active; 'I' for Inactive)
REMARK    1  A    between atoms: C4_4  and  C5_5 
REMARK    2  A    between atoms: C8_8  and  O9_9 
REMARK    3  A    between atoms: C10_11  and  O11_12 
REMARK    4  A    between atoms: C16_18  and  O17_19 
REMARK    5  A    between atoms: C19_22  and  O20_23 
ROOT
HETATM    1  O1          0       2.615  68.835  -9.565  1.00  0.00    -0.286 OA
HETATM    2  C2          0       2.631  67.711  -8.995  1.00  0.00     0.201 C 
HETATM    3  C3          0       3.483  67.414  -7.945  1.00  0.00     0.067 C 
HETATM    4  C4          0       3.552  66.136  -7.401  1.00  0.00     0.103 C 
HETATM    5  O13         0       2.767  65.194  -7.893  1.00  0.00    -0.307 OA
HETATM    6  C14         0       1.967  65.413  -8.914  1.00  0.00     0.107 C 
HETATM    7  C15         0       1.456  64.373  -9.678  1.00  0.00     0.049 C 
HETATM    8  C16         0       0.827  64.613 -10.894  1.00  0.00     0.093 C 
HETATM    9  C18         0       0.281  65.883 -11.032  1.00  0.00     0.048 C 
HETATM   10  C19         0       0.737  66.936 -10.250  1.00  0.00     0.096 C 
HETATM   11  C21         0       1.720  66.718  -9.324  1.00  0.00     0.084 C 
ENDROOT
BRANCH  10  12
HETATM   12  O20         0       0.519  68.243 -10.675  1.00  0.00    -0.359 OA
HETATM   13  H20         0       0.252  68.883 -10.027  1.00  0.00     0.218 HD
ENDBRANCH  10  12
BRANCH   4  14
HETATM   14  C5          0       4.814  65.743  -6.771  1.00  0.00     0.025 C 
HETATM   15  C6          0       5.266  64.432  -6.745  1.00  0.00     0.004 C 
HETATM   16  C7          0       6.631  64.217  -6.908  1.00  0.00     0.026 C 
HETATM   17  C8          0       7.534  65.273  -6.960  1.00  0.00     0.112 C 
HETATM   18  C10         0       7.093  66.444  -6.359  1.00  0.00     0.112 C 
HETATM   19  C12         0       5.724  66.673  -6.285  1.00  0.00     0.028 C 
BRANCH  17  20
HETATM   20  O9          0       8.675  65.192  -7.739  1.00  0.00    -0.357 OA
HETATM   21  H9          0       9.463  64.732  -7.475  1.00  0.00     0.218 HD
ENDBRANCH  17  20
BRANCH  18  22
HETATM   22  O11         0       8.021  67.465  -6.215  1.00  0.00    -0.357 OA
HETATM   23  H11         0       8.342  67.870  -7.013  1.00  0.00     0.218 HD
ENDBRANCH  18  22
ENDBRANCH   4  14
BRANCH   8  24
HETATM   24  O17         0       1.028  63.775 -11.996  1.00  0.00    -0.359 OA
HETATM   25  H17         0       0.311  63.298 -12.398  1.00  0.00     0.218 HD
ENDBRANCH   8  24
TORSDOF 5
ENDMDL
