MODEL 1
REMARK VINA RESULT:      -6.3      0.000      0.000
REMARK  5 active torsions:
REMARK  status: ('A' for Active; 'I' for Inactive)
REMARK    1  A    between atoms: C4_4  and  C5_5 
REMARK    2  A    between atoms: C8_8  and  O9_9 
REMARK    3  A    between atoms: C10_11  and  O11_12 
REMARK    4  A    between atoms: C16_18  and  O17_19 
REMARK    5  A    between atoms: C19_22  and  O20_23 
ROOT
HETATM    1  O1          0      62.857   7.831  24.616  1.00  0.00    -0.286 OA
HETATM    2  C2          0      62.145   6.947  24.065  1.00  0.00     0.201 C 
HETATM    3  C3          0      60.764   6.930  24.160  1.00  0.00     0.067 C 
HETATM    4  C4          0      60.010   5.888  23.630  1.00  0.00     0.103 C 
HETATM    5  O13         0      60.636   4.906  23.006  1.00  0.00    -0.307 OA
HETATM    6  C14         0      61.947   4.855  22.920  1.00  0.00     0.107 C 
HETATM    7  C15         0      62.615   3.673  22.637  1.00  0.00     0.049 C 
HETATM    8  C16         0      63.992   3.566  22.798  1.00  0.00     0.093 C 
HETATM    9  C18         0      64.686   4.767  22.725  1.00  0.00     0.048 C 
HETATM   10  C19         0      64.038   5.972  22.956  1.00  0.00     0.096 C 
HETATM   11  C21         0      62.700   5.979  23.242  1.00  0.00     0.084 C 
ENDROOT
BRANCH  10  12
HETATM   12  O20         0      64.786   7.091  23.310  1.00  0.00    -0.359 OA
HETATM   13  H20         0      65.731   7.001  23.347  1.00  0.00     0.218 HD
ENDBRANCH  10  12
BRANCH   4  14
HETATM   14  C5          0      58.714   5.615  24.254  1.00  0.00     0.025 C 
HETATM   15  C6          0      58.590   5.146  25.554  1.00  0.00     0.004 C 
HETATM   16  C7          0      57.539   5.641  26.320  1.00  0.00     0.026 C 
HETATM   17  C8          0      56.566   6.471  25.773  1.00  0.00     0.112 C 
HETATM   18  C10         0      56.417   6.362  24.397  1.00  0.00     0.112 C 
HETATM   19  C12         0      57.510   5.945  23.646  1.00  0.00     0.028 C 
BRANCH  17  20
HETATM   20  O9          0      55.967   7.459  26.534  1.00  0.00    -0.357 OA
HETATM   21  H9          0      56.402   8.266  26.788  1.00  0.00     0.218 HD
ENDBRANCH  17  20
BRANCH  18  22
HETATM   22  O11         0      55.339   7.022  23.827  1.00  0.00    -0.357 OA
HETATM   23  H11         0      55.529   7.623  23.116  1.00  0.00     0.218 HD
ENDBRANCH  18  22
ENDBRANCH   4  14
BRANCH   8  24
HETATM   24  O17         0      64.576   2.408  23.324  1.00  0.00    -0.359 OA
HETATM   25  H17         0      64.051   1.691  23.658  1.00  0.00     0.218 HD
ENDBRANCH   8  24
TORSDOF 5
ENDMDL
MODEL 2
REMARK VINA RESULT:      -6.0      1.559      7.169
REMARK  5 active torsions:
REMARK  status: ('A' for Active; 'I' for Inactive)
REMARK    1  A    between atoms: C4_4  and  C5_5 
REMARK    2  A    between atoms: C8_8  and  O9_9 
REMARK    3  A    between atoms: C10_11  and  O11_12 
REMARK    4  A    between atoms: C16_18  and  O17_19 
REMARK    5  A    between atoms: C19_22  and  O20_23 
ROOT
HETATM    1  O1          0      57.334   6.598  27.325  1.00  0.00    -0.286 OA
HETATM    2  C2          0      57.460   6.355  26.094  1.00  0.00     0.201 C 
HETATM    3  C3          0      58.652   5.929  25.531  1.00  0.00     0.067 C 
HETATM    4  C4          0      58.792   5.768  24.157  1.00  0.00     0.103 C 
HETATM    5  O13         0      57.751   6.011  23.380  1.00  0.00    -0.307 OA
HETATM    6  C14         0      56.609   6.453  23.859  1.00  0.00     0.107 C 
HETATM    7  C15         0      55.670   7.079  23.052  1.00  0.00     0.049 C 
HETATM    8  C16         0      54.592   7.765  23.597  1.00  0.00     0.093 C 
HETATM    9  C18         0      54.218   7.354  24.870  1.00  0.00     0.048 C 
HETATM   10  C19         0      55.117   6.684  25.688  1.00  0.00     0.096 C 
HETATM   11  C21         0      56.377   6.410  25.230  1.00  0.00     0.084 C 
ENDROOT
BRANCH  10  12
HETATM   12  O20         0      54.905   6.667  27.063  1.00  0.00    -0.359 OA
HETATM   13  H20         0      54.043   6.906  27.383  1.00  0.00     0.218 HD
ENDBRANCH  10  12
BRANCH   4  14
HETATM   14  C5          0      60.137   5.916  23.599  1.00  0.00     0.025 C 
HETATM   15  C6          0      60.927   7.033  23.827  1.00  0.00     0.004 C 
HETATM   16  C7          0      62.291   6.832  24.010  1.00  0.00     0.026 C 
HETATM   17  C8          0      62.873   5.580  23.840  1.00  0.00     0.112 C 
HETATM   18  C10         0      62.157   4.714  23.025  1.00  0.00     0.112 C 
HETATM   19  C12         0      60.781   4.886  22.926  1.00  0.00     0.028 C 
BRANCH  17  20
HETATM   20  O9          0      63.960   5.194  24.604  1.00  0.00    -0.357 OA
HETATM   21  H9          0      63.890   4.860  25.490  1.00  0.00     0.218 HD
ENDBRANCH  17  20
BRANCH  18  22
HETATM   22  O11         0      62.780   3.526  22.669  1.00  0.00    -0.357 OA
HETATM   23  H11         0      62.218   2.816  22.381  1.00  0.00     0.218 HD
ENDBRANCH  18  22
ENDBRANCH   4  14
BRANCH   8  24
HETATM   24  O17         0      54.151   8.978  23.055  1.00  0.00    -0.359 OA
HETATM   25  H17         0      53.239   9.121  22.828  1.00  0.00     0.218 HD
ENDBRANCH   8  24
TORSDOF 5
ENDMDL
MODEL 3
REMARK VINA RESULT:      -5.8      2.989      4.452
REMARK  5 active torsions:
REMARK  status: ('A' for Active; 'I' for Inactive)
REMARK    1  A    between atoms: C4_4  and  C5_5 
REMARK    2  A    between atoms: C8_8  and  O9_9 
REMARK    3  A    between atoms: C10_11  and  O11_12 
REMARK    4  A    between atoms: C16_18  and  O17_19 
REMARK    5  A    between atoms: C19_22  and  O20_23 
ROOT
HETATM    1  O1          0      61.223   3.020  22.271  1.00  0.00    -0.286 OA
HETATM    2  C2          0      60.684   4.143  22.472  1.00  0.00     0.201 C 
HETATM    3  C3          0      59.491   4.519  21.879  1.00  0.00     0.067 C 
HETATM    4  C4          0      58.971   5.799  22.037  1.00  0.00     0.103 C 
HETATM    5  O13         0      59.630   6.664  22.788  1.00  0.00    -0.307 OA
HETATM    6  C14         0      60.785   6.370  23.343  1.00  0.00     0.107 C 
HETATM    7  C15         0      61.658   7.356  23.781  1.00  0.00     0.049 C 
HETATM    8  C16         0      62.970   7.057  24.127  1.00  0.00     0.093 C 
HETATM    9  C18         0      63.188   5.741  24.518  1.00  0.00     0.048 C 
HETATM   10  C19         0      62.310   4.736  24.136  1.00  0.00     0.096 C 
HETATM   11  C21         0      61.210   5.046  23.383  1.00  0.00     0.084 C 
ENDROOT
BRANCH  10  12
HETATM   12  O20         0      62.743   3.414  24.145  1.00  0.00    -0.359 OA
HETATM   13  H20         0      62.148   2.753  24.479  1.00  0.00     0.218 HD
ENDBRANCH  10  12
BRANCH   4  14
HETATM   14  C5          0      58.108   6.308  20.969  1.00  0.00     0.025 C 
HETATM   15  C6          0      56.723   6.262  21.035  1.00  0.00     0.004 C 
HETATM   16  C7          0      56.018   7.348  20.527  1.00  0.00     0.026 C 
HETATM   17  C8          0      56.658   8.384  19.854  1.00  0.00     0.112 C 
HETATM   18  C10         0      57.884   8.044  19.298  1.00  0.00     0.112 C 
HETATM   19  C12         0      58.608   7.009  19.879  1.00  0.00     0.028 C 
BRANCH  17  20
HETATM   20  O9          0      56.185   9.682  19.937  1.00  0.00    -0.357 OA
HETATM   21  H9          0      55.336   9.956  19.609  1.00  0.00     0.218 HD
ENDBRANCH  17  20
BRANCH  18  22
HETATM   22  O11         0      58.475   8.978  18.460  1.00  0.00    -0.357 OA
HETATM   23  H11         0      58.751   9.797  18.855  1.00  0.00     0.218 HD
ENDBRANCH  18  22
ENDBRANCH   4  14
BRANCH   8  24
HETATM   24  O17         0      64.027   7.908  23.784  1.00  0.00    -0.359 OA
HETATM   25  H17         0      63.895   8.839  23.654  1.00  0.00     0.218 HD
ENDBRANCH   8  24
TORSDOF 5
ENDMDL
MODEL 4
REMARK VINA RESULT:      -5.5      3.097      6.908
REMARK  5 active torsions:
REMARK  status: ('A' for Active; 'I' for Inactive)
REMARK    1  A    between atoms: C4_4  and  C5_5 
REMARK    2  A    between atoms: C8_8  and  O9_9 
REMARK    3  A    between atoms: C10_11  and  O11_12 
REMARK    4  A    between atoms: C16_18  and  O17_19 
REMARK    5  A    between atoms: C19_22  and  O20_23 
ROOT
HETATM    1  O1          0      56.858   4.016  21.503  1.00  0.00    -0.286 OA
HETATM    2  C2          0      57.798   4.845  21.361  1.00  0.00     0.201 C 
HETATM    3  C3          0      58.996   4.747  22.048  1.00  0.00     0.067 C 
HETATM    4  C4          0      59.974   5.730  21.950  1.00  0.00     0.103 C 
HETATM    5  O13         0      59.754   6.769  21.165  1.00  0.00    -0.307 OA
HETATM    6  C14         0      58.619   6.930  20.520  1.00  0.00     0.107 C 
HETATM    7  C15         0      58.225   8.167  20.032  1.00  0.00     0.049 C 
HETATM    8  C16         0      56.928   8.386  19.583  1.00  0.00     0.093 C 
HETATM    9  C18         0      56.255   7.248  19.157  1.00  0.00     0.048 C 
HETATM   10  C19         0      56.652   5.990  19.588  1.00  0.00     0.096 C 
HETATM   11  C21         0      57.727   5.868  20.427  1.00  0.00     0.084 C 
ENDROOT
BRANCH  10  12
HETATM   12  O20         0      55.750   4.932  19.526  1.00  0.00    -0.359 OA
HETATM   13  H20         0      54.844   5.132  19.326  1.00  0.00     0.218 HD
ENDBRANCH  10  12
BRANCH   4  14
HETATM   14  C5          0      60.882   5.887  23.089  1.00  0.00     0.025 C 
HETATM   15  C6          0      61.221   4.837  23.930  1.00  0.00     0.004 C 
HETATM   16  C7          0      62.533   4.777  24.389  1.00  0.00     0.026 C 
HETATM   17  C8          0      63.443   5.797  24.131  1.00  0.00     0.112 C 
HETATM   18  C10         0      62.869   7.031  23.860  1.00  0.00     0.112 C 
HETATM   19  C12         0      61.588   7.060  23.322  1.00  0.00     0.028 C 
BRANCH  17  20
HETATM   20  O9          0      64.788   5.520  23.958  1.00  0.00    -0.357 OA
HETATM   21  H9          0      65.287   5.784  23.194  1.00  0.00     0.218 HD
ENDBRANCH  17  20
BRANCH  18  22
HETATM   22  O11         0      63.726   8.120  23.783  1.00  0.00    -0.357 OA
HETATM   23  H11         0      64.601   8.004  24.135  1.00  0.00     0.218 HD
ENDBRANCH  18  22
ENDBRANCH   4  14
BRANCH   8  24
HETATM   24  O17         0      56.252   9.580  19.858  1.00  0.00    -0.359 OA
HETATM   25  H17         0      55.825  10.081  19.174  1.00  0.00     0.218 HD
ENDBRANCH   8  24
TORSDOF 5
ENDMDL
MODEL 5
REMARK VINA RESULT:      -5.5      2.611      4.367
REMARK  5 active torsions:
REMARK  status: ('A' for Active; 'I' for Inactive)
REMARK    1  A    between atoms: C4_4  and  C5_5 
REMARK    2  A    between atoms: C8_8  and  O9_9 
REMARK    3  A    between atoms: C10_11  and  O11_12 
REMARK    4  A    between atoms: C16_18  and  O17_19 
REMARK    5  A    between atoms: C19_22  and  O20_23 
ROOT
HETATM    1  O1          0      58.332   5.741  19.707  1.00  0.00    -0.286 OA
HETATM    2  C2          0      58.136   5.766  20.953  1.00  0.00     0.201 C 
HETATM    3  C3          0      56.870   5.785  21.514  1.00  0.00     0.067 C 
HETATM    4  C4          0      56.682   5.916  22.885  1.00  0.00     0.103 C 
HETATM    5  O13         0      57.745   6.003  23.666  1.00  0.00    -0.307 OA
HETATM    6  C14         0      58.967   6.028  23.182  1.00  0.00     0.107 C 
HETATM    7  C15         0      60.036   6.512  23.923  1.00  0.00     0.049 C 
HETATM    8  C16         0      61.266   6.773  23.329  1.00  0.00     0.093 C 
HETATM    9  C18         0      61.521   6.056  22.167  1.00  0.00     0.048 C 
HETATM   10  C19         0      60.477   5.518  21.427  1.00  0.00     0.096 C 
HETATM   11  C21         0      59.187   5.680  21.854  1.00  0.00     0.084 C 
ENDROOT
BRANCH  10  12
HETATM   12  O20         0      60.685   5.199  20.089  1.00  0.00    -0.359 OA
HETATM   13  H20         0      60.101   5.579  19.444  1.00  0.00     0.218 HD
ENDBRANCH  10  12
BRANCH   4  14
HETATM   14  C5          0      55.426   6.518  23.334  1.00  0.00     0.025 C 
HETATM   15  C6          0      55.268   7.077  24.594  1.00  0.00     0.004 C 
HETATM   16  C7          0      54.503   8.234  24.695  1.00  0.00     0.026 C 
HETATM   17  C8          0      53.807   8.746  23.605  1.00  0.00     0.112 C 
HETATM   18  C10         0      53.514   7.816  22.616  1.00  0.00     0.112 C 
HETATM   19  C12         0      54.346   6.710  22.482  1.00  0.00     0.028 C 
BRANCH  17  20
HETATM   20  O9          0      53.627  10.109  23.455  1.00  0.00    -0.357 OA
HETATM   21  H9          0      54.295  10.696  23.119  1.00  0.00     0.218 HD
ENDBRANCH  17  20
BRANCH  18  22
HETATM   22  O11         0      52.662   8.226  21.600  1.00  0.00    -0.357 OA
HETATM   23  H11         0      52.043   7.584  21.273  1.00  0.00     0.218 HD
ENDBRANCH  18  22
ENDBRANCH   4  14
BRANCH   8  24
HETATM   24  O17         0      62.020   7.898  23.680  1.00  0.00    -0.359 OA
HETATM   25  H17         0      62.441   7.972  24.528  1.00  0.00     0.218 HD
ENDBRANCH   8  24
TORSDOF 5
ENDMDL
MODEL 6
REMARK VINA RESULT:      -5.5      3.725      6.294
REMARK  5 active torsions:
REMARK  status: ('A' for Active; 'I' for Inactive)
REMARK    1  A    between atoms: C4_4  and  C5_5 
REMARK    2  A    between atoms: C8_8  and  O9_9 
REMARK    3  A    between atoms: C10_11  and  O11_12 
REMARK    4  A    between atoms: C16_18  and  O17_19 
REMARK    5  A    between atoms: C19_22  and  O20_23 
ROOT
HETATM    1  O1          0      64.134   3.872  18.280  1.00  0.00    -0.286 OA
HETATM    2  C2          0      64.777   3.865  19.366  1.00  0.00     0.201 C 
HETATM    3  C3          0      64.180   4.101  20.593  1.00  0.00     0.067 C 
HETATM    4  C4          0      64.928   4.189  21.762  1.00  0.00     0.103 C 
HETATM    5  O13         0      66.237   4.021  21.692  1.00  0.00    -0.307 OA
HETATM    6  C14         0      66.857   3.832  20.548  1.00  0.00     0.107 C 
HETATM    7  C15         0      68.220   4.053  20.411  1.00  0.00     0.049 C 
HETATM    8  C16         0      68.821   4.100  19.159  1.00  0.00     0.093 C 
HETATM    9  C18         0      68.145   3.413  18.158  1.00  0.00     0.048 C 
HETATM   10  C19         0      66.791   3.133  18.284  1.00  0.00     0.096 C 
HETATM   11  C21         0      66.120   3.523  19.411  1.00  0.00     0.084 C 
ENDROOT
BRANCH  10  12
HETATM   12  O20         0      66.045   2.855  17.143  1.00  0.00    -0.359 OA
HETATM   13  H20         0      65.118   2.678  17.250  1.00  0.00     0.218 HD
ENDBRANCH  10  12
BRANCH   4  14
HETATM   14  C5          0      64.378   5.001  22.849  1.00  0.00     0.025 C 
HETATM   15  C6          0      64.797   6.299  23.104  1.00  0.00     0.004 C 
HETATM   16  C7          0      63.832   7.222  23.493  1.00  0.00     0.026 C 
HETATM   17  C8          0      62.520   6.842  23.751  1.00  0.00     0.112 C 
HETATM   18  C10         0      62.359   5.503  24.084  1.00  0.00     0.112 C 
HETATM   19  C12         0      63.292   4.589  23.610  1.00  0.00     0.028 C 
BRANCH  17  20
HETATM   20  O9          0      61.467   7.698  23.480  1.00  0.00    -0.357 OA
HETATM   21  H9          0      61.425   8.596  23.788  1.00  0.00     0.218 HD
ENDBRANCH  17  20
BRANCH  18  22
HETATM   22  O11         0      61.105   5.114  24.533  1.00  0.00    -0.357 OA
HETATM   23  H11         0      60.819   5.465  25.368  1.00  0.00     0.218 HD
ENDBRANCH  18  22
ENDBRANCH   4  14
BRANCH   8  24
HETATM   24  O17         0      69.822   5.033  18.865  1.00  0.00    -0.359 OA
HETATM   25  H17         0      69.629   5.845  18.413  1.00  0.00     0.218 HD
ENDBRANCH   8  24
TORSDOF 5
ENDMDL
MODEL 7
REMARK VINA RESULT:      -5.4      2.023      3.008
REMARK  5 active torsions:
REMARK  status: ('A' for Active; 'I' for Inactive)
REMARK    1  A    between atoms: C4_4  and  C5_5 
REMARK    2  A    between atoms: C8_8  and  O9_9 
REMARK    3  A    between atoms: C10_11  and  O11_12 
REMARK    4  A    between atoms: C16_18  and  O17_19 
REMARK    5  A    between atoms: C19_22  and  O20_23 
ROOT
HETATM    1  O1          0      60.013   4.869  21.024  1.00  0.00    -0.286 OA
HETATM    2  C2          0      60.355   4.643  22.216  1.00  0.00     0.201 C 
HETATM    3  C3          0      59.448   4.306  23.206  1.00  0.00     0.067 C 
HETATM    4  C4          0      59.837   4.162  24.533  1.00  0.00     0.103 C 
HETATM    5  O13         0      61.110   4.334  24.843  1.00  0.00    -0.307 OA
HETATM    6  C14         0      62.006   4.691  23.949  1.00  0.00     0.107 C 
HETATM    7  C15         0      63.220   5.253  24.314  1.00  0.00     0.049 C 
HETATM    8  C16         0      64.047   5.858  23.376  1.00  0.00     0.093 C 
HETATM    9  C18         0      63.875   5.415  22.070  1.00  0.00     0.048 C 
HETATM   10  C19         0      62.690   4.806  21.682  1.00  0.00     0.096 C 
HETATM   11  C21         0      61.688   4.625  22.596  1.00  0.00     0.084 C 
ENDROOT
BRANCH  10  12
HETATM   12  O20         0      62.355   4.767  20.332  1.00  0.00    -0.359 OA
HETATM   13  H20         0      63.061   4.696  19.700  1.00  0.00     0.218 HD
ENDBRANCH  10  12
BRANCH   4  14
HETATM   14  C5          0      58.823   4.408  25.560  1.00  0.00     0.025 C 
HETATM   15  C6          0      58.528   3.493  26.561  1.00  0.00     0.004 C 
HETATM   16  C7          0      58.254   3.993  27.830  1.00  0.00     0.026 C 
HETATM   17  C8          0      58.143   5.359  28.068  1.00  0.00     0.112 C 
HETATM   18  C10         0      57.824   6.118  26.950  1.00  0.00     0.112 C 
HETATM   19  C12         0      58.186   5.634  25.698  1.00  0.00     0.028 C 
BRANCH  17  20
HETATM   20  O9          0      58.534   5.901  29.279  1.00  0.00    -0.357 OA
HETATM   21  H9          0      58.442   6.821  29.499  1.00  0.00     0.218 HD
ENDBRANCH  17  20
BRANCH  18  22
HETATM   22  O11         0      57.516   7.454  27.164  1.00  0.00    -0.357 OA
HETATM   23  H11         0      58.201   8.087  26.985  1.00  0.00     0.218 HD
ENDBRANCH  18  22
ENDBRANCH   4  14
BRANCH   8  24
HETATM   24  O17         0      64.739   7.039  23.667  1.00  0.00    -0.359 OA
HETATM   25  H17         0      64.345   7.894  23.536  1.00  0.00     0.218 HD
ENDBRANCH   8  24
TORSDOF 5
ENDMDL
MODEL 8
REMARK VINA RESULT:      -5.3      2.299      6.725
REMARK  5 active torsions:
REMARK  status: ('A' for Active; 'I' for Inactive)
REMARK    1  A    between atoms: C4_4  and  C5_5 
REMARK    2  A    between atoms: C8_8  and  O9_9 
REMARK    3  A    between atoms: C10_11  and  O11_12 
REMARK    4  A    between atoms: C16_18  and  O17_19 
REMARK    5  A    between atoms: C19_22  and  O20_23 
ROOT
HETATM    1  O1          0      60.385   2.041  26.170  1.00  0.00    -0.286 OA
HETATM    2  C2          0      59.974   3.129  25.681  1.00  0.00     0.201 C 
HETATM    3  C3          0      60.611   3.766  24.629  1.00  0.00     0.067 C 
HETATM    4  C4          0      60.198   5.015  24.177  1.00  0.00     0.103 C 
HETATM    5  O13         0      59.159   5.589  24.759  1.00  0.00    -0.307 OA
HETATM    6  C14         0      58.543   5.044  25.784  1.00  0.00     0.107 C 
HETATM    7  C15         0      57.741   5.790  26.636  1.00  0.00     0.049 C 
HETATM    8  C16         0      57.303   5.275  27.850  1.00  0.00     0.093 C 
HETATM    9  C18         0      57.245   3.888  27.913  1.00  0.00     0.048 C 
HETATM   10  C19         0      57.999   3.111  27.045  1.00  0.00     0.096 C 
HETATM   11  C21         0      58.792   3.714  26.108  1.00  0.00     0.084 C 
ENDROOT
BRANCH  10  12
HETATM   12  O20         0      58.276   1.789  27.381  1.00  0.00    -0.359 OA
HETATM   13  H20         0      57.971   1.471  28.222  1.00  0.00     0.218 HD
ENDBRANCH  10  12
BRANCH   4  14
HETATM   14  C5          0      61.206   5.863  23.539  1.00  0.00     0.025 C 
HETATM   15  C6          0      61.548   7.117  24.022  1.00  0.00     0.004 C 
HETATM   16  C7          0      62.888   7.488  23.961  1.00  0.00     0.026 C 
HETATM   17  C8          0      63.835   6.697  23.321  1.00  0.00     0.112 C 
HETATM   18  C10         0      63.319   5.837  22.361  1.00  0.00     0.112 C 
HETATM   19  C12         0      62.002   5.414  22.492  1.00  0.00     0.028 C 
BRANCH  17  20
HETATM   20  O9          0      65.140   6.644  23.777  1.00  0.00    -0.357 OA
HETATM   21  H9          0      65.441   7.078  24.568  1.00  0.00     0.218 HD
ENDBRANCH  17  20
BRANCH  18  22
HETATM   22  O11         0      64.234   5.164  21.562  1.00  0.00    -0.357 OA
HETATM   23  H11         0      64.874   5.694  21.102  1.00  0.00     0.218 HD
ENDBRANCH  18  22
ENDBRANCH   4  14
BRANCH   8  24
HETATM   24  O17         0      57.255   6.067  29.003  1.00  0.00    -0.359 OA
HETATM   25  H17         0      56.491   6.082  29.567  1.00  0.00     0.218 HD
ENDBRANCH   8  24
TORSDOF 5
ENDMDL
MODEL 9
REMARK VINA RESULT:      -5.2      2.359      6.650
REMARK  5 active torsions:
REMARK  status: ('A' for Active; 'I' for Inactive)
REMARK    1  A    between atoms: C4_4  and  C5_5 
REMARK    2  A    between atoms: C8_8  and  O9_9 
REMARK    3  A    between atoms: C10_11  and  O11_12 
REMARK    4  A    between atoms: C16_18  and  O17_19 
REMARK    5  A    between atoms: C19_22  and  O20_23 
ROOT
HETATM    1  O1          0      59.088   6.134  19.491  1.00  0.00    -0.286 OA
HETATM    2  C2          0      59.016   6.227  20.747  1.00  0.00     0.201 C 
HETATM    3  C3          0      60.118   6.481  21.545  1.00  0.00     0.067 C 
HETATM    4  C4          0      60.030   6.478  22.933  1.00  0.00     0.103 C 
HETATM    5  O13         0      58.856   6.245  23.493  1.00  0.00    -0.307 OA
HETATM    6  C14         0      57.786   5.961  22.783  1.00  0.00     0.107 C 
HETATM    7  C15         0      56.681   5.336  23.343  1.00  0.00     0.049 C 
HETATM    8  C16         0      55.669   4.812  22.549  1.00  0.00     0.093 C 
HETATM    9  C18         0      55.549   5.392  21.292  1.00  0.00     0.048 C 
HETATM   10  C19         0      56.621   6.066  20.721  1.00  0.00     0.096 C 
HETATM   11  C21         0      57.799   6.174  21.409  1.00  0.00     0.084 C 
ENDROOT
BRANCH  10  12
HETATM   12  O20         0      56.651   6.252  19.342  1.00  0.00    -0.359 OA
HETATM   13  H20         0      56.166   6.985  18.981  1.00  0.00     0.218 HD
ENDBRANCH  10  12
BRANCH   4  14
HETATM   14  C5          0      61.245   6.151  23.680  1.00  0.00     0.025 C 
HETATM   15  C6          0      61.472   4.900  24.237  1.00  0.00     0.004 C 
HETATM   16  C7          0      62.769   4.399  24.188  1.00  0.00     0.026 C 
HETATM   17  C8          0      63.831   5.167  23.724  1.00  0.00     0.112 C 
HETATM   18  C10         0      63.630   6.539  23.799  1.00  0.00     0.112 C 
HETATM   19  C12         0      62.326   7.019  23.760  1.00  0.00     0.028 C 
BRANCH  17  20
HETATM   20  O9          0      64.891   4.581  23.055  1.00  0.00    -0.357 OA
HETATM   21  H9          0      65.410   3.869  23.411  1.00  0.00     0.218 HD
ENDBRANCH  17  20
BRANCH  18  22
HETATM   22  O11         0      64.723   7.350  23.528  1.00  0.00    -0.357 OA
HETATM   23  H11         0      65.326   7.050  22.858  1.00  0.00     0.218 HD
ENDBRANCH  18  22
ENDBRANCH   4  14
BRANCH   8  24
HETATM   24  O17         0      55.058   3.592  22.857  1.00  0.00    -0.359 OA
HETATM   25  H17         0      55.016   2.881  22.228  1.00  0.00     0.218 HD
ENDBRANCH   8  24
TORSDOF 5
ENDMDL
