MODEL 1
REMARK VINA RESULT:      -5.6      0.000      0.000
REMARK  5 active torsions:
REMARK  status: ('A' for Active; 'I' for Inactive)
REMARK    1  A    between atoms: C4_4  and  C5_5 
REMARK    2  A    between atoms: C8_8  and  O9_9 
REMARK    3  A    between atoms: C10_11  and  O11_12 
REMARK    4  A    between atoms: C16_18  and  O17_19 
REMARK    5  A    between atoms: C19_22  and  O20_23 
ROOT
HETATM    1  O1          0      25.394  60.124 -22.573  1.00  0.00    -0.286 OA
HETATM    2  C2          0      26.364  59.339 -22.753  1.00  0.00     0.201 C 
HETATM    3  C3          0      27.293  59.513 -23.765  1.00  0.00     0.067 C 
HETATM    4  C4          0      28.293  58.578 -24.005  1.00  0.00     0.103 C 
HETATM    5  O13         0      28.362  57.509 -23.231  1.00  0.00    -0.307 OA
HETATM    6  C14         0      27.483  57.276 -22.281  1.00  0.00     0.107 C 
HETATM    7  C15         0      27.303  56.009 -21.746  1.00  0.00     0.049 C 
HETATM    8  C16         0      26.213  55.716 -20.936  1.00  0.00     0.093 C 
HETATM    9  C18         0      25.657  56.808 -20.282  1.00  0.00     0.048 C 
HETATM   10  C19         0      25.855  58.095 -20.763  1.00  0.00     0.096 C 
HETATM   11  C21         0      26.619  58.291 -21.882  1.00  0.00     0.084 C 
ENDROOT
BRANCH  10  12
HETATM   12  O20         0      24.974  59.105 -20.391  1.00  0.00    -0.359 OA
HETATM   13  H20         0      24.658  59.692 -21.067  1.00  0.00     0.218 HD
ENDBRANCH  10  12
BRANCH   4  14
HETATM   14  C5          0      28.818  58.495 -25.369  1.00  0.00     0.025 C 
HETATM   15  C6          0      29.932  57.737 -25.701  1.00  0.00     0.004 C 
HETATM   16  C7          0      29.912  57.060 -26.917  1.00  0.00     0.026 C 
HETATM   17  C8          0      28.881  57.237 -27.833  1.00  0.00     0.112 C 
HETATM   18  C10         0      28.190  58.434 -27.705  1.00  0.00     0.112 C 
HETATM   19  C12         0      28.155  59.046 -26.457  1.00  0.00     0.028 C 
BRANCH  17  20
HETATM   20  O9          0      28.469  56.196 -28.646  1.00  0.00    -0.357 OA
HETATM   21  H9          0      28.366  55.300 -28.346  1.00  0.00     0.218 HD
ENDBRANCH  17  20
BRANCH  18  22
HETATM   22  O11         0      27.281  58.745 -28.706  1.00  0.00    -0.357 OA
HETATM   23  H11         0      27.636  58.934 -29.567  1.00  0.00     0.218 HD
ENDBRANCH  18  22
ENDBRANCH   4  14
BRANCH   8  24
HETATM   24  O17         0      25.533  54.497 -21.041  1.00  0.00    -0.359 OA
HETATM   25  H17         0      25.265  54.146 -21.882  1.00  0.00     0.218 HD
ENDBRANCH   8  24
TORSDOF 5
ENDMDL
MODEL 2
REMARK VINA RESULT:      -5.5      2.932      5.914
REMARK  5 active torsions:
REMARK  status: ('A' for Active; 'I' for Inactive)
REMARK    1  A    between atoms: C4_4  and  C5_5 
REMARK    2  A    between atoms: C8_8  and  O9_9 
REMARK    3  A    between atoms: C10_11  and  O11_12 
REMARK    4  A    between atoms: C16_18  and  O17_19 
REMARK    5  A    between atoms: C19_22  and  O20_23 
ROOT
HETATM    1  O1          0      26.902  57.756 -19.731  1.00  0.00    -0.286 OA
HETATM    2  C2          0      26.196  57.357 -20.697  1.00  0.00     0.201 C 
HETATM    3  C3          0      25.612  56.102 -20.732  1.00  0.00     0.067 C 
HETATM    4  C4          0      24.925  55.649 -21.853  1.00  0.00     0.103 C 
HETATM    5  O13         0      24.814  56.451 -22.897  1.00  0.00    -0.307 OA
HETATM    6  C14         0      25.381  57.638 -22.930  1.00  0.00     0.107 C 
HETATM    7  C15         0      25.613  58.304 -24.124  1.00  0.00     0.049 C 
HETATM    8  C16         0      26.431  59.426 -24.178  1.00  0.00     0.093 C 
HETATM    9  C18         0      26.548  60.125 -22.983  1.00  0.00     0.048 C 
HETATM   10  C19         0      26.278  59.502 -21.772  1.00  0.00     0.096 C 
HETATM   11  C21         0      25.878  58.194 -21.756  1.00  0.00     0.084 C 
ENDROOT
BRANCH  10  12
HETATM   12  O20         0      26.801  60.039 -20.599  1.00  0.00    -0.359 OA
HETATM   13  H20         0      27.738  60.182 -20.554  1.00  0.00     0.218 HD
ENDBRANCH  10  12
BRANCH   4  14
HETATM   14  C5          0      24.874  54.202 -22.068  1.00  0.00     0.025 C 
HETATM   15  C6          0      24.401  53.632 -23.241  1.00  0.00     0.004 C 
HETATM   16  C7          0      25.058  52.503 -23.719  1.00  0.00     0.026 C 
HETATM   17  C8          0      26.064  51.880 -22.989  1.00  0.00     0.112 C 
HETATM   18  C10         0      26.021  52.119 -21.622  1.00  0.00     0.112 C 
HETATM   19  C12         0      25.434  53.297 -21.175  1.00  0.00     0.028 C 
BRANCH  17  20
HETATM   20  O9          0      27.124  51.261 -23.628  1.00  0.00    -0.357 OA
HETATM   21  H9          0      27.835  50.826 -23.171  1.00  0.00     0.218 HD
ENDBRANCH  17  20
BRANCH  18  22
HETATM   22  O11         0      26.882  51.375 -20.827  1.00  0.00    -0.357 OA
HETATM   23  H11         0      27.812  51.540 -20.930  1.00  0.00     0.218 HD
ENDBRANCH  18  22
ENDBRANCH   4  14
BRANCH   8  24
HETATM   24  O17         0      27.320  59.630 -25.240  1.00  0.00    -0.359 OA
HETATM   25  H17         0      27.646  58.908 -25.764  1.00  0.00     0.218 HD
ENDBRANCH   8  24
TORSDOF 5
ENDMDL
MODEL 3
REMARK VINA RESULT:      -5.5      2.737      5.826
REMARK  5 active torsions:
REMARK  status: ('A' for Active; 'I' for Inactive)
REMARK    1  A    between atoms: C4_4  and  C5_5 
REMARK    2  A    between atoms: C8_8  and  O9_9 
REMARK    3  A    between atoms: C10_11  and  O11_12 
REMARK    4  A    between atoms: C16_18  and  O17_19 
REMARK    5  A    between atoms: C19_22  and  O20_23 
ROOT
HETATM    1  O1          0      25.065  58.073 -20.828  1.00  0.00    -0.286 OA
HETATM    2  C2          0      25.555  57.369 -21.753  1.00  0.00     0.201 C 
HETATM    3  C3          0      25.414  55.993 -21.804  1.00  0.00     0.067 C 
HETATM    4  C4          0      26.050  55.230 -22.777  1.00  0.00     0.103 C 
HETATM    5  O13         0      26.789  55.846 -23.683  1.00  0.00    -0.307 OA
HETATM    6  C14         0      26.987  57.146 -23.658  1.00  0.00     0.107 C 
HETATM    7  C15         0      28.048  57.736 -24.330  1.00  0.00     0.049 C 
HETATM    8  C16         0      28.402  59.060 -24.097  1.00  0.00     0.093 C 
HETATM    9  C18         0      27.378  59.865 -23.613  1.00  0.00     0.048 C 
HETATM   10  C19         0      26.279  59.303 -22.977  1.00  0.00     0.096 C 
HETATM   11  C21         0      26.195  57.945 -22.840  1.00  0.00     0.084 C 
ENDROOT
BRANCH  10  12
HETATM   12  O20         0      25.504  60.093 -22.134  1.00  0.00    -0.359 OA
HETATM   13  H20         0      25.654  60.026 -21.199  1.00  0.00     0.218 HD
ENDBRANCH  10  12
BRANCH   4  14
HETATM   14  C5          0      26.359  53.839 -22.442  1.00  0.00     0.025 C 
HETATM   15  C6          0      26.027  53.268 -21.222  1.00  0.00     0.004 C 
HETATM   16  C7          0      25.594  51.946 -21.225  1.00  0.00     0.026 C 
HETATM   17  C8          0      25.616  51.175 -22.382  1.00  0.00     0.112 C 
HETATM   18  C10         0      26.520  51.601 -23.346  1.00  0.00     0.112 C 
HETATM   19  C12         0      26.871  52.945 -23.373  1.00  0.00     0.028 C 
BRANCH  17  20
HETATM   20  O9          0      24.656  50.203 -22.604  1.00  0.00    -0.357 OA
HETATM   21  H9          0      23.771  50.248 -22.262  1.00  0.00     0.218 HD
ENDBRANCH  17  20
BRANCH  18  22
HETATM   22  O11         0      26.719  50.764 -24.434  1.00  0.00    -0.357 OA
HETATM   23  H11         0      26.714  51.168 -25.294  1.00  0.00     0.218 HD
ENDBRANCH  18  22
ENDBRANCH   4  14
BRANCH   8  24
HETATM   24  O17         0      29.742  59.455 -24.030  1.00  0.00    -0.359 OA
HETATM   25  H17         0      30.446  58.881 -24.308  1.00  0.00     0.218 HD
ENDBRANCH   8  24
TORSDOF 5
ENDMDL
MODEL 4
REMARK VINA RESULT:      -5.5      3.968      6.977
REMARK  5 active torsions:
REMARK  status: ('A' for Active; 'I' for Inactive)
REMARK    1  A    between atoms: C4_4  and  C5_5 
REMARK    2  A    between atoms: C8_8  and  O9_9 
REMARK    3  A    between atoms: C10_11  and  O11_12 
REMARK    4  A    between atoms: C16_18  and  O17_19 
REMARK    5  A    between atoms: C19_22  and  O20_23 
ROOT
HETATM    1  O1          0      26.019  51.405 -20.206  1.00  0.00    -0.286 OA
HETATM    2  C2          0      25.567  52.542 -19.898  1.00  0.00     0.201 C 
HETATM    3  C3          0      25.768  53.667 -20.679  1.00  0.00     0.067 C 
HETATM    4  C4          0      25.348  54.926 -20.266  1.00  0.00     0.103 C 
HETATM    5  O13         0      24.726  55.038 -19.105  1.00  0.00    -0.307 OA
HETATM    6  C14         0      24.543  54.009 -18.308  1.00  0.00     0.107 C 
HETATM    7  C15         0      24.267  54.170 -16.958  1.00  0.00     0.049 C 
HETATM    8  C16         0      24.328  53.098 -16.076  1.00  0.00     0.093 C 
HETATM    9  C18         0      24.144  51.849 -16.656  1.00  0.00     0.048 C 
HETATM   10  C19         0      24.366  51.663 -18.014  1.00  0.00     0.096 C 
HETATM   11  C21         0      24.752  52.721 -18.790  1.00  0.00     0.084 C 
ENDROOT
BRANCH  10  12
HETATM   12  O20         0      24.607  50.379 -18.495  1.00  0.00    -0.359 OA
HETATM   13  H20         0      24.762  50.274 -19.425  1.00  0.00     0.218 HD
ENDBRANCH  10  12
BRANCH   4  14
HETATM   14  C5          0      26.082  56.081 -20.786  1.00  0.00     0.025 C 
HETATM   15  C6          0      26.180  56.360 -22.142  1.00  0.00     0.004 C 
HETATM   16  C7          0      26.125  57.695 -22.531  1.00  0.00     0.026 C 
HETATM   17  C8          0      26.108  58.726 -21.598  1.00  0.00     0.112 C 
HETATM   18  C10         0      26.640  58.396 -20.358  1.00  0.00     0.112 C 
HETATM   19  C12         0      26.605  57.066 -19.958  1.00  0.00     0.028 C 
BRANCH  17  20
HETATM   20  O9          0      25.418  59.899 -21.850  1.00  0.00    -0.357 OA
HETATM   21  H9          0      25.292  60.261 -22.719  1.00  0.00     0.218 HD
ENDBRANCH  17  20
BRANCH  18  22
HETATM   22  O11         0      26.821  59.434 -19.455  1.00  0.00    -0.357 OA
HETATM   23  H11         0      27.683  59.518 -19.064  1.00  0.00     0.218 HD
ENDBRANCH  18  22
ENDBRANCH   4  14
BRANCH   8  24
HETATM   24  O17         0      24.863  53.240 -14.790  1.00  0.00    -0.359 OA
HETATM   25  H17         0      24.461  52.828 -14.034  1.00  0.00     0.218 HD
ENDBRANCH   8  24
TORSDOF 5
ENDMDL
MODEL 5
REMARK VINA RESULT:      -5.4      2.945      7.961
REMARK  5 active torsions:
REMARK  status: ('A' for Active; 'I' for Inactive)
REMARK    1  A    between atoms: C4_4  and  C5_5 
REMARK    2  A    between atoms: C8_8  and  O9_9 
REMARK    3  A    between atoms: C10_11  and  O11_12 
REMARK    4  A    between atoms: C16_18  and  O17_19 
REMARK    5  A    between atoms: C19_22  and  O20_23 
ROOT
HETATM    1  O1          0      27.326  54.557 -23.292  1.00  0.00    -0.286 OA
HETATM    2  C2          0      26.968  55.116 -22.219  1.00  0.00     0.201 C 
HETATM    3  C3          0      26.470  54.413 -21.136  1.00  0.00     0.067 C 
HETATM    4  C4          0      25.988  55.061 -20.005  1.00  0.00     0.103 C 
HETATM    5  O13         0      26.029  56.381 -19.964  1.00  0.00    -0.307 OA
HETATM    6  C14         0      26.458  57.099 -20.980  1.00  0.00     0.107 C 
HETATM    7  C15         0      26.140  58.443 -21.110  1.00  0.00     0.049 C 
HETATM    8  C16         0      26.374  59.128 -22.297  1.00  0.00     0.093 C 
HETATM    9  C18         0      27.376  58.591 -23.096  1.00  0.00     0.048 C 
HETATM   10  C19         0      27.751  57.262 -22.960  1.00  0.00     0.096 C 
HETATM   11  C21         0      27.141  56.477 -22.019  1.00  0.00     0.084 C 
ENDROOT
BRANCH  10  12
HETATM   12  O20         0      28.407  56.629 -24.011  1.00  0.00    -0.359 OA
HETATM   13  H20         0      27.889  56.352 -24.757  1.00  0.00     0.218 HD
ENDBRANCH  10  12
BRANCH   4  14
HETATM   14  C5          0      24.973  54.363 -19.214  1.00  0.00     0.025 C 
HETATM   15  C6          0      25.076  53.023 -18.872  1.00  0.00     0.004 C 
HETATM   16  C7          0      24.645  52.646 -17.604  1.00  0.00     0.026 C 
HETATM   17  C8          0      24.008  53.543 -16.754  1.00  0.00     0.112 C 
HETATM   18  C10         0      23.400  54.616 -17.392  1.00  0.00     0.112 C 
HETATM   19  C12         0      23.906  55.026 -18.620  1.00  0.00     0.028 C 
BRANCH  17  20
HETATM   20  O9          0      24.170  53.457 -15.382  1.00  0.00    -0.357 OA
HETATM   21  H9          0      24.783  53.990 -14.889  1.00  0.00     0.218 HD
ENDBRANCH  17  20
BRANCH  18  22
HETATM   22  O11         0      22.594  55.436 -16.615  1.00  0.00    -0.357 OA
HETATM   23  H11         0      22.188  55.041 -15.852  1.00  0.00     0.218 HD
ENDBRANCH  18  22
ENDBRANCH   4  14
BRANCH   8  24
HETATM   24  O17         0      25.457  60.061 -22.793  1.00  0.00    -0.359 OA
HETATM   25  H17         0      25.560  60.993 -22.637  1.00  0.00     0.218 HD
ENDBRANCH   8  24
TORSDOF 5
ENDMDL
MODEL 6
REMARK VINA RESULT:      -5.4      2.926      7.695
REMARK  5 active torsions:
REMARK  status: ('A' for Active; 'I' for Inactive)
REMARK    1  A    between atoms: C4_4  and  C5_5 
REMARK    2  A    between atoms: C8_8  and  O9_9 
REMARK    3  A    between atoms: C10_11  and  O11_12 
REMARK    4  A    between atoms: C16_18  and  O17_19 
REMARK    5  A    between atoms: C19_22  and  O20_23 
ROOT
HETATM    1  O1          0      29.197  56.054 -21.111  1.00  0.00    -0.286 OA
HETATM    2  C2          0      27.950  56.242 -21.152  1.00  0.00     0.201 C 
HETATM    3  C3          0      27.099  55.852 -20.132  1.00  0.00     0.067 C 
HETATM    4  C4          0      25.719  55.977 -20.247  1.00  0.00     0.103 C 
HETATM    5  O13         0      25.219  56.502 -21.352  1.00  0.00    -0.307 OA
HETATM    6  C14         0      25.980  56.854 -22.365  1.00  0.00     0.107 C 
HETATM    7  C15         0      25.465  57.019 -23.643  1.00  0.00     0.049 C 
HETATM    8  C16         0      26.300  57.138 -24.747  1.00  0.00     0.093 C 
HETATM    9  C18         0      27.578  57.608 -24.469  1.00  0.00     0.048 C 
HETATM   10  C19         0      28.106  57.501 -23.190  1.00  0.00     0.096 C 
HETATM   11  C21         0      27.357  56.943 -22.191  1.00  0.00     0.084 C 
ENDROOT
BRANCH  10  12
HETATM   12  O20         0      29.486  57.558 -23.017  1.00  0.00    -0.359 OA
HETATM   13  H20         0      29.877  56.985 -22.368  1.00  0.00     0.218 HD
ENDBRANCH  10  12
BRANCH   4  14
HETATM   14  C5          0      24.895  55.047 -19.473  1.00  0.00     0.025 C 
HETATM   15  C6          0      25.239  53.717 -19.284  1.00  0.00     0.004 C 
HETATM   16  C7          0      24.976  53.154 -18.039  1.00  0.00     0.026 C 
HETATM   17  C8          0      24.274  53.846 -17.058  1.00  0.00     0.112 C 
HETATM   18  C10         0      23.454  54.858 -17.538  1.00  0.00     0.112 C 
HETATM   19  C12         0      23.787  55.463 -18.745  1.00  0.00     0.028 C 
BRANCH  17  20
HETATM   20  O9          0      24.558  53.658 -15.717  1.00  0.00    -0.357 OA
HETATM   21  H9          0      24.812  52.822 -15.344  1.00  0.00     0.218 HD
ENDBRANCH  17  20
BRANCH  18  22
HETATM   22  O11         0      22.592  55.454 -16.628  1.00  0.00    -0.357 OA
HETATM   23  H11         0      21.684  55.545 -16.892  1.00  0.00     0.218 HD
ENDBRANCH  18  22
ENDBRANCH   4  14
BRANCH   8  24
HETATM   24  O17         0      25.992  56.519 -25.964  1.00  0.00    -0.359 OA
HETATM   25  H17         0      26.597  55.921 -26.387  1.00  0.00     0.218 HD
ENDBRANCH   8  24
TORSDOF 5
ENDMDL
MODEL 7
REMARK VINA RESULT:      -5.4      4.242      7.331
REMARK  5 active torsions:
REMARK  status: ('A' for Active; 'I' for Inactive)
REMARK    1  A    between atoms: C4_4  and  C5_5 
REMARK    2  A    between atoms: C8_8  and  O9_9 
REMARK    3  A    between atoms: C10_11  and  O11_12 
REMARK    4  A    between atoms: C16_18  and  O17_19 
REMARK    5  A    between atoms: C19_22  and  O20_23 
ROOT
HETATM    1  O1          0      25.064  50.035 -19.553  1.00  0.00    -0.286 OA
HETATM    2  C2          0      25.200  51.286 -19.461  1.00  0.00     0.201 C 
HETATM    3  C3          0      25.952  52.026 -20.357  1.00  0.00     0.067 C 
HETATM    4  C4          0      26.171  53.387 -20.174  1.00  0.00     0.103 C 
HETATM    5  O13         0      25.626  53.983 -19.128  1.00  0.00    -0.307 OA
HETATM    6  C14         0      24.935  53.320 -18.228  1.00  0.00     0.107 C 
HETATM    7  C15         0      24.709  53.830 -16.958  1.00  0.00     0.049 C 
HETATM    8  C16         0      24.206  53.032 -15.938  1.00  0.00     0.093 C 
HETATM    9  C18         0      23.471  51.931 -16.362  1.00  0.00     0.048 C 
HETATM   10  C19         0      23.639  51.423 -17.643  1.00  0.00     0.096 C 
HETATM   11  C21         0      24.522  52.020 -18.500  1.00  0.00     0.084 C 
ENDROOT
BRANCH  10  12
HETATM   12  O20         0      23.255  50.112 -17.910  1.00  0.00    -0.359 OA
HETATM   13  H20         0      23.129  49.861 -18.817  1.00  0.00     0.218 HD
ENDBRANCH  10  12
BRANCH   4  14
HETATM   14  C5          0      27.392  53.953 -20.750  1.00  0.00     0.025 C 
HETATM   15  C6          0      27.670  53.916 -22.109  1.00  0.00     0.004 C 
HETATM   16  C7          0      28.283  55.030 -22.672  1.00  0.00     0.026 C 
HETATM   17  C8          0      28.728  56.091 -21.891  1.00  0.00     0.112 C 
HETATM   18  C10         0      28.982  55.767 -20.565  1.00  0.00     0.112 C 
HETATM   19  C12         0      28.292  54.700 -20.001  1.00  0.00     0.028 C 
BRANCH  17  20
HETATM   20  O9          0      28.702  57.387 -22.374  1.00  0.00    -0.357 OA
HETATM   21  H9          0      28.359  58.126 -21.885  1.00  0.00     0.218 HD
ENDBRANCH  17  20
BRANCH  18  22
HETATM   22  O11         0      29.605  56.735 -19.790  1.00  0.00    -0.357 OA
HETATM   23  H11         0      30.532  56.616 -19.615  1.00  0.00     0.218 HD
ENDBRANCH  18  22
ENDBRANCH   4  14
BRANCH   8  24
HETATM   24  O17         0      24.683  53.137 -14.626  1.00  0.00    -0.359 OA
HETATM   25  H17         0      25.146  53.909 -14.324  1.00  0.00     0.218 HD
ENDBRANCH   8  24
TORSDOF 5
ENDMDL
MODEL 8
REMARK VINA RESULT:      -5.2      1.796      6.517
REMARK  5 active torsions:
REMARK  status: ('A' for Active; 'I' for Inactive)
REMARK    1  A    between atoms: C4_4  and  C5_5 
REMARK    2  A    between atoms: C8_8  and  O9_9 
REMARK    3  A    between atoms: C10_11  and  O11_12 
REMARK    4  A    between atoms: C16_18  and  O17_19 
REMARK    5  A    between atoms: C19_22  and  O20_23 
ROOT
HETATM    1  O1          0      29.769  59.324 -26.109  1.00  0.00    -0.286 OA
HETATM    2  C2          0      28.680  58.701 -25.975  1.00  0.00     0.201 C 
HETATM    3  C3          0      27.999  58.631 -24.772  1.00  0.00     0.067 C 
HETATM    4  C4          0      26.856  57.853 -24.626  1.00  0.00     0.103 C 
HETATM    5  O13         0      26.406  57.183 -25.673  1.00  0.00    -0.307 OA
HETATM    6  C14         0      27.036  57.185 -26.827  1.00  0.00     0.107 C 
HETATM    7  C15         0      26.815  56.203 -27.782  1.00  0.00     0.049 C 
HETATM    8  C16         0      27.655  56.062 -28.880  1.00  0.00     0.093 C 
HETATM    9  C18         0      28.344  57.212 -29.243  1.00  0.00     0.048 C 
HETATM   10  C19         0      28.543  58.235 -28.326  1.00  0.00     0.096 C 
HETATM   11  C21         0      28.041  58.117 -27.059  1.00  0.00     0.084 C 
ENDROOT
BRANCH  10  12
HETATM   12  O20         0      29.569  59.151 -28.539  1.00  0.00    -0.359 OA
HETATM   13  H20         0      30.351  59.074 -28.007  1.00  0.00     0.218 HD
ENDBRANCH  10  12
BRANCH   4  14
HETATM   14  C5          0      26.555  57.349 -23.285  1.00  0.00     0.025 C 
HETATM   15  C6          0      27.311  56.364 -22.665  1.00  0.00     0.004 C 
HETATM   16  C7          0      27.535  56.490 -21.297  1.00  0.00     0.026 C 
HETATM   17  C8          0      26.919  57.484 -20.545  1.00  0.00     0.112 C 
HETATM   18  C10         0      25.746  57.984 -21.095  1.00  0.00     0.112 C 
HETATM   19  C12         0      25.585  57.923 -22.474  1.00  0.00     0.028 C 
BRANCH  17  20
HETATM   20  O9          0      27.561  58.051 -19.458  1.00  0.00    -0.357 OA
HETATM   21  H9          0      27.116  58.314 -18.661  1.00  0.00     0.218 HD
ENDBRANCH  17  20
BRANCH  18  22
HETATM   22  O11         0      24.994  58.837 -20.300  1.00  0.00    -0.357 OA
HETATM   23  H11         0      24.275  58.450 -19.814  1.00  0.00     0.218 HD
ENDBRANCH  18  22
ENDBRANCH   4  14
BRANCH   8  24
HETATM   24  O17         0      28.028  54.800 -29.354  1.00  0.00    -0.359 OA
HETATM   25  H17         0      27.569  54.011 -29.091  1.00  0.00     0.218 HD
ENDBRANCH   8  24
TORSDOF 5
ENDMDL
MODEL 9
REMARK VINA RESULT:      -5.2      3.968      8.365
REMARK  5 active torsions:
REMARK  status: ('A' for Active; 'I' for Inactive)
REMARK    1  A    between atoms: C4_4  and  C5_5 
REMARK    2  A    between atoms: C8_8  and  O9_9 
REMARK    3  A    between atoms: C10_11  and  O11_12 
REMARK    4  A    between atoms: C16_18  and  O17_19 
REMARK    5  A    between atoms: C19_22  and  O20_23 
ROOT
HETATM    1  O1          0      25.497  58.418 -21.193  1.00  0.00    -0.286 OA
HETATM    2  C2          0      25.385  57.231 -20.782  1.00  0.00     0.201 C 
HETATM    3  C3          0      24.201  56.721 -20.275  1.00  0.00     0.067 C 
HETATM    4  C4          0      24.131  55.443 -19.734  1.00  0.00     0.103 C 
HETATM    5  O13         0      25.222  54.696 -19.726  1.00  0.00    -0.307 OA
HETATM    6  C14         0      26.379  55.145 -20.159  1.00  0.00     0.107 C 
HETATM    7  C15         0      27.577  54.546 -19.797  1.00  0.00     0.049 C 
HETATM    8  C16         0      28.797  55.166 -20.044  1.00  0.00     0.093 C 
HETATM    9  C18         0      28.789  56.081 -21.089  1.00  0.00     0.048 C 
HETATM   10  C19         0      27.601  56.664 -21.508  1.00  0.00     0.096 C 
HETATM   11  C21         0      26.425  56.322 -20.898  1.00  0.00     0.084 C 
ENDROOT
BRANCH  10  12
HETATM   12  O20         0      27.644  57.859 -22.220  1.00  0.00    -0.359 OA
HETATM   13  H20         0      27.851  57.818 -23.146  1.00  0.00     0.218 HD
ENDBRANCH  10  12
BRANCH   4  14
HETATM   14  C5          0      23.103  55.200 -18.720  1.00  0.00     0.025 C 
HETATM   15  C6          0      21.773  54.968 -19.038  1.00  0.00     0.004 C 
HETATM   16  C7          0      21.085  54.025 -18.282  1.00  0.00     0.026 C 
HETATM   17  C8          0      21.656  53.430 -17.162  1.00  0.00     0.112 C 
HETATM   18  C10         0      22.680  54.161 -16.576  1.00  0.00     0.112 C 
HETATM   19  C12         0      23.409  55.035 -17.375  1.00  0.00     0.028 C 
BRANCH  17  20
HETATM   20  O9          0      21.350  52.125 -16.818  1.00  0.00    -0.357 OA
HETATM   21  H9          0      20.908  51.516 -17.399  1.00  0.00     0.218 HD
ENDBRANCH  17  20
BRANCH  18  22
HETATM   22  O11         0      23.156  53.709 -15.353  1.00  0.00    -0.357 OA
HETATM   23  H11         0      22.544  53.713 -14.626  1.00  0.00     0.218 HD
ENDBRANCH  18  22
ENDBRANCH   4  14
BRANCH   8  24
HETATM   24  O17         0      29.838  55.124 -19.110  1.00  0.00    -0.359 OA
HETATM   25  H17         0      30.289  54.315 -18.902  1.00  0.00     0.218 HD
ENDBRANCH   8  24
TORSDOF 5
ENDMDL
