MODEL 1
REMARK VINA RESULT:      -6.0      0.000      0.000
REMARK  5 active torsions:
REMARK  status: ('A' for Active; 'I' for Inactive)
REMARK    1  A    between atoms: C4_4  and  C5_5 
REMARK    2  A    between atoms: C8_8  and  O9_9 
REMARK    3  A    between atoms: C10_11  and  O11_12 
REMARK    4  A    between atoms: C16_18  and  O17_19 
REMARK    5  A    between atoms: C19_22  and  O20_23 
ROOT
HETATM    1  O1          0      73.860  43.759  38.596  1.00  0.00    -0.286 OA
HETATM    2  C2          0      73.769  44.907  39.112  1.00  0.00     0.201 C 
HETATM    3  C3          0      73.930  45.135  40.468  1.00  0.00     0.067 C 
HETATM    4  C4          0      73.724  46.392  41.025  1.00  0.00     0.103 C 
HETATM    5  O13         0      73.384  47.391  40.229  1.00  0.00    -0.307 OA
HETATM    6  C14         0      73.181  47.221  38.941  1.00  0.00     0.107 C 
HETATM    7  C15         0      72.455  48.133  38.188  1.00  0.00     0.049 C 
HETATM    8  C16         0      72.028  47.829  36.901  1.00  0.00     0.093 C 
HETATM    9  C18         0      72.781  46.862  36.246  1.00  0.00     0.048 C 
HETATM   10  C19         0      73.555  45.963  36.966  1.00  0.00     0.096 C 
HETATM   11  C21         0      73.591  46.040  38.332  1.00  0.00     0.084 C 
ENDROOT
BRANCH  10  12
HETATM   12  O20         0      73.940  44.766  36.370  1.00  0.00    -0.359 OA
HETATM   13  H20         0      74.757  44.752  35.886  1.00  0.00     0.218 HD
ENDBRANCH  10  12
BRANCH   4  14
HETATM   14  C5          0      73.321  46.444  42.431  1.00  0.00     0.025 C 
HETATM   15  C6          0      74.205  46.749  43.456  1.00  0.00     0.004 C 
HETATM   16  C7          0      73.732  47.533  44.503  1.00  0.00     0.026 C 
HETATM   17  C8          0      72.391  47.891  44.599  1.00  0.00     0.112 C 
HETATM   18  C10         0      71.517  47.048  43.926  1.00  0.00     0.112 C 
HETATM   19  C12         0      71.994  46.340  42.830  1.00  0.00     0.028 C 
BRANCH  17  20
HETATM   20  O9          0      72.020  49.107  45.144  1.00  0.00    -0.357 OA
HETATM   21  H9          0      72.105  49.937  44.690  1.00  0.00     0.218 HD
ENDBRANCH  17  20
BRANCH  18  22
HETATM   22  O11         0      70.161  47.247  44.143  1.00  0.00    -0.357 OA
HETATM   23  H11         0      69.672  47.669  43.446  1.00  0.00     0.218 HD
ENDBRANCH  18  22
ENDBRANCH   4  14
BRANCH   8  24
HETATM   24  O17         0      70.762  48.210  36.445  1.00  0.00    -0.359 OA
HETATM   25  H17         0      70.302  48.956  36.812  1.00  0.00     0.218 HD
ENDBRANCH   8  24
TORSDOF 5
ENDMDL
MODEL 2
REMARK VINA RESULT:      -6.0      4.502      7.114
REMARK  5 active torsions:
REMARK  status: ('A' for Active; 'I' for Inactive)
REMARK    1  A    between atoms: C4_4  and  C5_5 
REMARK    2  A    between atoms: C8_8  and  O9_9 
REMARK    3  A    between atoms: C10_11  and  O11_12 
REMARK    4  A    between atoms: C16_18  and  O17_19 
REMARK    5  A    between atoms: C19_22  and  O20_23 
ROOT
HETATM    1  O1          0      77.719  49.585  35.313  1.00  0.00    -0.286 OA
HETATM    2  C2          0      76.572  49.493  34.796  1.00  0.00     0.201 C 
HETATM    3  C3          0      75.407  49.698  35.515  1.00  0.00     0.067 C 
HETATM    4  C4          0      74.155  49.491  34.947  1.00  0.00     0.103 C 
HETATM    5  O13         0      74.086  49.108  33.684  1.00  0.00    -0.307 OA
HETATM    6  C14         0      75.161  48.863  32.968  1.00  0.00     0.107 C 
HETATM    7  C15         0      75.111  48.098  31.813  1.00  0.00     0.049 C 
HETATM    8  C16         0      76.271  47.631  31.205  1.00  0.00     0.093 C 
HETATM    9  C18         0      77.414  48.376  31.471  1.00  0.00     0.048 C 
HETATM   10  C19         0      77.480  49.189  32.594  1.00  0.00     0.096 C 
HETATM   11  C21         0      76.405  49.271  33.438  1.00  0.00     0.084 C 
ENDROOT
BRANCH  10  12
HETATM   12  O20         0      78.724  49.573  33.084  1.00  0.00    -0.359 OA
HETATM   13  H20         0      79.175  48.976  33.670  1.00  0.00     0.218 HD
ENDBRANCH  10  12
BRANCH   4  14
HETATM   14  C5          0      73.060  49.136  35.852  1.00  0.00     0.025 C 
HETATM   15  C6          0      71.904  48.500  35.421  1.00  0.00     0.004 C 
HETATM   16  C7          0      71.351  47.534  36.255  1.00  0.00     0.026 C 
HETATM   17  C8          0      71.849  47.301  37.533  1.00  0.00     0.112 C 
HETATM   18  C10         0      72.543  48.368  38.088  1.00  0.00     0.112 C 
HETATM   19  C12         0      73.159  49.273  37.230  1.00  0.00     0.028 C 
BRANCH  17  20
HETATM   20  O9          0      71.821  46.033  38.084  1.00  0.00    -0.357 OA
HETATM   21  H9          0      71.069  45.670  38.537  1.00  0.00     0.218 HD
ENDBRANCH  17  20
BRANCH  18  22
HETATM   22  O11         0      72.897  48.261  39.425  1.00  0.00    -0.357 OA
HETATM   23  H11         0      73.825  48.234  39.624  1.00  0.00     0.218 HD
ENDBRANCH  18  22
ENDBRANCH   4  14
BRANCH   8  24
HETATM   24  O17         0      76.343  46.344  30.662  1.00  0.00    -0.359 OA
HETATM   25  H17         0      76.043  46.157  29.780  1.00  0.00     0.218 HD
ENDBRANCH   8  24
TORSDOF 5
ENDMDL
MODEL 3
REMARK VINA RESULT:      -5.9     14.040     15.735
REMARK  5 active torsions:
REMARK  status: ('A' for Active; 'I' for Inactive)
REMARK    1  A    between atoms: C4_4  and  C5_5 
REMARK    2  A    between atoms: C8_8  and  O9_9 
REMARK    3  A    between atoms: C10_11  and  O11_12 
REMARK    4  A    between atoms: C16_18  and  O17_19 
REMARK    5  A    between atoms: C19_22  and  O20_23 
ROOT
HETATM    1  O1          0      62.139  37.890  39.568  1.00  0.00    -0.286 OA
HETATM    2  C2          0      62.133  37.349  38.428  1.00  0.00     0.201 C 
HETATM    3  C3          0      62.924  36.257  38.112  1.00  0.00     0.067 C 
HETATM    4  C4          0      62.975  35.744  36.821  1.00  0.00     0.103 C 
HETATM    5  O13         0      62.230  36.306  35.885  1.00  0.00    -0.307 OA
HETATM    6  C14         0      61.491  37.367  36.123  1.00  0.00     0.107 C 
HETATM    7  C15         0      61.037  38.187  35.100  1.00  0.00     0.049 C 
HETATM    8  C16         0      60.480  39.432  35.366  1.00  0.00     0.093 C 
HETATM    9  C18         0      59.929  39.569  36.634  1.00  0.00     0.048 C 
HETATM   10  C19         0      60.326  38.735  37.670  1.00  0.00     0.096 C 
HETATM   11  C21         0      61.255  37.758  37.437  1.00  0.00     0.084 C 
ENDROOT
BRANCH  10  12
HETATM   12  O20         0      60.120  39.138  38.986  1.00  0.00    -0.359 OA
HETATM   13  H20         0      60.624  38.710  39.667  1.00  0.00     0.218 HD
ENDBRANCH  10  12
BRANCH   4  14
HETATM   14  C5          0      64.201  35.050  36.423  1.00  0.00     0.025 C 
HETATM   15  C6          0      64.260  33.677  36.235  1.00  0.00     0.004 C 
HETATM   16  C7          0      65.041  33.203  35.186  1.00  0.00     0.026 C 
HETATM   17  C8          0      65.844  34.053  34.432  1.00  0.00     0.112 C 
HETATM   18  C10         0      66.200  35.232  35.072  1.00  0.00     0.112 C 
HETATM   19  C12         0      65.356  35.729  36.059  1.00  0.00     0.028 C 
BRANCH  17  20
HETATM   20  O9          0      66.069  33.809  33.089  1.00  0.00    -0.357 OA
HETATM   21  H9          0      66.620  33.105  32.766  1.00  0.00     0.218 HD
ENDBRANCH  17  20
BRANCH  18  22
HETATM   22  O11         0      67.148  36.026  34.444  1.00  0.00    -0.357 OA
HETATM   23  H11         0      67.792  35.582  33.905  1.00  0.00     0.218 HD
ENDBRANCH  18  22
ENDBRANCH   4  14
BRANCH   8  24
HETATM   24  O17         0      60.755  40.542  34.559  1.00  0.00    -0.359 OA
HETATM   25  H17         0      60.859  41.412  34.926  1.00  0.00     0.218 HD
ENDBRANCH   8  24
TORSDOF 5
ENDMDL
MODEL 4
REMARK VINA RESULT:      -5.7     14.487     15.982
REMARK  5 active torsions:
REMARK  status: ('A' for Active; 'I' for Inactive)
REMARK    1  A    between atoms: C4_4  and  C5_5 
REMARK    2  A    between atoms: C8_8  and  O9_9 
REMARK    3  A    between atoms: C10_11  and  O11_12 
REMARK    4  A    between atoms: C16_18  and  O17_19 
REMARK    5  A    between atoms: C19_22  and  O20_23 
ROOT
HETATM    1  O1          0      63.991  30.978  33.725  1.00  0.00    -0.286 OA
HETATM    2  C2          0      64.838  31.804  34.163  1.00  0.00     0.201 C 
HETATM    3  C3          0      64.614  32.587  35.283  1.00  0.00     0.067 C 
HETATM    4  C4          0      65.520  33.561  35.684  1.00  0.00     0.103 C 
HETATM    5  O13         0      66.630  33.722  34.985  1.00  0.00    -0.307 OA
HETATM    6  C14         0      66.875  33.032  33.894  1.00  0.00     0.107 C 
HETATM    7  C15         0      67.805  33.454  32.954  1.00  0.00     0.049 C 
HETATM    8  C16         0      67.878  32.868  31.697  1.00  0.00     0.093 C 
HETATM    9  C18         0      67.391  31.568  31.626  1.00  0.00     0.048 C 
HETATM   10  C19         0      66.495  31.098  32.576  1.00  0.00     0.096 C 
HETATM   11  C21         0      66.101  31.914  33.600  1.00  0.00     0.084 C 
ENDROOT
BRANCH  10  12
HETATM   12  O20         0      65.697  29.999  32.273  1.00  0.00    -0.359 OA
HETATM   13  H20         0      66.125  29.164  32.128  1.00  0.00     0.218 HD
ENDBRANCH  10  12
BRANCH   4  14
HETATM   14  C5          0      64.990  34.699  36.438  1.00  0.00     0.025 C 
HETATM   15  C6          0      63.811  34.635  37.165  1.00  0.00     0.004 C 
HETATM   16  C7          0      63.768  35.306  38.384  1.00  0.00     0.026 C 
HETATM   17  C8          0      64.812  36.122  38.804  1.00  0.00     0.112 C 
HETATM   18  C10         0      65.612  36.613  37.781  1.00  0.00     0.112 C 
HETATM   19  C12         0      65.704  35.879  36.604  1.00  0.00     0.028 C 
BRANCH  17  20
HETATM   20  O9          0      65.124  36.239  40.147  1.00  0.00    -0.357 OA
HETATM   21  H9          0      64.706  36.858  40.734  1.00  0.00     0.218 HD
ENDBRANCH  17  20
BRANCH  18  22
HETATM   22  O11         0      66.548  37.579  38.123  1.00  0.00    -0.357 OA
HETATM   23  H11         0      66.697  38.275  37.494  1.00  0.00     0.218 HD
ENDBRANCH  18  22
ENDBRANCH   4  14
BRANCH   8  24
HETATM   24  O17         0      68.100  33.634  30.547  1.00  0.00    -0.359 OA
HETATM   25  H17         0      68.193  33.234  29.691  1.00  0.00     0.218 HD
ENDBRANCH   8  24
TORSDOF 5
ENDMDL
MODEL 5
REMARK VINA RESULT:      -5.7     12.738     13.978
REMARK  5 active torsions:
REMARK  status: ('A' for Active; 'I' for Inactive)
REMARK    1  A    between atoms: C4_4  and  C5_5 
REMARK    2  A    between atoms: C8_8  and  O9_9 
REMARK    3  A    between atoms: C10_11  and  O11_12 
REMARK    4  A    between atoms: C16_18  and  O17_19 
REMARK    5  A    between atoms: C19_22  and  O20_23 
ROOT
HETATM    1  O1          0      64.897  34.786  33.923  1.00  0.00    -0.286 OA
HETATM    2  C2          0      65.027  35.158  35.121  1.00  0.00     0.201 C 
HETATM    3  C3          0      63.956  35.279  35.990  1.00  0.00     0.067 C 
HETATM    4  C4          0      64.113  35.789  37.274  1.00  0.00     0.103 C 
HETATM    5  O13         0      65.322  36.144  37.672  1.00  0.00    -0.307 OA
HETATM    6  C14         0      66.367  36.085  36.875  1.00  0.00     0.107 C 
HETATM    7  C15         0      67.523  36.808  37.130  1.00  0.00     0.049 C 
HETATM    8  C16         0      68.516  36.943  36.167  1.00  0.00     0.093 C 
HETATM    9  C18         0      68.549  35.935  35.211  1.00  0.00     0.048 C 
HETATM   10  C19         0      67.423  35.161  34.964  1.00  0.00     0.096 C 
HETATM   11  C21         0      66.277  35.381  35.679  1.00  0.00     0.084 C 
ENDROOT
BRANCH  10  12
HETATM   12  O20         0      67.317  34.481  33.754  1.00  0.00    -0.359 OA
HETATM   13  H20         0      67.533  34.952  32.959  1.00  0.00     0.218 HD
ENDBRANCH  10  12
BRANCH   4  14
HETATM   14  C5          0      62.951  36.438  37.884  1.00  0.00     0.025 C 
HETATM   15  C6          0      62.985  37.006  39.149  1.00  0.00     0.004 C 
HETATM   16  C7          0      62.283  38.190  39.343  1.00  0.00     0.026 C 
HETATM   17  C8          0      61.464  38.724  38.353  1.00  0.00     0.112 C 
HETATM   18  C10         0      61.008  37.802  37.420  1.00  0.00     0.112 C 
HETATM   19  C12         0      61.774  36.667  37.184  1.00  0.00     0.028 C 
BRANCH  17  20
HETATM   20  O9          0      61.315  40.092  38.218  1.00  0.00    -0.357 OA
HETATM   21  H9          0      61.816  40.621  37.608  1.00  0.00     0.218 HD
ENDBRANCH  17  20
BRANCH  18  22
HETATM   22  O11         0      60.042  38.240  36.525  1.00  0.00    -0.357 OA
HETATM   23  H11         0      59.601  39.056  36.733  1.00  0.00     0.218 HD
ENDBRANCH  18  22
ENDBRANCH   4  14
BRANCH   8  24
HETATM   24  O17         0      69.192  38.154  35.982  1.00  0.00    -0.359 OA
HETATM   25  H17         0      68.755  38.922  35.633  1.00  0.00     0.218 HD
ENDBRANCH   8  24
TORSDOF 5
ENDMDL
MODEL 6
REMARK VINA RESULT:      -5.7     13.697     15.061
REMARK  5 active torsions:
REMARK  status: ('A' for Active; 'I' for Inactive)
REMARK    1  A    between atoms: C4_4  and  C5_5 
REMARK    2  A    between atoms: C8_8  and  O9_9 
REMARK    3  A    between atoms: C10_11  and  O11_12 
REMARK    4  A    between atoms: C16_18  and  O17_19 
REMARK    5  A    between atoms: C19_22  and  O20_23 
ROOT
HETATM    1  O1          0      63.901  36.250  32.907  1.00  0.00    -0.286 OA
HETATM    2  C2          0      63.455  36.225  34.087  1.00  0.00     0.201 C 
HETATM    3  C3          0      62.253  36.810  34.448  1.00  0.00     0.067 C 
HETATM    4  C4          0      61.835  36.858  35.773  1.00  0.00     0.103 C 
HETATM    5  O13         0      62.602  36.312  36.701  1.00  0.00    -0.307 OA
HETATM    6  C14         0      63.769  35.777  36.417  1.00  0.00     0.107 C 
HETATM    7  C15         0      64.735  35.572  37.391  1.00  0.00     0.049 C 
HETATM    8  C16         0      66.044  35.250  37.054  1.00  0.00     0.093 C 
HETATM    9  C18         0      66.197  34.641  35.814  1.00  0.00     0.048 C 
HETATM   10  C19         0      65.228  34.787  34.832  1.00  0.00     0.096 C 
HETATM   11  C21         0      64.103  35.522  35.091  1.00  0.00     0.084 C 
ENDROOT
BRANCH  10  12
HETATM   12  O20         0      65.568  34.563  33.501  1.00  0.00    -0.359 OA
HETATM   13  H20         0      64.961  34.856  32.831  1.00  0.00     0.218 HD
ENDBRANCH  10  12
BRANCH   4  14
HETATM   14  C5          0      60.939  37.951  36.154  1.00  0.00     0.025 C 
HETATM   15  C6          0      60.468  38.122  37.447  1.00  0.00     0.004 C 
HETATM   16  C7          0      60.359  39.424  37.927  1.00  0.00     0.026 C 
HETATM   17  C8          0      60.580  40.524  37.106  1.00  0.00     0.112 C 
HETATM   18  C10         0      60.415  40.279  35.749  1.00  0.00     0.112 C 
HETATM   19  C12         0      60.614  38.984  35.284  1.00  0.00     0.028 C 
BRANCH  17  20
HETATM   20  O9          0      61.125  41.690  37.615  1.00  0.00    -0.357 OA
HETATM   21  H9          0      61.172  42.506  37.130  1.00  0.00     0.218 HD
ENDBRANCH  17  20
BRANCH  18  22
HETATM   22  O11         0      60.438  41.379  34.904  1.00  0.00    -0.357 OA
HETATM   23  H11         0      60.793  42.186  35.258  1.00  0.00     0.218 HD
ENDBRANCH  18  22
ENDBRANCH   4  14
BRANCH   8  24
HETATM   24  O17         0      67.131  35.798  37.744  1.00  0.00    -0.359 OA
HETATM   25  H17         0      67.983  35.377  37.748  1.00  0.00     0.218 HD
ENDBRANCH   8  24
TORSDOF 5
ENDMDL
MODEL 7
REMARK VINA RESULT:      -5.6      2.504      3.297
REMARK  5 active torsions:
REMARK  status: ('A' for Active; 'I' for Inactive)
REMARK    1  A    between atoms: C4_4  and  C5_5 
REMARK    2  A    between atoms: C8_8  and  O9_9 
REMARK    3  A    between atoms: C10_11  and  O11_12 
REMARK    4  A    between atoms: C16_18  and  O17_19 
REMARK    5  A    between atoms: C19_22  and  O20_23 
ROOT
HETATM    1  O1          0      76.193  46.555  38.334  1.00  0.00    -0.286 OA
HETATM    2  C2          0      75.119  46.945  38.867  1.00  0.00     0.201 C 
HETATM    3  C3          0      74.597  46.370  40.013  1.00  0.00     0.067 C 
HETATM    4  C4          0      73.360  46.750  40.521  1.00  0.00     0.103 C 
HETATM    5  O13         0      72.683  47.700  39.898  1.00  0.00    -0.307 OA
HETATM    6  C14         0      73.115  48.252  38.786  1.00  0.00     0.107 C 
HETATM    7  C15         0      72.263  48.933  37.929  1.00  0.00     0.049 C 
HETATM    8  C16         0      72.664  49.290  36.647  1.00  0.00     0.093 C 
HETATM    9  C18         0      74.037  49.419  36.475  1.00  0.00     0.048 C 
HETATM   10  C19         0      74.918  48.790  37.344  1.00  0.00     0.096 C 
HETATM   11  C21         0      74.432  48.050  38.387  1.00  0.00     0.084 C 
ENDROOT
BRANCH  10  12
HETATM   12  O20         0      76.228  48.558  36.934  1.00  0.00    -0.359 OA
HETATM   13  H20         0      76.422  47.730  36.511  1.00  0.00     0.218 HD
ENDBRANCH  10  12
BRANCH   4  14
HETATM   14  C5          0      72.622  45.757  41.303  1.00  0.00     0.025 C 
HETATM   15  C6          0      71.958  46.069  42.480  1.00  0.00     0.004 C 
HETATM   16  C7          0      70.736  45.446  42.716  1.00  0.00     0.026 C 
HETATM   17  C8          0      70.254  44.447  41.878  1.00  0.00     0.112 C 
HETATM   18  C10         0      71.229  43.785  41.143  1.00  0.00     0.112 C 
HETATM   19  C12         0      72.407  44.462  40.849  1.00  0.00     0.028 C 
BRANCH  17  20
HETATM   20  O9          0      68.896  44.298  41.661  1.00  0.00    -0.357 OA
HETATM   21  H9          0      68.492  43.485  41.378  1.00  0.00     0.218 HD
ENDBRANCH  17  20
BRANCH  18  22
HETATM   22  O11         0      70.829  42.660  40.437  1.00  0.00    -0.357 OA
HETATM   23  H11         0      70.730  42.754  39.497  1.00  0.00     0.218 HD
ENDBRANCH  18  22
ENDBRANCH   4  14
BRANCH   8  24
HETATM   24  O17         0      71.792  49.191  35.556  1.00  0.00    -0.359 OA
HETATM   25  H17         0      71.967  49.637  34.736  1.00  0.00     0.218 HD
ENDBRANCH   8  24
TORSDOF 5
ENDMDL
MODEL 8
REMARK VINA RESULT:      -5.5     14.999     15.967
REMARK  5 active torsions:
REMARK  status: ('A' for Active; 'I' for Inactive)
REMARK    1  A    between atoms: C4_4  and  C5_5 
REMARK    2  A    between atoms: C8_8  and  O9_9 
REMARK    3  A    between atoms: C10_11  and  O11_12 
REMARK    4  A    between atoms: C16_18  and  O17_19 
REMARK    5  A    between atoms: C19_22  and  O20_23 
ROOT
HETATM    1  O1          0      65.377  33.458  38.401  1.00  0.00    -0.286 OA
HETATM    2  C2          0      65.027  34.057  37.347  1.00  0.00     0.201 C 
HETATM    3  C3          0      64.125  35.107  37.345  1.00  0.00     0.067 C 
HETATM    4  C4          0      63.678  35.681  36.160  1.00  0.00     0.103 C 
HETATM    5  O13         0      64.148  35.220  35.015  1.00  0.00    -0.307 OA
HETATM    6  C14         0      64.978  34.202  34.959  1.00  0.00     0.107 C 
HETATM    7  C15         0      65.158  33.469  33.795  1.00  0.00     0.049 C 
HETATM    8  C16         0      65.830  32.253  33.805  1.00  0.00     0.093 C 
HETATM    9  C18         0      66.730  32.088  34.851  1.00  0.00     0.048 C 
HETATM   10  C19         0      66.607  32.838  36.012  1.00  0.00     0.096 C 
HETATM   11  C21         0      65.602  33.761  36.121  1.00  0.00     0.084 C 
ENDROOT
BRANCH  10  12
HETATM   12  O20         0      67.204  32.383  37.183  1.00  0.00    -0.359 OA
HETATM   13  H20         0      67.461  33.027  37.832  1.00  0.00     0.218 HD
ENDBRANCH  10  12
BRANCH   4  14
HETATM   14  C5          0      62.356  36.310  36.178  1.00  0.00     0.025 C 
HETATM   15  C6          0      61.567  36.371  37.317  1.00  0.00     0.004 C 
HETATM   16  C7          0      60.834  37.534  37.533  1.00  0.00     0.026 C 
HETATM   17  C8          0      60.781  38.549  36.583  1.00  0.00     0.112 C 
HETATM   18  C10         0      61.052  38.142  35.284  1.00  0.00     0.112 C 
HETATM   19  C12         0      61.858  37.025  35.096  1.00  0.00     0.028 C 
BRANCH  17  20
HETATM   20  O9          0      60.675  39.874  36.967  1.00  0.00    -0.357 OA
HETATM   21  H9          0      59.903  40.407  36.816  1.00  0.00     0.218 HD
ENDBRANCH  17  20
BRANCH  18  22
HETATM   22  O11         0      60.828  39.068  34.276  1.00  0.00    -0.357 OA
HETATM   23  H11         0      60.997  38.784  33.385  1.00  0.00     0.218 HD
ENDBRANCH  18  22
ENDBRANCH   4  14
BRANCH   8  24
HETATM   24  O17         0      65.391  31.170  33.035  1.00  0.00    -0.359 OA
HETATM   25  H17         0      64.546  30.762  33.184  1.00  0.00     0.218 HD
ENDBRANCH   8  24
TORSDOF 5
ENDMDL
MODEL 9
REMARK VINA RESULT:      -5.4     15.213     17.776
REMARK  5 active torsions:
REMARK  status: ('A' for Active; 'I' for Inactive)
REMARK    1  A    between atoms: C4_4  and  C5_5 
REMARK    2  A    between atoms: C8_8  and  O9_9 
REMARK    3  A    between atoms: C10_11  and  O11_12 
REMARK    4  A    between atoms: C16_18  and  O17_19 
REMARK    5  A    between atoms: C19_22  and  O20_23 
ROOT
HETATM    1  O1          0      63.625  32.088  36.181  1.00  0.00    -0.286 OA
HETATM    2  C2          0      64.454  32.457  35.303  1.00  0.00     0.201 C 
HETATM    3  C3          0      64.977  31.594  34.356  1.00  0.00     0.067 C 
HETATM    4  C4          0      65.965  32.001  33.466  1.00  0.00     0.103 C 
HETATM    5  O13         0      66.393  33.249  33.521  1.00  0.00    -0.307 OA
HETATM    6  C14         0      65.957  34.099  34.426  1.00  0.00     0.107 C 
HETATM    7  C15         0      66.663  35.249  34.749  1.00  0.00     0.049 C 
HETATM    8  C16         0      66.338  36.004  35.869  1.00  0.00     0.093 C 
HETATM    9  C18         0      65.024  35.875  36.303  1.00  0.00     0.048 C 
HETATM   10  C19         0      64.274  34.759  35.959  1.00  0.00     0.096 C 
HETATM   11  C21         0      64.826  33.786  35.172  1.00  0.00     0.084 C 
ENDROOT
BRANCH  10  12
HETATM   12  O20         0      63.160  34.426  36.723  1.00  0.00    -0.359 OA
HETATM   13  H20         0      62.514  35.103  36.888  1.00  0.00     0.218 HD
ENDBRANCH  10  12
BRANCH   4  14
HETATM   14  C5          0      66.864  30.969  32.946  1.00  0.00     0.025 C 
HETATM   15  C6          0      66.626  30.292  31.759  1.00  0.00     0.004 C 
HETATM   16  C7          0      67.721  30.003  30.951  1.00  0.00     0.026 C 
HETATM   17  C8          0      69.023  30.256  31.369  1.00  0.00     0.112 C 
HETATM   18  C10         0      69.187  30.322  32.746  1.00  0.00     0.112 C 
HETATM   19  C12         0      68.098  30.697  33.524  1.00  0.00     0.028 C 
BRANCH  17  20
HETATM   20  O9          0      70.002  30.617  30.460  1.00  0.00    -0.357 OA
HETATM   21  H9          0      70.160  31.513  30.184  1.00  0.00     0.218 HD
ENDBRANCH  17  20
BRANCH  18  22
HETATM   22  O11         0      70.490  30.384  33.222  1.00  0.00    -0.357 OA
HETATM   23  H11         0      70.626  30.838  34.045  1.00  0.00     0.218 HD
ENDBRANCH  18  22
ENDBRANCH   4  14
BRANCH   8  24
HETATM   24  O17         0      67.329  36.568  36.681  1.00  0.00    -0.359 OA
HETATM   25  H17         0      68.253  36.460  36.489  1.00  0.00     0.218 HD
ENDBRANCH   8  24
TORSDOF 5
ENDMDL
