MODEL 1
REMARK VINA RESULT:      -5.3      0.000      0.000
REMARK  5 active torsions:
REMARK  status: ('A' for Active; 'I' for Inactive)
REMARK    1  A    between atoms: C4_4  and  C5_5 
REMARK    2  A    between atoms: C8_8  and  O9_9 
REMARK    3  A    between atoms: C10_11  and  O11_12 
REMARK    4  A    between atoms: C16_18  and  O17_19 
REMARK    5  A    between atoms: C19_22  and  O20_23 
ROOT
HETATM    1  O1          0      67.963   9.202   8.178  1.00  0.00    -0.286 OA
HETATM    2  C2          0      68.902   9.751   7.539  1.00  0.00     0.201 C 
HETATM    3  C3          0      69.230  11.088   7.688  1.00  0.00     0.067 C 
HETATM    4  C4          0      70.202  11.692   6.898  1.00  0.00     0.103 C 
HETATM    5  O13         0      70.836  10.959   6.000  1.00  0.00    -0.307 OA
HETATM    6  C14         0      70.538   9.695   5.793  1.00  0.00     0.107 C 
HETATM    7  C15         0      70.894   9.043   4.621  1.00  0.00     0.049 C 
HETATM    8  C16         0      70.363   7.800   4.297  1.00  0.00     0.093 C 
HETATM    9  C18         0      69.925   7.048   5.381  1.00  0.00     0.048 C 
HETATM   10  C19         0      69.604   7.664   6.583  1.00  0.00     0.096 C 
HETATM   11  C21         0      69.737   9.020   6.708  1.00  0.00     0.084 C 
ENDROOT
BRANCH  10  12
HETATM   12  O20         0      68.777   7.003   7.486  1.00  0.00    -0.359 OA
HETATM   13  H20         0      68.949   7.118   8.413  1.00  0.00     0.218 HD
ENDBRANCH  10  12
BRANCH   4  14
HETATM   14  C5          0      70.080  13.134   6.672  1.00  0.00     0.025 C 
HETATM   15  C6          0      71.174  13.950   6.423  1.00  0.00     0.004 C 
HETATM   16  C7          0      71.016  14.973   5.494  1.00  0.00     0.026 C 
HETATM   17  C8          0      69.778  15.261   4.929  1.00  0.00     0.112 C 
HETATM   18  C10         0      68.687  14.845   5.681  1.00  0.00     0.112 C 
HETATM   19  C12         0      68.851  13.765   6.540  1.00  0.00     0.028 C 
BRANCH  17  20
HETATM   20  O9          0      69.683  15.729   3.631  1.00  0.00    -0.357 OA
HETATM   21  H9          0      68.907  16.149   3.276  1.00  0.00     0.218 HD
ENDBRANCH  17  20
BRANCH  18  22
HETATM   22  O11         0      67.435  15.271   5.261  1.00  0.00    -0.357 OA
HETATM   23  H11         0      67.131  14.950   4.420  1.00  0.00     0.218 HD
ENDBRANCH  18  22
ENDBRANCH   4  14
BRANCH   8  24
HETATM   24  O17         0      69.993   7.485   2.985  1.00  0.00    -0.359 OA
HETATM   25  H17         0      70.157   8.080   2.263  1.00  0.00     0.218 HD
ENDBRANCH   8  24
TORSDOF 5
ENDMDL
MODEL 2
REMARK VINA RESULT:      -5.2      6.918     10.334
REMARK  5 active torsions:
REMARK  status: ('A' for Active; 'I' for Inactive)
REMARK    1  A    between atoms: C4_4  and  C5_5 
REMARK    2  A    between atoms: C8_8  and  O9_9 
REMARK    3  A    between atoms: C10_11  and  O11_12 
REMARK    4  A    between atoms: C16_18  and  O17_19 
REMARK    5  A    between atoms: C19_22  and  O20_23 
ROOT
HETATM    1  O1          0      67.306   3.868  -0.138  1.00  0.00    -0.286 OA
HETATM    2  C2          0      66.810   3.973   1.018  1.00  0.00     0.201 C 
HETATM    3  C3          0      65.489   3.670   1.298  1.00  0.00     0.067 C 
HETATM    4  C4          0      64.941   3.891   2.556  1.00  0.00     0.103 C 
HETATM    5  O13         0      65.714   4.386   3.507  1.00  0.00    -0.307 OA
HETATM    6  C14         0      66.965   4.727   3.284  1.00  0.00     0.107 C 
HETATM    7  C15         0      67.647   5.593   4.126  1.00  0.00     0.049 C 
HETATM    8  C16         0      68.867   6.147   3.756  1.00  0.00     0.093 C 
HETATM    9  C18         0      69.584   5.415   2.818  1.00  0.00     0.048 C 
HETATM   10  C19         0      68.939   4.504   1.991  1.00  0.00     0.096 C 
HETATM   11  C21         0      67.590   4.314   2.112  1.00  0.00     0.084 C 
ENDROOT
BRANCH  10  12
HETATM   12  O20         0      69.549   4.114   0.803  1.00  0.00    -0.359 OA
HETATM   13  H20         0      69.846   4.795   0.211  1.00  0.00     0.218 HD
ENDBRANCH  10  12
BRANCH   4  14
HETATM   14  C5          0      63.498   4.130   2.626  1.00  0.00     0.025 C 
HETATM   15  C6          0      62.915   5.329   2.245  1.00  0.00     0.004 C 
HETATM   16  C7          0      61.692   5.270   1.584  1.00  0.00     0.026 C 
HETATM   17  C8          0      61.006   4.071   1.425  1.00  0.00     0.112 C 
HETATM   18  C10         0      61.330   3.090   2.353  1.00  0.00     0.112 C 
HETATM   19  C12         0      62.592   3.124   2.936  1.00  0.00     0.028 C 
BRANCH  17  20
HETATM   20  O9          0      60.235   3.839   0.300  1.00  0.00    -0.357 OA
HETATM   21  H9          0      59.355   4.181   0.183  1.00  0.00     0.218 HD
ENDBRANCH  17  20
BRANCH  18  22
HETATM   22  O11         0      60.545   1.946   2.359  1.00  0.00    -0.357 OA
HETATM   23  H11         0      60.201   1.665   3.199  1.00  0.00     0.218 HD
ENDBRANCH  18  22
ENDBRANCH   4  14
BRANCH   8  24
HETATM   24  O17         0      69.179   7.481   4.043  1.00  0.00    -0.359 OA
HETATM   25  H17         0      68.586   8.038   4.534  1.00  0.00     0.218 HD
ENDBRANCH   8  24
TORSDOF 5
ENDMDL
MODEL 3
REMARK VINA RESULT:      -5.1      2.207      7.105
REMARK  5 active torsions:
REMARK  status: ('A' for Active; 'I' for Inactive)
REMARK    1  A    between atoms: C4_4  and  C5_5 
REMARK    2  A    between atoms: C8_8  and  O9_9 
REMARK    3  A    between atoms: C10_11  and  O11_12 
REMARK    4  A    between atoms: C16_18  and  O17_19 
REMARK    5  A    between atoms: C19_22  and  O20_23 
ROOT
HETATM    1  O1          0      67.500  16.331   5.841  1.00  0.00    -0.286 OA
HETATM    2  C2          0      68.498  15.579   5.666  1.00  0.00     0.201 C 
HETATM    3  C3          0      68.565  14.291   6.169  1.00  0.00     0.067 C 
HETATM    4  C4          0      69.716  13.521   6.049  1.00  0.00     0.103 C 
HETATM    5  O13         0      70.760  14.033   5.421  1.00  0.00    -0.307 OA
HETATM    6  C14         0      70.763  15.264   4.958  1.00  0.00     0.107 C 
HETATM    7  C15         0      71.943  15.934   4.669  1.00  0.00     0.049 C 
HETATM    8  C16         0      71.955  17.302   4.428  1.00  0.00     0.093 C 
HETATM    9  C18         0      70.753  17.829   3.972  1.00  0.00     0.048 C 
HETATM   10  C19         0      69.558  17.161   4.203  1.00  0.00     0.096 C 
HETATM   11  C21         0      69.566  15.966   4.870  1.00  0.00     0.084 C 
ENDROOT
BRANCH  10  12
HETATM   12  O20         0      68.361  17.869   4.147  1.00  0.00    -0.359 OA
HETATM   13  H20         0      68.370  18.780   4.413  1.00  0.00     0.218 HD
ENDBRANCH  10  12
BRANCH   4  14
HETATM   14  C5          0      69.941  12.490   7.064  1.00  0.00     0.025 C 
HETATM   15  C6          0      68.934  12.024   7.898  1.00  0.00     0.004 C 
HETATM   16  C7          0      68.924  10.666   8.199  1.00  0.00     0.026 C 
HETATM   17  C8          0      69.953   9.821   7.796  1.00  0.00     0.112 C 
HETATM   18  C10         0      71.162  10.458   7.549  1.00  0.00     0.112 C 
HETATM   19  C12         0      71.138  11.794   7.167  1.00  0.00     0.028 C 
BRANCH  17  20
HETATM   20  O9          0      69.701   8.500   7.474  1.00  0.00    -0.357 OA
HETATM   21  H9          0      70.165   7.765   7.858  1.00  0.00     0.218 HD
ENDBRANCH  17  20
BRANCH  18  22
HETATM   22  O11         0      72.266   9.647   7.329  1.00  0.00    -0.357 OA
HETATM   23  H11         0      72.959   9.678   7.979  1.00  0.00     0.218 HD
ENDBRANCH  18  22
ENDBRANCH   4  14
BRANCH   8  24
HETATM   24  O17         0      72.977  18.121   4.923  1.00  0.00    -0.359 OA
HETATM   25  H17         0      73.615  18.525   4.347  1.00  0.00     0.218 HD
ENDBRANCH   8  24
TORSDOF 5
ENDMDL
MODEL 4
REMARK VINA RESULT:      -5.1      8.161     10.987
REMARK  5 active torsions:
REMARK  status: ('A' for Active; 'I' for Inactive)
REMARK    1  A    between atoms: C4_4  and  C5_5 
REMARK    2  A    between atoms: C8_8  and  O9_9 
REMARK    3  A    between atoms: C10_11  and  O11_12 
REMARK    4  A    between atoms: C16_18  and  O17_19 
REMARK    5  A    between atoms: C19_22  and  O20_23 
ROOT
HETATM    1  O1          0      62.185   6.430   0.747  1.00  0.00    -0.286 OA
HETATM    2  C2          0      62.565   5.415   1.392  1.00  0.00     0.201 C 
HETATM    3  C3          0      63.785   5.353   2.043  1.00  0.00     0.067 C 
HETATM    4  C4          0      64.224   4.187   2.659  1.00  0.00     0.103 C 
HETATM    5  O13         0      63.441   3.123   2.635  1.00  0.00    -0.307 OA
HETATM    6  C14         0      62.290   3.116   1.999  1.00  0.00     0.107 C 
HETATM    7  C15         0      61.666   1.933   1.629  1.00  0.00     0.049 C 
HETATM    8  C16         0      60.594   1.929   0.745  1.00  0.00     0.093 C 
HETATM    9  C18         0      59.875   3.117   0.688  1.00  0.00     0.048 C 
HETATM   10  C19         0      60.453   4.312   1.094  1.00  0.00     0.096 C 
HETATM   11  C21         0      61.736   4.318   1.571  1.00  0.00     0.084 C 
ENDROOT
BRANCH  10  12
HETATM   12  O20         0      59.920   5.514   0.641  1.00  0.00    -0.359 OA
HETATM   13  H20         0      59.727   5.595  -0.285  1.00  0.00     0.218 HD
ENDBRANCH  10  12
BRANCH   4  14
HETATM   14  C5          0      65.671   3.994   2.777  1.00  0.00     0.025 C 
HETATM   15  C6          0      66.389   3.156   1.936  1.00  0.00     0.004 C 
HETATM   16  C7          0      67.654   3.574   1.537  1.00  0.00     0.026 C 
HETATM   17  C8          0      68.243   4.720   2.060  1.00  0.00     0.112 C 
HETATM   18  C10         0      67.754   5.109   3.300  1.00  0.00     0.112 C 
HETATM   19  C12         0      66.454   4.750   3.639  1.00  0.00     0.028 C 
BRANCH  17  20
HETATM   20  O9          0      69.086   5.500   1.288  1.00  0.00    -0.357 OA
HETATM   21  H9          0      68.817   5.934   0.487  1.00  0.00     0.218 HD
ENDBRANCH  17  20
BRANCH  18  22
HETATM   22  O11         0      68.431   6.129   3.951  1.00  0.00    -0.357 OA
HETATM   23  H11         0      69.378   6.140   3.866  1.00  0.00     0.218 HD
ENDBRANCH  18  22
ENDBRANCH   4  14
BRANCH   8  24
HETATM   24  O17         0      60.465   0.943  -0.240  1.00  0.00    -0.359 OA
HETATM   25  H17         0      61.080   0.223  -0.308  1.00  0.00     0.218 HD
ENDBRANCH   8  24
TORSDOF 5
ENDMDL
MODEL 5
REMARK VINA RESULT:      -5.0      3.347      4.847
REMARK  5 active torsions:
REMARK  status: ('A' for Active; 'I' for Inactive)
REMARK    1  A    between atoms: C4_4  and  C5_5 
REMARK    2  A    between atoms: C8_8  and  O9_9 
REMARK    3  A    between atoms: C10_11  and  O11_12 
REMARK    4  A    between atoms: C16_18  and  O17_19 
REMARK    5  A    between atoms: C19_22  and  O20_23 
ROOT
HETATM    1  O1          0      73.722  14.043   6.694  1.00  0.00    -0.286 OA
HETATM    2  C2          0      72.516  13.798   6.413  1.00  0.00     0.201 C 
HETATM    3  C3          0      71.775  14.579   5.543  1.00  0.00     0.067 C 
HETATM    4  C4          0      70.421  14.348   5.330  1.00  0.00     0.103 C 
HETATM    5  O13         0      69.841  13.344   5.964  1.00  0.00    -0.307 OA
HETATM    6  C14         0      70.489  12.596   6.829  1.00  0.00     0.107 C 
HETATM    7  C15         0      69.824  11.827   7.773  1.00  0.00     0.049 C 
HETATM    8  C16         0      70.503  11.244   8.837  1.00  0.00     0.093 C 
HETATM    9  C18         0      71.857  11.021   8.618  1.00  0.00     0.048 C 
HETATM   10  C19         0      72.543  11.740   7.649  1.00  0.00     0.096 C 
HETATM   11  C21         0      71.877  12.665   6.891  1.00  0.00     0.084 C 
ENDROOT
BRANCH  10  12
HETATM   12  O20         0      73.929  11.837   7.728  1.00  0.00    -0.359 OA
HETATM   13  H20         0      74.447  11.212   7.235  1.00  0.00     0.218 HD
ENDBRANCH  10  12
BRANCH   4  14
HETATM   14  C5          0      69.602  15.492   4.924  1.00  0.00     0.025 C 
HETATM   15  C6          0      68.276  15.641   5.304  1.00  0.00     0.004 C 
HETATM   16  C7          0      67.834  16.924   5.612  1.00  0.00     0.026 C 
HETATM   17  C8          0      68.642  18.039   5.420  1.00  0.00     0.112 C 
HETATM   18  C10         0      69.650  17.870   4.480  1.00  0.00     0.112 C 
HETATM   19  C12         0      70.133  16.587   4.254  1.00  0.00     0.028 C 
BRANCH  17  20
HETATM   20  O9          0      68.554  19.132   6.264  1.00  0.00    -0.357 OA
HETATM   21  H9          0      67.739  19.576   6.469  1.00  0.00     0.218 HD
ENDBRANCH  17  20
BRANCH  18  22
HETATM   22  O11         0      70.363  19.002   4.113  1.00  0.00    -0.357 OA
HETATM   23  H11         0      71.308  18.967   4.211  1.00  0.00     0.218 HD
ENDBRANCH  18  22
ENDBRANCH   4  14
BRANCH   8  24
HETATM   24  O17         0      69.949  11.206  10.122  1.00  0.00    -0.359 OA
HETATM   25  H17         0      69.515  11.961  10.501  1.00  0.00     0.218 HD
ENDBRANCH   8  24
TORSDOF 5
ENDMDL
MODEL 6
REMARK VINA RESULT:      -5.0      9.568     11.336
REMARK  5 active torsions:
REMARK  status: ('A' for Active; 'I' for Inactive)
REMARK    1  A    between atoms: C4_4  and  C5_5 
REMARK    2  A    between atoms: C8_8  and  O9_9 
REMARK    3  A    between atoms: C10_11  and  O11_12 
REMARK    4  A    between atoms: C16_18  and  O17_19 
REMARK    5  A    between atoms: C19_22  and  O20_23 
ROOT
HETATM    1  O1          0      66.778   0.934  -1.839  1.00  0.00    -0.286 OA
HETATM    2  C2          0      67.043   1.914  -1.090  1.00  0.00     0.201 C 
HETATM    3  C3          0      66.345   2.178   0.076  1.00  0.00     0.067 C 
HETATM    4  C4          0      66.589   3.321   0.829  1.00  0.00     0.103 C 
HETATM    5  O13         0      67.527   4.160   0.423  1.00  0.00    -0.307 OA
HETATM    6  C14         0      68.193   3.976  -0.696  1.00  0.00     0.107 C 
HETATM    7  C15         0      68.866   5.013  -1.324  1.00  0.00     0.049 C 
HETATM    8  C16         0      69.348   4.880  -2.621  1.00  0.00     0.093 C 
HETATM    9  C18         0      69.597   3.574  -3.023  1.00  0.00     0.048 C 
HETATM   10  C19         0      68.975   2.509  -2.385  1.00  0.00     0.096 C 
HETATM   11  C21         0      68.124   2.746  -1.341  1.00  0.00     0.084 C 
ENDROOT
BRANCH  10  12
HETATM   12  O20         0      68.877   1.286  -3.042  1.00  0.00    -0.359 OA
HETATM   13  H20         0      68.221   1.197  -3.722  1.00  0.00     0.218 HD
ENDBRANCH  10  12
BRANCH   4  14
HETATM   14  C5          0      65.486   3.837   1.641  1.00  0.00     0.025 C 
HETATM   15  C6          0      64.343   4.396   1.089  1.00  0.00     0.004 C 
HETATM   16  C7          0      63.127   4.123   1.708  1.00  0.00     0.026 C 
HETATM   17  C8          0      63.062   3.430   2.912  1.00  0.00     0.112 C 
HETATM   18  C10         0      64.222   3.478   3.673  1.00  0.00     0.112 C 
HETATM   19  C12         0      65.433   3.668   3.019  1.00  0.00     0.028 C 
BRANCH  17  20
HETATM   20  O9          0      61.993   2.598   3.193  1.00  0.00    -0.357 OA
HETATM   21  H9          0      61.424   2.705   3.947  1.00  0.00     0.218 HD
ENDBRANCH  17  20
BRANCH  18  22
HETATM   22  O11         0      64.150   2.967   4.961  1.00  0.00    -0.357 OA
HETATM   23  H11         0      64.159   3.594   5.674  1.00  0.00     0.218 HD
ENDBRANCH  18  22
ENDBRANCH   4  14
BRANCH   8  24
HETATM   24  O17         0      69.263   5.930  -3.542  1.00  0.00    -0.359 OA
HETATM   25  H17         0      69.845   6.680  -3.499  1.00  0.00     0.218 HD
ENDBRANCH   8  24
TORSDOF 5
ENDMDL
MODEL 7
REMARK VINA RESULT:      -5.0      6.112      9.266
REMARK  5 active torsions:
REMARK  status: ('A' for Active; 'I' for Inactive)
REMARK    1  A    between atoms: C4_4  and  C5_5 
REMARK    2  A    between atoms: C8_8  and  O9_9 
REMARK    3  A    between atoms: C10_11  and  O11_12 
REMARK    4  A    between atoms: C16_18  and  O17_19 
REMARK    5  A    between atoms: C19_22  and  O20_23 
ROOT
HETATM    1  O1          0      74.115  16.154   2.607  1.00  0.00    -0.286 OA
HETATM    2  C2          0      73.455  17.190   2.894  1.00  0.00     0.201 C 
HETATM    3  C3          0      72.695  17.301   4.046  1.00  0.00     0.067 C 
HETATM    4  C4          0      71.896  18.412   4.288  1.00  0.00     0.103 C 
HETATM    5  O13         0      71.884  19.391   3.400  1.00  0.00    -0.307 OA
HETATM    6  C14         0      72.558  19.320   2.273  1.00  0.00     0.107 C 
HETATM    7  C15         0      72.249  20.125   1.185  1.00  0.00     0.049 C 
HETATM    8  C16         0      72.785  19.875  -0.072  1.00  0.00     0.093 C 
HETATM    9  C18         0      73.986  19.176  -0.070  1.00  0.00     0.048 C 
HETATM   10  C19         0      74.348  18.399   1.022  1.00  0.00     0.096 C 
HETATM   11  C21         0      73.523  18.333   2.111  1.00  0.00     0.084 C 
ENDROOT
BRANCH  10  12
HETATM   12  O20         0      75.291  17.389   0.855  1.00  0.00    -0.359 OA
HETATM   13  H20         0      76.108  17.460   1.333  1.00  0.00     0.218 HD
ENDBRANCH  10  12
BRANCH   4  14
HETATM   14  C5          0      70.721  18.220   5.141  1.00  0.00     0.025 C 
HETATM   15  C6          0      69.671  19.125   5.189  1.00  0.00     0.004 C 
HETATM   16  C7          0      68.382  18.612   5.296  1.00  0.00     0.026 C 
HETATM   17  C8          0      68.152  17.254   5.485  1.00  0.00     0.112 C 
HETATM   18  C10         0      69.214  16.557   6.045  1.00  0.00     0.112 C 
HETATM   19  C12         0      70.500  17.047   5.850  1.00  0.00     0.028 C 
BRANCH  17  20
HETATM   20  O9          0      67.030  16.644   4.951  1.00  0.00    -0.357 OA
HETATM   21  H9          0      66.239  17.113   4.709  1.00  0.00     0.218 HD
ENDBRANCH  17  20
BRANCH  18  22
HETATM   22  O11         0      68.974  15.245   6.428  1.00  0.00    -0.357 OA
HETATM   23  H11         0      69.157  15.021   7.333  1.00  0.00     0.218 HD
ENDBRANCH  18  22
ENDBRANCH   4  14
BRANCH   8  24
HETATM   24  O17         0      72.015  20.012  -1.233  1.00  0.00    -0.359 OA
HETATM   25  H17         0      71.671  19.258  -1.696  1.00  0.00     0.218 HD
ENDBRANCH   8  24
TORSDOF 5
ENDMDL
MODEL 8
REMARK VINA RESULT:      -5.0      2.843      7.486
REMARK  5 active torsions:
REMARK  status: ('A' for Active; 'I' for Inactive)
REMARK    1  A    between atoms: C4_4  and  C5_5 
REMARK    2  A    between atoms: C8_8  and  O9_9 
REMARK    3  A    between atoms: C10_11  and  O11_12 
REMARK    4  A    between atoms: C16_18  and  O17_19 
REMARK    5  A    between atoms: C19_22  and  O20_23 
ROOT
HETATM    1  O1          0      67.707  14.978   5.235  1.00  0.00    -0.286 OA
HETATM    2  C2          0      68.922  15.163   5.523  1.00  0.00     0.201 C 
HETATM    3  C3          0      69.816  14.122   5.710  1.00  0.00     0.067 C 
HETATM    4  C4          0      71.122  14.350   6.127  1.00  0.00     0.103 C 
HETATM    5  O13         0      71.516  15.595   6.328  1.00  0.00    -0.307 OA
HETATM    6  C14         0      70.698  16.617   6.201  1.00  0.00     0.107 C 
HETATM    7  C15         0      70.970  17.848   6.781  1.00  0.00     0.049 C 
HETATM    8  C16         0      69.997  18.837   6.863  1.00  0.00     0.093 C 
HETATM    9  C18         0      68.988  18.748   5.912  1.00  0.00     0.048 C 
HETATM   10  C19         0      68.720  17.543   5.278  1.00  0.00     0.096 C 
HETATM   11  C21         0      69.467  16.437   5.579  1.00  0.00     0.084 C 
ENDROOT
BRANCH  10  12
HETATM   12  O20         0      67.477  17.348   4.683  1.00  0.00    -0.359 OA
HETATM   13  H20         0      67.038  16.519   4.829  1.00  0.00     0.218 HD
ENDBRANCH  10  12
BRANCH   4  14
HETATM   14  C5          0      71.788  13.273   6.861  1.00  0.00     0.025 C 
HETATM   15  C6          0      72.599  13.503   7.963  1.00  0.00     0.004 C 
HETATM   16  C7          0      72.529  12.596   9.016  1.00  0.00     0.026 C 
HETATM   17  C8          0      71.781  11.427   8.923  1.00  0.00     0.112 C 
HETATM   18  C10         0      71.548  10.990   7.626  1.00  0.00     0.112 C 
HETATM   19  C12         0      71.539  11.931   6.603  1.00  0.00     0.028 C 
BRANCH  17  20
HETATM   20  O9          0      71.159  10.893  10.037  1.00  0.00    -0.357 OA
HETATM   21  H9          0      70.233  10.684  10.076  1.00  0.00     0.218 HD
ENDBRANCH  17  20
BRANCH  18  22
HETATM   22  O11         0      70.973   9.736   7.479  1.00  0.00    -0.357 OA
HETATM   23  H11         0      71.229   9.070   8.107  1.00  0.00     0.218 HD
ENDBRANCH  18  22
ENDBRANCH   4  14
BRANCH   8  24
HETATM   24  O17         0      69.866  19.638   8.003  1.00  0.00    -0.359 OA
HETATM   25  H17         0      69.326  19.374   8.738  1.00  0.00     0.218 HD
ENDBRANCH   8  24
TORSDOF 5
ENDMDL
MODEL 9
REMARK VINA RESULT:      -4.9      9.379     11.360
REMARK  5 active torsions:
REMARK  status: ('A' for Active; 'I' for Inactive)
REMARK    1  A    between atoms: C4_4  and  C5_5 
REMARK    2  A    between atoms: C8_8  and  O9_9 
REMARK    3  A    between atoms: C10_11  and  O11_12 
REMARK    4  A    between atoms: C16_18  and  O17_19 
REMARK    5  A    between atoms: C19_22  and  O20_23 
ROOT
HETATM    1  O1          0      64.382   0.078  -0.178  1.00  0.00    -0.286 OA
HETATM    2  C2          0      64.750   1.273  -0.009  1.00  0.00     0.201 C 
HETATM    3  C3          0      65.732   1.872  -0.780  1.00  0.00     0.067 C 
HETATM    4  C4          0      66.190   3.156  -0.506  1.00  0.00     0.103 C 
HETATM    5  O13         0      65.654   3.820   0.503  1.00  0.00    -0.307 OA
HETATM    6  C14         0      64.746   3.284   1.288  1.00  0.00     0.107 C 
HETATM    7  C15         0      64.477   3.795   2.550  1.00  0.00     0.049 C 
HETATM    8  C16         0      63.712   3.086   3.468  1.00  0.00     0.093 C 
HETATM    9  C18         0      62.831   2.166   2.911  1.00  0.00     0.048 C 
HETATM   10  C19         0      63.044   1.670   1.633  1.00  0.00     0.096 C 
HETATM   11  C21         0      64.121   2.101   0.907  1.00  0.00     0.084 C 
ENDROOT
BRANCH  10  12
HETATM   12  O20         0      62.445   0.470   1.260  1.00  0.00    -0.359 OA
HETATM   13  H20         0      62.979  -0.174   0.811  1.00  0.00     0.218 HD
ENDBRANCH  10  12
BRANCH   4  14
HETATM   14  C5          0      67.557   3.480  -0.917  1.00  0.00     0.025 C 
HETATM   15  C6          0      68.212   2.816  -1.944  1.00  0.00     0.004 C 
HETATM   16  C7          0      69.028   3.569  -2.782  1.00  0.00     0.026 C 
HETATM   17  C8          0      69.291   4.911  -2.531  1.00  0.00     0.112 C 
HETATM   18  C10         0      69.132   5.294  -1.206  1.00  0.00     0.112 C 
HETATM   19  C12         0      68.246   4.576  -0.412  1.00  0.00     0.028 C 
BRANCH  17  20
HETATM   20  O9          0      69.483   5.803  -3.571  1.00  0.00    -0.357 OA
HETATM   21  H9          0      69.822   5.555  -4.423  1.00  0.00     0.218 HD
ENDBRANCH  17  20
BRANCH  18  22
HETATM   22  O11         0      69.562   6.569  -0.864  1.00  0.00    -0.357 OA
HETATM   23  H11         0      69.034   7.297  -1.171  1.00  0.00     0.218 HD
ENDBRANCH  18  22
ENDBRANCH   4  14
BRANCH   8  24
HETATM   24  O17         0      64.044   3.057   4.827  1.00  0.00    -0.359 OA
HETATM   25  H17         0      63.833   2.311   5.376  1.00  0.00     0.218 HD
ENDBRANCH   8  24
TORSDOF 5
ENDMDL
