MODEL 1
REMARK VINA RESULT:      -5.6      0.000      0.000
REMARK  5 active torsions:
REMARK  status: ('A' for Active; 'I' for Inactive)
REMARK    1  A    between atoms: C4_4  and  C5_5 
REMARK    2  A    between atoms: C8_8  and  O9_9 
REMARK    3  A    between atoms: C10_11  and  O11_12 
REMARK    4  A    between atoms: C16_18  and  O17_19 
REMARK    5  A    between atoms: C19_22  and  O20_23 
ROOT
HETATM    1  O1          0      27.819  49.906 -11.077  1.00  0.00    -0.286 OA
HETATM    2  C2          0      28.134  49.156 -10.112  1.00  0.00     0.201 C 
HETATM    3  C3          0      28.684  49.638  -8.937  1.00  0.00     0.067 C 
HETATM    4  C4          0      29.117  48.781  -7.931  1.00  0.00     0.103 C 
HETATM    5  O13         0      28.978  47.479  -8.103  1.00  0.00    -0.307 OA
HETATM    6  C14         0      28.496  46.968  -9.215  1.00  0.00     0.107 C 
HETATM    7  C15         0      28.712  45.642  -9.564  1.00  0.00     0.049 C 
HETATM    8  C16         0      28.427  45.177 -10.842  1.00  0.00     0.093 C 
HETATM    9  C18         0      27.468  45.908 -11.532  1.00  0.00     0.048 C 
HETATM   10  C19         0      27.193  47.222 -11.179  1.00  0.00     0.096 C 
HETATM   11  C21         0      27.860  47.797 -10.132  1.00  0.00     0.084 C 
ENDROOT
BRANCH  10  12
HETATM   12  O20         0      26.585  48.063 -12.106  1.00  0.00    -0.359 OA
HETATM   13  H20         0      27.034  48.217 -12.929  1.00  0.00     0.218 HD
ENDBRANCH  10  12
BRANCH   4  14
HETATM   14  C5          0      30.183  49.266  -7.051  1.00  0.00     0.025 C 
HETATM   15  C6          0      29.937  49.787  -5.789  1.00  0.00     0.004 C 
HETATM   16  C7          0      30.841  49.479  -4.778  1.00  0.00     0.026 C 
HETATM   17  C8          0      32.020  48.789  -5.038  1.00  0.00     0.112 C 
HETATM   18  C10         0      32.466  48.878  -6.350  1.00  0.00     0.112 C 
HETATM   19  C12         0      31.529  49.102  -7.352  1.00  0.00     0.028 C 
BRANCH  17  20
HETATM   20  O9          0      32.559  47.926  -4.101  1.00  0.00    -0.357 OA
HETATM   21  H9          0      33.411  48.048  -3.698  1.00  0.00     0.218 HD
ENDBRANCH  17  20
BRANCH  18  22
HETATM   22  O11         0      33.728  48.370  -6.621  1.00  0.00    -0.357 OA
HETATM   23  H11         0      33.924  48.164  -7.528  1.00  0.00     0.218 HD
ENDBRANCH  18  22
ENDBRANCH   4  14
BRANCH   8  24
HETATM   24  O17         0      29.271  44.271 -11.493  1.00  0.00    -0.359 OA
HETATM   25  H17         0      29.013  43.369 -11.645  1.00  0.00     0.218 HD
ENDBRANCH   8  24
TORSDOF 5
ENDMDL
MODEL 2
REMARK VINA RESULT:      -5.6      4.324      6.944
REMARK  5 active torsions:
REMARK  status: ('A' for Active; 'I' for Inactive)
REMARK    1  A    between atoms: C4_4  and  C5_5 
REMARK    2  A    between atoms: C8_8  and  O9_9 
REMARK    3  A    between atoms: C10_11  and  O11_12 
REMARK    4  A    between atoms: C16_18  and  O17_19 
REMARK    5  A    between atoms: C19_22  and  O20_23 
ROOT
HETATM    1  O1          0      33.016  43.424  -8.920  1.00  0.00    -0.286 OA
HETATM    2  C2          0      33.467  44.250  -8.079  1.00  0.00     0.201 C 
HETATM    3  C3          0      32.656  45.126  -7.378  1.00  0.00     0.067 C 
HETATM    4  C4          0      33.188  46.096  -6.535  1.00  0.00     0.103 C 
HETATM    5  O13         0      34.499  46.161  -6.391  1.00  0.00    -0.307 OA
HETATM    6  C14         0      35.316  45.378  -7.061  1.00  0.00     0.107 C 
HETATM    7  C15         0      36.658  45.692  -7.227  1.00  0.00     0.049 C 
HETATM    8  C16         0      37.452  45.006  -8.138  1.00  0.00     0.093 C 
HETATM    9  C18         0      37.016  43.723  -8.448  1.00  0.00     0.048 C 
HETATM   10  C19         0      35.690  43.362  -8.251  1.00  0.00     0.096 C 
HETATM   11  C21         0      34.809  44.270  -7.731  1.00  0.00     0.084 C 
ENDROOT
BRANCH  10  12
HETATM   12  O20         0      35.172  42.273  -8.945  1.00  0.00    -0.359 OA
HETATM   13  H20         0      34.594  42.446  -9.678  1.00  0.00     0.218 HD
ENDBRANCH  10  12
BRANCH   4  14
HETATM   14  C5          0      32.394  47.308  -6.324  1.00  0.00     0.025 C 
HETATM   15  C6          0      32.954  48.577  -6.293  1.00  0.00     0.004 C 
HETATM   16  C7          0      32.233  49.613  -6.879  1.00  0.00     0.026 C 
HETATM   17  C8          0      30.942  49.423  -7.359  1.00  0.00     0.112 C 
HETATM   18  C10         0      30.263  48.354  -6.790  1.00  0.00     0.112 C 
HETATM   19  C12         0      31.006  47.292  -6.289  1.00  0.00     0.028 C 
BRANCH  17  20
HETATM   20  O9          0      30.486  50.125  -8.461  1.00  0.00    -0.357 OA
HETATM   21  H9          0      30.520  49.792  -9.350  1.00  0.00     0.218 HD
ENDBRANCH  17  20
BRANCH  18  22
HETATM   22  O11         0      28.914  48.234  -7.092  1.00  0.00    -0.357 OA
HETATM   23  H11         0      28.372  47.772  -6.463  1.00  0.00     0.218 HD
ENDBRANCH  18  22
ENDBRANCH   4  14
BRANCH   8  24
HETATM   24  O17         0      38.400  45.671  -8.924  1.00  0.00    -0.359 OA
HETATM   25  H17         0      39.016  45.197  -9.470  1.00  0.00     0.218 HD
ENDBRANCH   8  24
TORSDOF 5
ENDMDL
MODEL 3
REMARK VINA RESULT:      -5.5      5.589      6.942
REMARK  5 active torsions:
REMARK  status: ('A' for Active; 'I' for Inactive)
REMARK    1  A    between atoms: C4_4  and  C5_5 
REMARK    2  A    between atoms: C8_8  and  O9_9 
REMARK    3  A    between atoms: C10_11  and  O11_12 
REMARK    4  A    between atoms: C16_18  and  O17_19 
REMARK    5  A    between atoms: C19_22  and  O20_23 
ROOT
HETATM    1  O1          0      30.735  43.172 -10.904  1.00  0.00    -0.286 OA
HETATM    2  C2          0      31.980  43.015 -10.774  1.00  0.00     0.201 C 
HETATM    3  C3          0      32.609  43.000  -9.541  1.00  0.00     0.067 C 
HETATM    4  C4          0      33.993  42.929  -9.430  1.00  0.00     0.103 C 
HETATM    5  O13         0      34.715  42.853 -10.535  1.00  0.00    -0.307 OA
HETATM    6  C14         0      34.170  42.901 -11.730  1.00  0.00     0.107 C 
HETATM    7  C15         0      34.911  43.223 -12.859  1.00  0.00     0.049 C 
HETATM    8  C16         0      34.293  43.521 -14.067  1.00  0.00     0.093 C 
HETATM    9  C18         0      33.023  42.979 -14.226  1.00  0.00     0.048 C 
HETATM   10  C19         0      32.273  42.602 -13.120  1.00  0.00     0.096 C 
HETATM   11  C21         0      32.794  42.751 -11.864  1.00  0.00     0.084 C 
ENDROOT
BRANCH  10  12
HETATM   12  O20         0      30.892  42.482 -13.244  1.00  0.00    -0.359 OA
HETATM   13  H20         0      30.513  42.574 -14.110  1.00  0.00     0.218 HD
ENDBRANCH  10  12
BRANCH   4  14
HETATM   14  C5          0      34.600  43.506  -8.230  1.00  0.00     0.025 C 
HETATM   15  C6          0      35.790  43.040  -7.689  1.00  0.00     0.004 C 
HETATM   16  C7          0      36.674  43.979  -7.170  1.00  0.00     0.026 C 
HETATM   17  C8          0      36.333  45.324  -7.067  1.00  0.00     0.112 C 
HETATM   18  C10         0      34.968  45.574  -7.028  1.00  0.00     0.112 C 
HETATM   19  C12         0      34.111  44.660  -7.630  1.00  0.00     0.028 C 
BRANCH  17  20
HETATM   20  O9          0      37.291  46.311  -7.211  1.00  0.00    -0.357 OA
HETATM   21  H9          0      37.398  47.035  -6.605  1.00  0.00     0.218 HD
ENDBRANCH  17  20
BRANCH  18  22
HETATM   22  O11         0      34.575  46.873  -6.737  1.00  0.00    -0.357 OA
HETATM   23  H11         0      34.974  47.567  -7.249  1.00  0.00     0.218 HD
ENDBRANCH  18  22
ENDBRANCH   4  14
BRANCH   8  24
HETATM   24  O17         0      34.763  44.548 -14.893  1.00  0.00    -0.359 OA
HETATM   25  H17         0      34.170  45.116 -15.370  1.00  0.00     0.218 HD
ENDBRANCH   8  24
TORSDOF 5
ENDMDL
MODEL 4
REMARK VINA RESULT:      -5.4      7.019     10.466
REMARK  5 active torsions:
REMARK  status: ('A' for Active; 'I' for Inactive)
REMARK    1  A    between atoms: C4_4  and  C5_5 
REMARK    2  A    between atoms: C8_8  and  O9_9 
REMARK    3  A    between atoms: C10_11  and  O11_12 
REMARK    4  A    between atoms: C16_18  and  O17_19 
REMARK    5  A    between atoms: C19_22  and  O20_23 
ROOT
HETATM    1  O1          0      39.445  44.382 -10.267  1.00  0.00    -0.286 OA
HETATM    2  C2          0      38.296  43.873 -10.160  1.00  0.00     0.201 C 
HETATM    3  C3          0      37.716  43.112 -11.161  1.00  0.00     0.067 C 
HETATM    4  C4          0      36.409  42.649 -11.060  1.00  0.00     0.103 C 
HETATM    5  O13         0      35.718  42.930  -9.969  1.00  0.00    -0.307 OA
HETATM    6  C14         0      36.208  43.680  -9.006  1.00  0.00     0.107 C 
HETATM    7  C15         0      35.388  44.302  -8.076  1.00  0.00     0.049 C 
HETATM    8  C16         0      35.878  45.287  -7.226  1.00  0.00     0.093 C 
HETATM    9  C18         0      37.246  45.228  -6.987  1.00  0.00     0.048 C 
HETATM   10  C19         0      38.089  44.573  -7.873  1.00  0.00     0.096 C 
HETATM   11  C21         0      37.569  43.965  -8.983  1.00  0.00     0.084 C 
ENDROOT
BRANCH  10  12
HETATM   12  O20         0      39.447  44.880  -7.874  1.00  0.00    -0.359 OA
HETATM   13  H20         0      39.997  44.462  -8.525  1.00  0.00     0.218 HD
ENDBRANCH  10  12
BRANCH   4  14
HETATM   14  C5          0      35.685  42.408 -12.310  1.00  0.00     0.025 C 
HETATM   15  C6          0      34.557  41.603 -12.382  1.00  0.00     0.004 C 
HETATM   16  C7          0      33.530  42.008 -13.229  1.00  0.00     0.026 C 
HETATM   17  C8          0      33.672  43.101 -14.076  1.00  0.00     0.112 C 
HETATM   18  C10         0      34.985  43.426 -14.390  1.00  0.00     0.112 C 
HETATM   19  C12         0      35.983  43.085 -13.485  1.00  0.00     0.028 C 
BRANCH  17  20
HETATM   20  O9          0      32.587  43.903 -14.387  1.00  0.00    -0.357 OA
HETATM   21  H9          0      31.833  43.602 -14.880  1.00  0.00     0.218 HD
ENDBRANCH  17  20
BRANCH  18  22
HETATM   22  O11         0      35.177  44.384 -15.375  1.00  0.00    -0.357 OA
HETATM   23  H11         0      34.519  44.437 -16.058  1.00  0.00     0.218 HD
ENDBRANCH  18  22
ENDBRANCH   4  14
BRANCH   8  24
HETATM   24  O17         0      35.126  46.427  -6.921  1.00  0.00    -0.359 OA
HETATM   25  H17         0      34.443  46.412  -6.261  1.00  0.00     0.218 HD
ENDBRANCH   8  24
TORSDOF 5
ENDMDL
MODEL 5
REMARK VINA RESULT:      -5.4      7.672     10.111
REMARK  5 active torsions:
REMARK  status: ('A' for Active; 'I' for Inactive)
REMARK    1  A    between atoms: C4_4  and  C5_5 
REMARK    2  A    between atoms: C8_8  and  O9_9 
REMARK    3  A    between atoms: C10_11  and  O11_12 
REMARK    4  A    between atoms: C16_18  and  O17_19 
REMARK    5  A    between atoms: C19_22  and  O20_23 
ROOT
HETATM    1  O1          0      40.114  43.523  -7.133  1.00  0.00    -0.286 OA
HETATM    2  C2          0      39.199  44.147  -6.530  1.00  0.00     0.201 C 
HETATM    3  C3          0      39.337  44.613  -5.233  1.00  0.00     0.067 C 
HETATM    4  C4          0      38.278  45.207  -4.556  1.00  0.00     0.103 C 
HETATM    5  O13         0      37.122  45.344  -5.181  1.00  0.00    -0.307 OA
HETATM    6  C14         0      36.927  44.886  -6.398  1.00  0.00     0.107 C 
HETATM    7  C15         0      35.652  44.664  -6.900  1.00  0.00     0.049 C 
HETATM    8  C16         0      35.454  43.948  -8.074  1.00  0.00     0.093 C 
HETATM    9  C18         0      36.532  43.948  -8.950  1.00  0.00     0.048 C 
HETATM   10  C19         0      37.815  44.213  -8.490  1.00  0.00     0.096 C 
HETATM   11  C21         0      38.017  44.493  -7.166  1.00  0.00     0.084 C 
ENDROOT
BRANCH  10  12
HETATM   12  O20         0      38.908  43.792  -9.242  1.00  0.00    -0.359 OA
HETATM   13  H20         0      38.966  44.082 -10.144  1.00  0.00     0.218 HD
ENDBRANCH  10  12
BRANCH   4  14
HETATM   14  C5          0      38.283  45.118  -3.095  1.00  0.00     0.025 C 
HETATM   15  C6          0      39.182  44.328  -2.393  1.00  0.00     0.004 C 
HETATM   16  C7          0      39.686  44.831  -1.198  1.00  0.00     0.026 C 
HETATM   17  C8          0      39.213  46.019  -0.649  1.00  0.00     0.112 C 
HETATM   18  C10         0      37.936  46.378  -1.059  1.00  0.00     0.112 C 
HETATM   19  C12         0      37.489  45.931  -2.296  1.00  0.00     0.028 C 
BRANCH  17  20
HETATM   20  O9          0      40.052  46.851   0.069  1.00  0.00    -0.357 OA
HETATM   21  H9          0      39.790  47.699   0.410  1.00  0.00     0.218 HD
ENDBRANCH  17  20
BRANCH  18  22
HETATM   22  O11         0      37.343  47.447  -0.402  1.00  0.00    -0.357 OA
HETATM   23  H11         0      37.650  48.317  -0.632  1.00  0.00     0.218 HD
ENDBRANCH  18  22
ENDBRANCH   4  14
BRANCH   8  24
HETATM   24  O17         0      34.400  43.037  -8.204  1.00  0.00    -0.359 OA
HETATM   25  H17         0      34.070  42.773  -9.054  1.00  0.00     0.218 HD
ENDBRANCH   8  24
TORSDOF 5
ENDMDL
MODEL 6
REMARK VINA RESULT:      -5.3      4.611      6.838
REMARK  5 active torsions:
REMARK  status: ('A' for Active; 'I' for Inactive)
REMARK    1  A    between atoms: C4_4  and  C5_5 
REMARK    2  A    between atoms: C8_8  and  O9_9 
REMARK    3  A    between atoms: C10_11  and  O11_12 
REMARK    4  A    between atoms: C16_18  and  O17_19 
REMARK    5  A    between atoms: C19_22  and  O20_23 
ROOT
HETATM    1  O1          0      31.741  48.281  -6.200  1.00  0.00    -0.286 OA
HETATM    2  C2          0      31.578  47.032  -6.122  1.00  0.00     0.201 C 
HETATM    3  C3          0      30.403  46.455  -5.670  1.00  0.00     0.067 C 
HETATM    4  C4          0      30.285  45.081  -5.497  1.00  0.00     0.103 C 
HETATM    5  O13         0      31.320  44.313  -5.792  1.00  0.00    -0.307 OA
HETATM    6  C14         0      32.470  44.812  -6.189  1.00  0.00     0.107 C 
HETATM    7  C15         0      33.648  44.083  -6.114  1.00  0.00     0.049 C 
HETATM    8  C16         0      34.885  44.690  -6.290  1.00  0.00     0.093 C 
HETATM    9  C18         0      34.864  45.860  -7.039  1.00  0.00     0.048 C 
HETATM   10  C19         0      33.691  46.590  -7.173  1.00  0.00     0.096 C 
HETATM   11  C21         0      32.542  46.146  -6.577  1.00  0.00     0.084 C 
ENDROOT
BRANCH  10  12
HETATM   12  O20         0      33.762  47.933  -7.530  1.00  0.00    -0.359 OA
HETATM   13  H20         0      34.365  48.178  -8.222  1.00  0.00     0.218 HD
ENDBRANCH  10  12
BRANCH   4  14
HETATM   14  C5          0      29.321  44.612  -4.500  1.00  0.00     0.025 C 
HETATM   15  C6          0      29.212  45.173  -3.236  1.00  0.00     0.004 C 
HETATM   16  C7          0      27.936  45.307  -2.698  1.00  0.00     0.026 C 
HETATM   17  C8          0      26.818  44.780  -3.334  1.00  0.00     0.112 C 
HETATM   18  C10         0      27.086  43.734  -4.207  1.00  0.00     0.112 C 
HETATM   19  C12         0      28.342  43.672  -4.797  1.00  0.00     0.028 C 
BRANCH  17  20
HETATM   20  O9          0      25.589  45.410  -3.244  1.00  0.00    -0.357 OA
HETATM   21  H9          0      24.764  44.993  -3.466  1.00  0.00     0.218 HD
ENDBRANCH  17  20
BRANCH  18  22
HETATM   22  O11         0      25.994  43.050  -4.721  1.00  0.00    -0.357 OA
HETATM   23  H11         0      25.267  43.575  -5.038  1.00  0.00     0.218 HD
ENDBRANCH  18  22
ENDBRANCH   4  14
BRANCH   8  24
HETATM   24  O17         0      35.987  44.341  -5.501  1.00  0.00    -0.359 OA
HETATM   25  H17         0      36.878  44.447  -5.813  1.00  0.00     0.218 HD
ENDBRANCH   8  24
TORSDOF 5
ENDMDL
MODEL 7
REMARK VINA RESULT:      -5.3     12.311     14.921
REMARK  5 active torsions:
REMARK  status: ('A' for Active; 'I' for Inactive)
REMARK    1  A    between atoms: C4_4  and  C5_5 
REMARK    2  A    between atoms: C8_8  and  O9_9 
REMARK    3  A    between atoms: C10_11  and  O11_12 
REMARK    4  A    between atoms: C16_18  and  O17_19 
REMARK    5  A    between atoms: C19_22  and  O20_23 
ROOT
HETATM    1  O1          0      35.374  36.831  -2.350  1.00  0.00    -0.286 OA
HETATM    2  C2          0      34.594  36.056  -2.968  1.00  0.00     0.201 C 
HETATM    3  C3          0      34.397  36.124  -4.337  1.00  0.00     0.067 C 
HETATM    4  C4          0      33.456  35.327  -4.979  1.00  0.00     0.103 C 
HETATM    5  O13         0      32.752  34.472  -4.259  1.00  0.00    -0.307 OA
HETATM    6  C14         0      32.873  34.393  -2.952  1.00  0.00     0.107 C 
HETATM    7  C15         0      31.890  33.815  -2.160  1.00  0.00     0.049 C 
HETATM    8  C16         0      31.899  33.959  -0.778  1.00  0.00     0.093 C 
HETATM    9  C18         0      33.147  34.217  -0.223  1.00  0.00     0.048 C 
HETATM   10  C19         0      34.167  34.752  -0.998  1.00  0.00     0.096 C 
HETATM   11  C21         0      33.948  35.012  -2.323  1.00  0.00     0.084 C 
ENDROOT
BRANCH  10  12
HETATM   12  O20         0      35.227  35.400  -0.373  1.00  0.00    -0.359 OA
HETATM   13  H20         0      35.646  36.117  -0.835  1.00  0.00     0.218 HD
ENDBRANCH  10  12
BRANCH   4  14
HETATM   14  C5          0      32.883  35.838  -6.225  1.00  0.00     0.025 C 
HETATM   15  C6          0      32.598  35.024  -7.312  1.00  0.00     0.004 C 
HETATM   16  C7          0      31.441  35.296  -8.035  1.00  0.00     0.026 C 
HETATM   17  C8          0      30.664  36.419  -7.773  1.00  0.00     0.112 C 
HETATM   18  C10         0      31.340  37.458  -7.146  1.00  0.00     0.112 C 
HETATM   19  C12         0      32.443  37.149  -6.359  1.00  0.00     0.028 C 
BRANCH  17  20
HETATM   20  O9          0      29.291  36.386  -7.941  1.00  0.00    -0.357 OA
HETATM   21  H9          0      28.864  36.111  -8.744  1.00  0.00     0.218 HD
ENDBRANCH  17  20
BRANCH  18  22
HETATM   22  O11         0      30.667  38.666  -7.032  1.00  0.00    -0.357 OA
HETATM   23  H11         0      31.158  39.400  -6.680  1.00  0.00     0.218 HD
ENDBRANCH  18  22
ENDBRANCH   4  14
BRANCH   8  24
HETATM   24  O17         0      30.717  34.166  -0.059  1.00  0.00    -0.359 OA
HETATM   25  H17         0      30.571  33.763   0.789  1.00  0.00     0.218 HD
ENDBRANCH   8  24
TORSDOF 5
ENDMDL
MODEL 8
REMARK VINA RESULT:      -5.1      5.133      7.015
REMARK  5 active torsions:
REMARK  status: ('A' for Active; 'I' for Inactive)
REMARK    1  A    between atoms: C4_4  and  C5_5 
REMARK    2  A    between atoms: C8_8  and  O9_9 
REMARK    3  A    between atoms: C10_11  and  O11_12 
REMARK    4  A    between atoms: C16_18  and  O17_19 
REMARK    5  A    between atoms: C19_22  and  O20_23 
ROOT
HETATM    1  O1          0      32.743  43.550  -9.810  1.00  0.00    -0.286 OA
HETATM    2  C2          0      32.814  43.716  -8.561  1.00  0.00     0.201 C 
HETATM    3  C3          0      31.697  43.743  -7.743  1.00  0.00     0.067 C 
HETATM    4  C4          0      31.795  44.030  -6.386  1.00  0.00     0.103 C 
HETATM    5  O13         0      32.989  44.261  -5.871  1.00  0.00    -0.307 OA
HETATM    6  C14         0      34.077  44.284  -6.609  1.00  0.00     0.107 C 
HETATM    7  C15         0      35.241  44.903  -6.177  1.00  0.00     0.049 C 
HETATM    8  C16         0      36.295  45.148  -7.049  1.00  0.00     0.093 C 
HETATM    9  C18         0      36.349  44.308  -8.155  1.00  0.00     0.048 C 
HETATM   10  C19         0      35.213  43.636  -8.587  1.00  0.00     0.096 C 
HETATM   11  C21         0      34.035  43.789  -7.908  1.00  0.00     0.084 C 
ENDROOT
BRANCH  10  12
HETATM   12  O20         0      35.156  43.168  -9.896  1.00  0.00    -0.359 OA
HETATM   13  H20         0      35.474  43.737 -10.586  1.00  0.00     0.218 HD
ENDBRANCH  10  12
BRANCH   4  14
HETATM   14  C5          0      30.622  44.623  -5.741  1.00  0.00     0.025 C 
HETATM   15  C6          0      29.420  43.945  -5.596  1.00  0.00     0.004 C 
HETATM   16  C7          0      28.714  44.132  -4.412  1.00  0.00     0.026 C 
HETATM   17  C8          0      29.117  45.064  -3.462  1.00  0.00     0.112 C 
HETATM   18  C10         0      29.907  46.093  -3.957  1.00  0.00     0.112 C 
HETATM   19  C12         0      30.669  45.851  -5.093  1.00  0.00     0.028 C 
BRANCH  17  20
HETATM   20  O9          0      28.908  44.836  -2.113  1.00  0.00    -0.357 OA
HETATM   21  H9          0      28.613  45.504  -1.504  1.00  0.00     0.218 HD
ENDBRANCH  17  20
BRANCH  18  22
HETATM   22  O11         0      30.179  47.146  -3.096  1.00  0.00    -0.357 OA
HETATM   23  H11         0      30.577  46.928  -2.261  1.00  0.00     0.218 HD
ENDBRANCH  18  22
ENDBRANCH   4  14
BRANCH   8  24
HETATM   24  O17         0      37.024  46.341  -6.995  1.00  0.00    -0.359 OA
HETATM   25  H17         0      36.610  47.185  -7.130  1.00  0.00     0.218 HD
ENDBRANCH   8  24
TORSDOF 5
ENDMDL
MODEL 9
REMARK VINA RESULT:      -5.1      3.767      7.342
REMARK  5 active torsions:
REMARK  status: ('A' for Active; 'I' for Inactive)
REMARK    1  A    between atoms: C4_4  and  C5_5 
REMARK    2  A    between atoms: C8_8  and  O9_9 
REMARK    3  A    between atoms: C10_11  and  O11_12 
REMARK    4  A    between atoms: C16_18  and  O17_19 
REMARK    5  A    between atoms: C19_22  and  O20_23 
ROOT
HETATM    1  O1          0      33.865  44.586  -8.155  1.00  0.00    -0.286 OA
HETATM    2  C2          0      32.800  44.823  -7.521  1.00  0.00     0.201 C 
HETATM    3  C3          0      31.848  43.851  -7.263  1.00  0.00     0.067 C 
HETATM    4  C4          0      30.638  44.161  -6.653  1.00  0.00     0.103 C 
HETATM    5  O13         0      30.408  45.412  -6.298  1.00  0.00    -0.307 OA
HETATM    6  C14         0      31.261  46.380  -6.553  1.00  0.00     0.107 C 
HETATM    7  C15         0      30.876  47.713  -6.555  1.00  0.00     0.049 C 
HETATM    8  C16         0      31.705  48.702  -7.069  1.00  0.00     0.093 C 
HETATM    9  C18         0      33.060  48.392  -7.069  1.00  0.00     0.048 C 
HETATM   10  C19         0      33.481  47.070  -7.021  1.00  0.00     0.096 C 
HETATM   11  C21         0      32.555  46.065  -6.955  1.00  0.00     0.084 C 
ENDROOT
BRANCH  10  12
HETATM   12  O20         0      34.764  46.748  -7.453  1.00  0.00    -0.359 OA
HETATM   13  H20         0      35.070  47.134  -8.264  1.00  0.00     0.218 HD
ENDBRANCH  10  12
BRANCH   4  14
HETATM   14  C5          0      29.497  43.291  -6.949  1.00  0.00     0.025 C 
HETATM   15  C6          0      28.700  43.453  -8.072  1.00  0.00     0.004 C 
HETATM   16  C7          0      28.248  42.304  -8.713  1.00  0.00     0.026 C 
HETATM   17  C8          0      28.467  41.038  -8.181  1.00  0.00     0.112 C 
HETATM   18  C10         0      28.687  41.016  -6.810  1.00  0.00     0.112 C 
HETATM   19  C12         0      29.220  42.150  -6.208  1.00  0.00     0.028 C 
BRANCH  17  20
HETATM   20  O9          0      28.656  39.945  -9.007  1.00  0.00    -0.357 OA
HETATM   21  H9          0      29.411  39.835  -9.573  1.00  0.00     0.218 HD
ENDBRANCH  17  20
BRANCH  18  22
HETATM   22  O11         0      28.724  39.770  -6.200  1.00  0.00    -0.357 OA
HETATM   23  H11         0      29.096  39.730  -5.326  1.00  0.00     0.218 HD
ENDBRANCH  18  22
ENDBRANCH   4  14
BRANCH   8  24
HETATM   24  O17         0      31.193  49.762  -7.827  1.00  0.00    -0.359 OA
HETATM   25  H17         0      30.307  49.748  -8.169  1.00  0.00     0.218 HD
ENDBRANCH   8  24
TORSDOF 5
ENDMDL
