MODEL 1
REMARK VINA RESULT:      -6.2      0.000      0.000
REMARK  5 active torsions:
REMARK  status: ('A' for Active; 'I' for Inactive)
REMARK    1  A    between atoms: C4_4  and  C5_5 
REMARK    2  A    between atoms: C8_8  and  O9_9 
REMARK    3  A    between atoms: C10_11  and  O11_12 
REMARK    4  A    between atoms: C16_18  and  O17_19 
REMARK    5  A    between atoms: C19_22  and  O20_23 
ROOT
HETATM    1  O1          0      59.625  29.021  -5.847  1.00  0.00    -0.286 OA
HETATM    2  C2          0      58.669  29.197  -6.651  1.00  0.00     0.201 C 
HETATM    3  C3          0      58.279  30.450  -7.091  1.00  0.00     0.067 C 
HETATM    4  C4          0      57.158  30.624  -7.895  1.00  0.00     0.103 C 
HETATM    5  O13         0      56.467  29.559  -8.258  1.00  0.00    -0.307 OA
HETATM    6  C14         0      56.771  28.351  -7.838  1.00  0.00     0.107 C 
HETATM    7  C15         0      55.854  27.311  -7.875  1.00  0.00     0.049 C 
HETATM    8  C16         0      56.089  26.117  -7.204  1.00  0.00     0.093 C 
HETATM    9  C18         0      57.428  25.826  -6.975  1.00  0.00     0.048 C 
HETATM   10  C19         0      58.380  26.836  -6.977  1.00  0.00     0.096 C 
HETATM   11  C21         0      57.999  28.127  -7.224  1.00  0.00     0.084 C 
ENDROOT
BRANCH  10  12
HETATM   12  O20         0      59.597  26.626  -6.336  1.00  0.00    -0.359 OA
HETATM   13  H20         0      60.262  26.128  -6.795  1.00  0.00     0.218 HD
ENDBRANCH  10  12
BRANCH   4  14
HETATM   14  C5          0      56.474  31.917  -7.820  1.00  0.00     0.025 C 
HETATM   15  C6          0      57.120  33.089  -7.453  1.00  0.00     0.004 C 
HETATM   16  C7          0      56.763  34.257  -8.120  1.00  0.00     0.026 C 
HETATM   17  C8          0      55.708  34.287  -9.025  1.00  0.00     0.112 C 
HETATM   18  C10         0      54.764  33.284  -8.848  1.00  0.00     0.112 C 
HETATM   19  C12         0      55.168  32.094  -8.256  1.00  0.00     0.028 C 
BRANCH  17  20
HETATM   20  O9          0      55.741  35.126 -10.125  1.00  0.00    -0.357 OA
HETATM   21  H9          0      55.255  34.966 -10.926  1.00  0.00     0.218 HD
ENDBRANCH  17  20
BRANCH  18  22
HETATM   22  O11         0      53.600  33.378  -9.598  1.00  0.00    -0.357 OA
HETATM   23  H11         0      52.783  33.450  -9.117  1.00  0.00     0.218 HD
ENDBRANCH  18  22
ENDBRANCH   4  14
BRANCH   8  24
HETATM   24  O17         0      55.064  25.448  -6.525  1.00  0.00    -0.359 OA
HETATM   25  H17         0      54.485  25.902  -5.923  1.00  0.00     0.218 HD
ENDBRANCH   8  24
TORSDOF 5
ENDMDL
MODEL 2
REMARK VINA RESULT:      -6.2      1.906      7.304
REMARK  5 active torsions:
REMARK  status: ('A' for Active; 'I' for Inactive)
REMARK    1  A    between atoms: C4_4  and  C5_5 
REMARK    2  A    between atoms: C8_8  and  O9_9 
REMARK    3  A    between atoms: C10_11  and  O11_12 
REMARK    4  A    between atoms: C16_18  and  O17_19 
REMARK    5  A    between atoms: C19_22  and  O20_23 
ROOT
HETATM    1  O1          0      54.188  33.000  -8.017  1.00  0.00    -0.286 OA
HETATM    2  C2          0      55.372  32.812  -8.408  1.00  0.00     0.201 C 
HETATM    3  C3          0      56.035  31.608  -8.243  1.00  0.00     0.067 C 
HETATM    4  C4          0      57.374  31.460  -8.590  1.00  0.00     0.103 C 
HETATM    5  O13         0      58.013  32.494  -9.108  1.00  0.00    -0.307 OA
HETATM    6  C14         0      57.442  33.669  -9.252  1.00  0.00     0.107 C 
HETATM    7  C15         0      58.186  34.830  -9.407  1.00  0.00     0.049 C 
HETATM    8  C16         0      57.597  36.084  -9.302  1.00  0.00     0.093 C 
HETATM    9  C18         0      56.234  36.117  -9.570  1.00  0.00     0.048 C 
HETATM   10  C19         0      55.468  34.964  -9.470  1.00  0.00     0.096 C 
HETATM   11  C21         0      56.062  33.782  -9.121  1.00  0.00     0.084 C 
ENDROOT
BRANCH  10  12
HETATM   12  O20         0      54.090  35.074  -9.307  1.00  0.00    -0.359 OA
HETATM   13  H20         0      53.767  35.474  -8.509  1.00  0.00     0.218 HD
ENDBRANCH  10  12
BRANCH   4  14
HETATM   14  C5          0      58.143  30.443  -7.871  1.00  0.00     0.025 C 
HETATM   15  C6          0      58.176  30.364  -6.486  1.00  0.00     0.004 C 
HETATM   16  C7          0      58.179  29.097  -5.913  1.00  0.00     0.026 C 
HETATM   17  C8          0      58.282  27.946  -6.687  1.00  0.00     0.112 C 
HETATM   18  C10         0      58.867  28.135  -7.932  1.00  0.00     0.112 C 
HETATM   19  C12         0      58.776  29.391  -8.520  1.00  0.00     0.028 C 
BRANCH  17  20
HETATM   20  O9          0      57.650  26.776  -6.305  1.00  0.00    -0.357 OA
HETATM   21  H9          0      57.915  26.253  -5.556  1.00  0.00     0.218 HD
ENDBRANCH  17  20
BRANCH  18  22
HETATM   22  O11         0      59.166  26.996  -8.665  1.00  0.00    -0.357 OA
HETATM   23  H11         0      58.672  26.857  -9.465  1.00  0.00     0.218 HD
ENDBRANCH  18  22
ENDBRANCH   4  14
BRANCH   8  24
HETATM   24  O17         0      58.246  37.142  -8.656  1.00  0.00    -0.359 OA
HETATM   25  H17         0      58.485  37.095  -7.738  1.00  0.00     0.218 HD
ENDBRANCH   8  24
TORSDOF 5
ENDMDL
MODEL 3
REMARK VINA RESULT:      -5.8      2.946      8.216
REMARK  5 active torsions:
REMARK  status: ('A' for Active; 'I' for Inactive)
REMARK    1  A    between atoms: C4_4  and  C5_5 
REMARK    2  A    between atoms: C8_8  and  O9_9 
REMARK    3  A    between atoms: C10_11  and  O11_12 
REMARK    4  A    between atoms: C16_18  and  O17_19 
REMARK    5  A    between atoms: C19_22  and  O20_23 
ROOT
HETATM    1  O1          0      55.266  26.593  -8.064  1.00  0.00    -0.286 OA
HETATM    2  C2          0      56.462  26.401  -7.711  1.00  0.00     0.201 C 
HETATM    3  C3          0      56.988  25.138  -7.498  1.00  0.00     0.067 C 
HETATM    4  C4          0      58.278  24.958  -7.011  1.00  0.00     0.103 C 
HETATM    5  O13         0      59.019  26.025  -6.768  1.00  0.00    -0.307 OA
HETATM    6  C14         0      58.556  27.247  -6.917  1.00  0.00     0.107 C 
HETATM    7  C15         0      59.156  28.336  -6.302  1.00  0.00     0.049 C 
HETATM    8  C16         0      58.526  29.574  -6.252  1.00  0.00     0.093 C 
HETATM    9  C18         0      57.589  29.797  -7.254  1.00  0.00     0.048 C 
HETATM   10  C19         0      57.004  28.730  -7.923  1.00  0.00     0.096 C 
HETATM   11  C21         0      57.363  27.449  -7.604  1.00  0.00     0.084 C 
ENDROOT
BRANCH  10  12
HETATM   12  O20         0      55.794  28.923  -8.583  1.00  0.00    -0.359 OA
HETATM   13  H20         0      55.776  29.536  -9.309  1.00  0.00     0.218 HD
ENDBRANCH  10  12
BRANCH   4  14
HETATM   14  C5          0      58.546  23.728  -6.264  1.00  0.00     0.025 C 
HETATM   15  C6          0      59.693  23.544  -5.506  1.00  0.00     0.004 C 
HETATM   16  C7          0      59.566  22.865  -4.298  1.00  0.00     0.026 C 
HETATM   17  C8          0      58.367  22.271  -3.919  1.00  0.00     0.112 C 
HETATM   18  C10         0      57.514  21.963  -4.970  1.00  0.00     0.112 C 
HETATM   19  C12         0      57.605  22.715  -6.136  1.00  0.00     0.028 C 
BRANCH  17  20
HETATM   20  O9          0      58.000  22.204  -2.586  1.00  0.00    -0.357 OA
HETATM   21  H9          0      57.310  21.640  -2.257  1.00  0.00     0.218 HD
ENDBRANCH  17  20
BRANCH  18  22
HETATM   22  O11         0      56.394  21.202  -4.668  1.00  0.00    -0.357 OA
HETATM   23  H11         0      56.539  20.287  -4.459  1.00  0.00     0.218 HD
ENDBRANCH  18  22
ENDBRANCH   4  14
BRANCH   8  24
HETATM   24  O17         0      58.582  30.374  -5.106  1.00  0.00    -0.359 OA
HETATM   25  H17         0      58.502  31.320  -5.153  1.00  0.00     0.218 HD
ENDBRANCH   8  24
TORSDOF 5
ENDMDL
MODEL 4
REMARK VINA RESULT:      -5.8     16.775     19.272
REMARK  5 active torsions:
REMARK  status: ('A' for Active; 'I' for Inactive)
REMARK    1  A    between atoms: C4_4  and  C5_5 
REMARK    2  A    between atoms: C8_8  and  O9_9 
REMARK    3  A    between atoms: C10_11  and  O11_12 
REMARK    4  A    between atoms: C16_18  and  O17_19 
REMARK    5  A    between atoms: C19_22  and  O20_23 
ROOT
HETATM    1  O1          0      44.346  27.377   1.425  1.00  0.00    -0.286 OA
HETATM    2  C2          0      43.580  26.440   1.784  1.00  0.00     0.201 C 
HETATM    3  C3          0      43.970  25.449   2.668  1.00  0.00     0.067 C 
HETATM    4  C4          0      43.142  24.373   2.967  1.00  0.00     0.103 C 
HETATM    5  O13         0      41.949  24.314   2.404  1.00  0.00    -0.307 OA
HETATM    6  C14         0      41.544  25.208   1.528  1.00  0.00     0.107 C 
HETATM    7  C15         0      40.499  24.953   0.652  1.00  0.00     0.049 C 
HETATM    8  C16         0      40.244  25.788  -0.429  1.00  0.00     0.093 C 
HETATM    9  C18         0      40.696  27.093  -0.282  1.00  0.00     0.048 C 
HETATM   10  C19         0      41.708  27.392   0.620  1.00  0.00     0.096 C 
HETATM   11  C21         0      42.253  26.396   1.383  1.00  0.00     0.084 C 
ENDROOT
BRANCH  10  12
HETATM   12  O20         0      42.440  28.564   0.457  1.00  0.00    -0.359 OA
HETATM   13  H20         0      42.659  29.064   1.235  1.00  0.00     0.218 HD
ENDBRANCH  10  12
BRANCH   4  14
HETATM   14  C5          0      43.788  23.126   3.381  1.00  0.00     0.025 C 
HETATM   15  C6          0      45.105  23.069   3.815  1.00  0.00     0.004 C 
HETATM   16  C7          0      45.402  22.205   4.864  1.00  0.00     0.026 C 
HETATM   17  C8          0      44.452  21.328   5.376  1.00  0.00     0.112 C 
HETATM   18  C10         0      43.421  21.013   4.502  1.00  0.00     0.112 C 
HETATM   19  C12         0      43.089  21.934   3.515  1.00  0.00     0.028 C 
BRANCH  17  20
HETATM   20  O9          0      44.453  20.987   6.718  1.00  0.00    -0.357 OA
HETATM   21  H9          0      43.668  20.943   7.251  1.00  0.00     0.218 HD
ENDBRANCH  17  20
BRANCH  18  22
HETATM   22  O11         0      42.554  20.002   4.890  1.00  0.00    -0.357 OA
HETATM   23  H11         0      42.212  20.045   5.775  1.00  0.00     0.218 HD
ENDBRANCH  18  22
ENDBRANCH   4  14
BRANCH   8  24
HETATM   24  O17         0      39.875  25.273  -1.677  1.00  0.00    -0.359 OA
HETATM   25  H17         0      39.637  24.360  -1.790  1.00  0.00     0.218 HD
ENDBRANCH   8  24
TORSDOF 5
ENDMDL
MODEL 5
REMARK VINA RESULT:      -5.7      1.554      2.450
REMARK  5 active torsions:
REMARK  status: ('A' for Active; 'I' for Inactive)
REMARK    1  A    between atoms: C4_4  and  C5_5 
REMARK    2  A    between atoms: C8_8  and  O9_9 
REMARK    3  A    between atoms: C10_11  and  O11_12 
REMARK    4  A    between atoms: C16_18  and  O17_19 
REMARK    5  A    between atoms: C19_22  and  O20_23 
ROOT
HETATM    1  O1          0      59.569  27.088  -5.875  1.00  0.00    -0.286 OA
HETATM    2  C2          0      58.782  27.276  -6.844  1.00  0.00     0.201 C 
HETATM    3  C3          0      58.737  28.464  -7.554  1.00  0.00     0.067 C 
HETATM    4  C4          0      57.791  28.682  -8.549  1.00  0.00     0.103 C 
HETATM    5  O13         0      56.932  27.719  -8.830  1.00  0.00    -0.307 OA
HETATM    6  C14         0      56.907  26.587  -8.160  1.00  0.00     0.107 C 
HETATM    7  C15         0      55.793  25.759  -8.165  1.00  0.00     0.049 C 
HETATM    8  C16         0      55.673  24.706  -7.267  1.00  0.00     0.093 C 
HETATM    9  C18         0      56.876  24.215  -6.773  1.00  0.00     0.048 C 
HETATM   10  C19         0      58.021  25.000  -6.796  1.00  0.00     0.096 C 
HETATM   11  C21         0      57.969  26.262  -7.323  1.00  0.00     0.084 C 
ENDROOT
BRANCH  10  12
HETATM   12  O20         0      59.072  24.695  -5.937  1.00  0.00    -0.359 OA
HETATM   13  H20         0      59.234  25.281  -5.207  1.00  0.00     0.218 HD
ENDBRANCH  10  12
BRANCH   4  14
HETATM   14  C5          0      57.407  30.070  -8.815  1.00  0.00     0.025 C 
HETATM   15  C6          0      56.550  30.428  -9.846  1.00  0.00     0.004 C 
HETATM   16  C7          0      55.639  31.451  -9.601  1.00  0.00     0.026 C 
HETATM   17  C8          0      55.666  32.184  -8.419  1.00  0.00     0.112 C 
HETATM   18  C10         0      56.892  32.189  -7.768  1.00  0.00     0.112 C 
HETATM   19  C12         0      57.749  31.113  -7.964  1.00  0.00     0.028 C 
BRANCH  17  20
HETATM   20  O9          0      54.498  32.673  -7.862  1.00  0.00    -0.357 OA
HETATM   21  H9          0      53.733  32.918  -8.370  1.00  0.00     0.218 HD
ENDBRANCH  17  20
BRANCH  18  22
HETATM   22  O11         0      57.028  33.054  -6.691  1.00  0.00    -0.357 OA
HETATM   23  H11         0      56.815  32.708  -5.832  1.00  0.00     0.218 HD
ENDBRANCH  18  22
ENDBRANCH   4  14
BRANCH   8  24
HETATM   24  O17         0      54.450  24.402  -6.659  1.00  0.00    -0.359 OA
HETATM   25  H17         0      53.817  23.827  -7.072  1.00  0.00     0.218 HD
ENDBRANCH   8  24
TORSDOF 5
ENDMDL
MODEL 6
REMARK VINA RESULT:      -5.7     15.546     17.664
REMARK  5 active torsions:
REMARK  status: ('A' for Active; 'I' for Inactive)
REMARK    1  A    between atoms: C4_4  and  C5_5 
REMARK    2  A    between atoms: C8_8  and  O9_9 
REMARK    3  A    between atoms: C10_11  and  O11_12 
REMARK    4  A    between atoms: C16_18  and  O17_19 
REMARK    5  A    between atoms: C19_22  and  O20_23 
ROOT
HETATM    1  O1          0      40.850  22.601   0.415  1.00  0.00    -0.286 OA
HETATM    2  C2          0      40.815  23.736  -0.135  1.00  0.00     0.201 C 
HETATM    3  C3          0      40.616  23.905  -1.495  1.00  0.00     0.067 C 
HETATM    4  C4          0      40.684  25.160  -2.090  1.00  0.00     0.103 C 
HETATM    5  O13         0      40.924  26.212  -1.327  1.00  0.00    -0.307 OA
HETATM    6  C14         0      41.156  26.103  -0.038  1.00  0.00     0.107 C 
HETATM    7  C15         0      41.789  27.108   0.679  1.00  0.00     0.049 C 
HETATM    8  C16         0      42.258  26.889   1.969  1.00  0.00     0.093 C 
HETATM    9  C18         0      41.618  25.868   2.661  1.00  0.00     0.048 C 
HETATM   10  C19         0      40.936  24.872   1.977  1.00  0.00     0.096 C 
HETATM   11  C21         0      40.879  24.903   0.610  1.00  0.00     0.084 C 
ENDROOT
BRANCH  10  12
HETATM   12  O20         0      40.685  23.659   2.612  1.00  0.00    -0.359 OA
HETATM   13  H20         0      41.259  23.403   3.324  1.00  0.00     0.218 HD
ENDBRANCH  10  12
BRANCH   4  14
HETATM   14  C5          0      41.066  25.212  -3.502  1.00  0.00     0.025 C 
HETATM   15  C6          0      40.826  26.317  -4.306  1.00  0.00     0.004 C 
HETATM   16  C7          0      41.802  26.661  -5.236  1.00  0.00     0.026 C 
HETATM   17  C8          0      42.917  25.859  -5.455  1.00  0.00     0.112 C 
HETATM   18  C10         0      42.752  24.527  -5.097  1.00  0.00     0.112 C 
HETATM   19  C12         0      41.829  24.220  -4.104  1.00  0.00     0.028 C 
BRANCH  17  20
HETATM   20  O9          0      44.135  26.416  -5.798  1.00  0.00    -0.357 OA
HETATM   21  H9          0      44.625  27.004  -5.234  1.00  0.00     0.218 HD
ENDBRANCH  17  20
BRANCH  18  22
HETATM   22  O11         0      43.759  23.648  -5.467  1.00  0.00    -0.357 OA
HETATM   23  H11         0      43.683  22.752  -5.158  1.00  0.00     0.218 HD
ENDBRANCH  18  22
ENDBRANCH   4  14
BRANCH   8  24
HETATM   24  O17         0      43.482  27.415   2.398  1.00  0.00    -0.359 OA
HETATM   25  H17         0      44.205  26.853   2.651  1.00  0.00     0.218 HD
ENDBRANCH   8  24
TORSDOF 5
ENDMDL
MODEL 7
REMARK VINA RESULT:      -5.5     16.147     17.336
REMARK  5 active torsions:
REMARK  status: ('A' for Active; 'I' for Inactive)
REMARK    1  A    between atoms: C4_4  and  C5_5 
REMARK    2  A    between atoms: C8_8  and  O9_9 
REMARK    3  A    between atoms: C10_11  and  O11_12 
REMARK    4  A    between atoms: C16_18  and  O17_19 
REMARK    5  A    between atoms: C19_22  and  O20_23 
ROOT
HETATM    1  O1          0      46.189  26.548   2.814  1.00  0.00    -0.286 OA
HETATM    2  C2          0      45.211  25.838   2.451  1.00  0.00     0.201 C 
HETATM    3  C3          0      44.246  26.286   1.566  1.00  0.00     0.067 C 
HETATM    4  C4          0      43.125  25.522   1.263  1.00  0.00     0.103 C 
HETATM    5  O13         0      42.997  24.332   1.823  1.00  0.00    -0.307 OA
HETATM    6  C14         0      43.865  23.875   2.699  1.00  0.00     0.107 C 
HETATM    7  C15         0      43.548  22.844   3.572  1.00  0.00     0.049 C 
HETATM    8  C16         0      44.365  22.539   4.654  1.00  0.00     0.093 C 
HETATM    9  C18         0      45.695  22.916   4.511  1.00  0.00     0.048 C 
HETATM   10  C19         0      46.052  23.912   3.612  1.00  0.00     0.096 C 
HETATM   11  C21         0      45.090  24.515   2.849  1.00  0.00     0.084 C 
ENDROOT
BRANCH  10  12
HETATM   12  O20         0      47.264  24.576   3.779  1.00  0.00    -0.359 OA
HETATM   13  H20         0      47.897  24.530   3.073  1.00  0.00     0.218 HD
ENDBRANCH  10  12
BRANCH   4  14
HETATM   14  C5          0      41.918  26.239   0.848  1.00  0.00     0.025 C 
HETATM   15  C6          0      41.600  27.507   1.312  1.00  0.00     0.004 C 
HETATM   16  C7          0      41.028  28.399   0.410  1.00  0.00     0.026 C 
HETATM   17  C8          0      40.660  28.004  -0.872  1.00  0.00     0.112 C 
HETATM   18  C10         0      40.427  26.643  -1.015  1.00  0.00     0.112 C 
HETATM   19  C12         0      41.079  25.768  -0.153  1.00  0.00     0.028 C 
BRANCH  17  20
HETATM   20  O9          0      40.737  28.886  -1.935  1.00  0.00    -0.357 OA
HETATM   21  H9          0      40.552  29.815  -1.865  1.00  0.00     0.218 HD
ENDBRANCH  17  20
BRANCH  18  22
HETATM   22  O11         0      39.877  26.222  -2.217  1.00  0.00    -0.357 OA
HETATM   23  H11         0      39.026  26.576  -2.448  1.00  0.00     0.218 HD
ENDBRANCH  18  22
ENDBRANCH   4  14
BRANCH   8  24
HETATM   24  O17         0      43.828  22.197   5.900  1.00  0.00    -0.359 OA
HETATM   25  H17         0      42.910  21.972   6.003  1.00  0.00     0.218 HD
ENDBRANCH   8  24
TORSDOF 5
ENDMDL
MODEL 8
REMARK VINA RESULT:      -5.3      2.352      7.151
REMARK  5 active torsions:
REMARK  status: ('A' for Active; 'I' for Inactive)
REMARK    1  A    between atoms: C4_4  and  C5_5 
REMARK    2  A    between atoms: C8_8  and  O9_9 
REMARK    3  A    between atoms: C10_11  and  O11_12 
REMARK    4  A    between atoms: C16_18  and  O17_19 
REMARK    5  A    between atoms: C19_22  and  O20_23 
ROOT
HETATM    1  O1          0      54.616  29.610  -9.628  1.00  0.00    -0.286 OA
HETATM    2  C2          0      55.580  28.850  -9.338  1.00  0.00     0.201 C 
HETATM    3  C3          0      55.584  27.497  -9.633  1.00  0.00     0.067 C 
HETATM    4  C4          0      56.613  26.663  -9.210  1.00  0.00     0.103 C 
HETATM    5  O13         0      57.616  27.187  -8.529  1.00  0.00    -0.307 OA
HETATM    6  C14         0      57.643  28.457  -8.190  1.00  0.00     0.107 C 
HETATM    7  C15         0      58.453  28.924  -7.165  1.00  0.00     0.049 C 
HETATM    8  C16         0      58.294  30.202  -6.643  1.00  0.00     0.093 C 
HETATM    9  C18         0      57.703  31.118  -7.505  1.00  0.00     0.048 C 
HETATM   10  C19         0      56.924  30.685  -8.569  1.00  0.00     0.096 C 
HETATM   11  C21         0      56.750  29.344  -8.782  1.00  0.00     0.084 C 
ENDROOT
BRANCH  10  12
HETATM   12  O20         0      56.007  31.561  -9.142  1.00  0.00    -0.359 OA
HETATM   13  H20         0      55.555  31.280  -9.929  1.00  0.00     0.218 HD
ENDBRANCH  10  12
BRANCH   4  14
HETATM   14  C5          0      56.290  25.249  -9.013  1.00  0.00     0.025 C 
HETATM   15  C6          0      57.253  24.250  -9.016  1.00  0.00     0.004 C 
HETATM   16  C7          0      57.101  23.206  -8.109  1.00  0.00     0.026 C 
HETATM   17  C8          0      55.963  23.086  -7.318  1.00  0.00     0.112 C 
HETATM   18  C10         0      54.837  23.723  -7.822  1.00  0.00     0.112 C 
HETATM   19  C12         0      55.017  24.818  -8.660  1.00  0.00     0.028 C 
BRANCH  17  20
HETATM   20  O9          0      56.039  22.554  -6.043  1.00  0.00    -0.357 OA
HETATM   21  H9          0      55.350  22.640  -5.394  1.00  0.00     0.218 HD
ENDBRANCH  17  20
BRANCH  18  22
HETATM   22  O11         0      53.634  23.479  -7.175  1.00  0.00    -0.357 OA
HETATM   23  H11         0      52.859  23.409  -7.720  1.00  0.00     0.218 HD
ENDBRANCH  18  22
ENDBRANCH   4  14
BRANCH   8  24
HETATM   24  O17         0      58.403  30.448  -5.270  1.00  0.00    -0.359 OA
HETATM   25  H17         0      58.228  31.306  -4.901  1.00  0.00     0.218 HD
ENDBRANCH   8  24
TORSDOF 5
ENDMDL
MODEL 9
REMARK VINA RESULT:      -5.3     12.377     14.201
REMARK  5 active torsions:
REMARK  status: ('A' for Active; 'I' for Inactive)
REMARK    1  A    between atoms: C4_4  and  C5_5 
REMARK    2  A    between atoms: C8_8  and  O9_9 
REMARK    3  A    between atoms: C10_11  and  O11_12 
REMARK    4  A    between atoms: C16_18  and  O17_19 
REMARK    5  A    between atoms: C19_22  and  O20_23 
ROOT
HETATM    1  O1          0      40.546  33.585  -4.716  1.00  0.00    -0.286 OA
HETATM    2  C2          0      41.746  33.473  -5.090  1.00  0.00     0.201 C 
HETATM    3  C3          0      42.539  34.563  -5.405  1.00  0.00     0.067 C 
HETATM    4  C4          0      43.823  34.406  -5.913  1.00  0.00     0.103 C 
HETATM    5  O13         0      44.297  33.184  -6.076  1.00  0.00    -0.307 OA
HETATM    6  C14         0      43.573  32.115  -5.827  1.00  0.00     0.107 C 
HETATM    7  C15         0      43.896  30.874  -6.357  1.00  0.00     0.049 C 
HETATM    8  C16         0      43.000  29.812  -6.305  1.00  0.00     0.093 C 
HETATM    9  C18         0      42.062  29.885  -5.283  1.00  0.00     0.048 C 
HETATM   10  C19         0      41.750  31.104  -4.697  1.00  0.00     0.096 C 
HETATM   11  C21         0      42.383  32.242  -5.119  1.00  0.00     0.084 C 
ENDROOT
BRANCH  10  12
HETATM   12  O20         0      40.545  31.243  -4.016  1.00  0.00    -0.359 OA
HETATM   13  H20         0      39.847  30.631  -4.216  1.00  0.00     0.218 HD
ENDBRANCH  10  12
BRANCH   4  14
HETATM   14  C5          0      44.345  35.483  -6.758  1.00  0.00     0.025 C 
HETATM   15  C6          0      43.603  36.608  -7.086  1.00  0.00     0.004 C 
HETATM   16  C7          0      44.270  37.828  -7.137  1.00  0.00     0.026 C 
HETATM   17  C8          0      45.651  37.910  -6.998  1.00  0.00     0.112 C 
HETATM   18  C10         0      46.336  36.743  -7.309  1.00  0.00     0.112 C 
HETATM   19  C12         0      45.671  35.530  -7.168  1.00  0.00     0.028 C 
BRANCH  17  20
HETATM   20  O9          0      46.239  39.008  -6.396  1.00  0.00    -0.357 OA
HETATM   21  H9          0      45.770  39.618  -5.838  1.00  0.00     0.218 HD
ENDBRANCH  17  20
BRANCH  18  22
HETATM   22  O11         0      47.720  36.823  -7.371  1.00  0.00    -0.357 OA
HETATM   23  H11         0      48.115  37.645  -7.105  1.00  0.00     0.218 HD
ENDBRANCH  18  22
ENDBRANCH   4  14
BRANCH   8  24
HETATM   24  O17         0      42.846  28.935  -7.385  1.00  0.00    -0.359 OA
HETATM   25  H17         0      42.682  29.252  -8.265  1.00  0.00     0.218 HD
ENDBRANCH   8  24
TORSDOF 5
ENDMDL
