MODEL 1
REMARK VINA RESULT:      -5.9      0.000      0.000
REMARK  5 active torsions:
REMARK  status: ('A' for Active; 'I' for Inactive)
REMARK    1  A    between atoms: C4_4  and  C5_5 
REMARK    2  A    between atoms: C8_8  and  O9_9 
REMARK    3  A    between atoms: C10_11  and  O11_12 
REMARK    4  A    between atoms: C16_18  and  O17_19 
REMARK    5  A    between atoms: C19_22  and  O20_23 
ROOT
HETATM    1  O1          0      55.584  -0.074  -0.047  1.00  0.00    -0.286 OA
HETATM    2  C2          0      56.631   0.476  -0.486  1.00  0.00     0.201 C 
HETATM    3  C3          0      57.289   1.487   0.193  1.00  0.00     0.067 C 
HETATM    4  C4          0      58.381   2.146  -0.361  1.00  0.00     0.103 C 
HETATM    5  O13         0      58.805   1.778  -1.557  1.00  0.00    -0.307 OA
HETATM    6  C14         0      58.193   0.850  -2.260  1.00  0.00     0.107 C 
HETATM    7  C15         0      58.368   0.739  -3.632  1.00  0.00     0.049 C 
HETATM    8  C16         0      57.537  -0.065  -4.403  1.00  0.00     0.093 C 
HETATM    9  C18         0      56.924  -1.106  -3.715  1.00  0.00     0.048 C 
HETATM   10  C19         0      56.774  -1.048  -2.336  1.00  0.00     0.096 C 
HETATM   11  C21         0      57.249   0.034  -1.646  1.00  0.00     0.084 C 
ENDROOT
BRANCH  10  12
HETATM   12  O20         0      55.809  -1.840  -1.723  1.00  0.00    -0.359 OA
HETATM   13  H20         0      55.589  -1.653  -0.818  1.00  0.00     0.218 HD
ENDBRANCH  10  12
BRANCH   4  14
HETATM   14  C5          0      58.631   3.518   0.084  1.00  0.00     0.025 C 
HETATM   15  C6          0      58.906   4.556  -0.796  1.00  0.00     0.004 C 
HETATM   16  C7          0      58.361   5.804  -0.511  1.00  0.00     0.026 C 
HETATM   17  C8          0      57.679   6.048   0.676  1.00  0.00     0.112 C 
HETATM   18  C10         0      58.001   5.188   1.717  1.00  0.00     0.112 C 
HETATM   19  C12         0      58.463   3.915   1.404  1.00  0.00     0.028 C 
BRANCH  17  20
HETATM   20  O9          0      56.623   6.941   0.715  1.00  0.00    -0.357 OA
HETATM   21  H9          0      56.451   7.524   1.446  1.00  0.00     0.218 HD
ENDBRANCH  17  20
BRANCH  18  22
HETATM   22  O11         0      57.494   5.502   2.970  1.00  0.00    -0.357 OA
HETATM   23  H11         0      58.124   5.740   3.642  1.00  0.00     0.218 HD
ENDBRANCH  18  22
ENDBRANCH   4  14
BRANCH   8  24
HETATM   24  O17         0      57.095   0.342  -5.666  1.00  0.00    -0.359 OA
HETATM   25  H17         0      57.581   0.970  -6.187  1.00  0.00     0.218 HD
ENDBRANCH   8  24
TORSDOF 5
ENDMDL
MODEL 2
REMARK VINA RESULT:      -5.9      1.787      6.690
REMARK  5 active torsions:
REMARK  status: ('A' for Active; 'I' for Inactive)
REMARK    1  A    between atoms: C4_4  and  C5_5 
REMARK    2  A    between atoms: C8_8  and  O9_9 
REMARK    3  A    between atoms: C10_11  and  O11_12 
REMARK    4  A    between atoms: C16_18  and  O17_19 
REMARK    5  A    between atoms: C19_22  and  O20_23 
ROOT
HETATM    1  O1          0      59.316   3.957  -0.899  1.00  0.00    -0.286 OA
HETATM    2  C2          0      58.568   2.994  -0.576  1.00  0.00     0.201 C 
HETATM    3  C3          0      58.595   1.772  -1.225  1.00  0.00     0.067 C 
HETATM    4  C4          0      57.689   0.763  -0.917  1.00  0.00     0.103 C 
HETATM    5  O13         0      56.798   0.979   0.034  1.00  0.00    -0.307 OA
HETATM    6  C14         0      56.704   2.134   0.655  1.00  0.00     0.107 C 
HETATM    7  C15         0      55.557   2.504   1.343  1.00  0.00     0.049 C 
HETATM    8  C16         0      55.365   3.810   1.776  1.00  0.00     0.093 C 
HETATM    9  C18         0      56.530   4.543   1.966  1.00  0.00     0.048 C 
HETATM   10  C19         0      57.708   4.173   1.331  1.00  0.00     0.096 C 
HETATM   11  C21         0      57.726   3.069   0.523  1.00  0.00     0.084 C 
ENDROOT
BRANCH  10  12
HETATM   12  O20         0      58.719   5.116   1.169  1.00  0.00    -0.359 OA
HETATM   13  H20         0      58.588   5.977   1.547  1.00  0.00     0.218 HD
ENDBRANCH  10  12
BRANCH   4  14
HETATM   14  C5          0      57.373  -0.198  -1.975  1.00  0.00     0.025 C 
HETATM   15  C6          0      56.100  -0.337  -2.509  1.00  0.00     0.004 C 
HETATM   16  C7          0      55.996  -0.570  -3.876  1.00  0.00     0.026 C 
HETATM   17  C8          0      57.119  -0.793  -4.666  1.00  0.00     0.112 C 
HETATM   18  C10         0      58.231  -1.257  -3.974  1.00  0.00     0.112 C 
HETATM   19  C12         0      58.352  -0.937  -2.627  1.00  0.00     0.028 C 
BRANCH  17  20
HETATM   20  O9          0      57.154  -0.373  -5.983  1.00  0.00    -0.357 OA
HETATM   21  H9          0      56.595  -0.727  -6.665  1.00  0.00     0.218 HD
ENDBRANCH  17  20
BRANCH  18  22
HETATM   22  O11         0      59.314  -1.673  -4.734  1.00  0.00    -0.357 OA
HETATM   23  H11         0      59.122  -2.081  -5.571  1.00  0.00     0.218 HD
ENDBRANCH  18  22
ENDBRANCH   4  14
BRANCH   8  24
HETATM   24  O17         0      54.112   4.428   1.696  1.00  0.00    -0.359 OA
HETATM   25  H17         0      53.411   4.216   2.301  1.00  0.00     0.218 HD
ENDBRANCH   8  24
TORSDOF 5
ENDMDL
MODEL 3
REMARK VINA RESULT:      -5.6      3.625      6.538
REMARK  5 active torsions:
REMARK  status: ('A' for Active; 'I' for Inactive)
REMARK    1  A    between atoms: C4_4  and  C5_5 
REMARK    2  A    between atoms: C8_8  and  O9_9 
REMARK    3  A    between atoms: C10_11  and  O11_12 
REMARK    4  A    between atoms: C16_18  and  O17_19 
REMARK    5  A    between atoms: C19_22  and  O20_23 
ROOT
HETATM    1  O1          0      58.775   2.362  -0.105  1.00  0.00    -0.286 OA
HETATM    2  C2          0      58.431   2.913   0.976  1.00  0.00     0.201 C 
HETATM    3  C3          0      58.172   2.198   2.133  1.00  0.00     0.067 C 
HETATM    4  C4          0      57.696   2.818   3.283  1.00  0.00     0.103 C 
HETATM    5  O13         0      57.508   4.126   3.266  1.00  0.00    -0.307 OA
HETATM    6  C14         0      57.703   4.847   2.183  1.00  0.00     0.107 C 
HETATM    7  C15         0      57.143   6.107   2.034  1.00  0.00     0.049 C 
HETATM    8  C16         0      57.136   6.753   0.803  1.00  0.00     0.093 C 
HETATM    9  C18         0      58.133   6.350  -0.076  1.00  0.00     0.048 C 
HETATM   10  C19         0      58.748   5.114   0.072  1.00  0.00     0.096 C 
HETATM   11  C21         0      58.381   4.293   1.103  1.00  0.00     0.084 C 
ENDROOT
BRANCH  10  12
HETATM   12  O20         0      59.400   4.543  -1.017  1.00  0.00    -0.359 OA
HETATM   13  H20         0      59.425   3.595  -1.073  1.00  0.00     0.218 HD
ENDBRANCH  10  12
BRANCH   4  14
HETATM   14  C5          0      56.901   2.004   4.204  1.00  0.00     0.025 C 
HETATM   15  C6          0      57.443   1.392   5.325  1.00  0.00     0.004 C 
HETATM   16  C7          0      56.668   1.363   6.480  1.00  0.00     0.026 C 
HETATM   17  C8          0      55.349   1.805   6.486  1.00  0.00     0.112 C 
HETATM   18  C10         0      54.728   1.790   5.244  1.00  0.00     0.112 C 
HETATM   19  C12         0      55.519   1.906   4.108  1.00  0.00     0.028 C 
BRANCH  17  20
HETATM   20  O9          0      54.807   2.402   7.609  1.00  0.00    -0.357 OA
HETATM   21  H9          0      55.121   3.221   7.976  1.00  0.00     0.218 HD
ENDBRANCH  17  20
BRANCH  18  22
HETATM   22  O11         0      53.363   2.039   5.222  1.00  0.00    -0.357 OA
HETATM   23  H11         0      52.790   1.287   5.131  1.00  0.00     0.218 HD
ENDBRANCH  18  22
ENDBRANCH   4  14
BRANCH   8  24
HETATM   24  O17         0      56.025   7.485   0.370  1.00  0.00    -0.359 OA
HETATM   25  H17         0      55.289   7.068  -0.061  1.00  0.00     0.218 HD
ENDBRANCH   8  24
TORSDOF 5
ENDMDL
MODEL 4
REMARK VINA RESULT:      -5.5      1.712      6.264
REMARK  5 active torsions:
REMARK  status: ('A' for Active; 'I' for Inactive)
REMARK    1  A    between atoms: C4_4  and  C5_5 
REMARK    2  A    between atoms: C8_8  and  O9_9 
REMARK    3  A    between atoms: C10_11  and  O11_12 
REMARK    4  A    between atoms: C16_18  and  O17_19 
REMARK    5  A    between atoms: C19_22  and  O20_23 
ROOT
HETATM    1  O1          0      59.229   1.042   2.384  1.00  0.00    -0.286 OA
HETATM    2  C2          0      58.400   1.330   1.477  1.00  0.00     0.201 C 
HETATM    3  C3          0      58.091   0.466   0.440  1.00  0.00     0.067 C 
HETATM    4  C4          0      57.253   0.849  -0.601  1.00  0.00     0.103 C 
HETATM    5  O13         0      56.728   2.061  -0.581  1.00  0.00    -0.307 OA
HETATM    6  C14         0      57.018   2.933   0.360  1.00  0.00     0.107 C 
HETATM    7  C15         0      56.807   4.293   0.186  1.00  0.00     0.049 C 
HETATM    8  C16         0      57.344   5.225   1.066  1.00  0.00     0.093 C 
HETATM    9  C18         0      57.610   4.742   2.341  1.00  0.00     0.048 C 
HETATM   10  C19         0      57.780   3.382   2.560  1.00  0.00     0.096 C 
HETATM   11  C21         0      57.668   2.507   1.513  1.00  0.00     0.084 C 
ENDROOT
BRANCH  10  12
HETATM   12  O20         0      58.458   2.954   3.697  1.00  0.00    -0.359 OA
HETATM   13  H20         0      58.100   3.192   4.544  1.00  0.00     0.218 HD
ENDBRANCH  10  12
BRANCH   4  14
HETATM   14  C5          0      57.443   0.184  -1.892  1.00  0.00     0.025 C 
HETATM   15  C6          0      56.404  -0.411  -2.591  1.00  0.00     0.004 C 
HETATM   16  C7          0      56.403  -0.284  -3.977  1.00  0.00     0.026 C 
HETATM   17  C8          0      57.468   0.297  -4.656  1.00  0.00     0.112 C 
HETATM   18  C10         0      58.676   0.271  -3.972  1.00  0.00     0.112 C 
HETATM   19  C12         0      58.647   0.231  -2.583  1.00  0.00     0.028 C 
BRANCH  17  20
HETATM   20  O9          0      57.258   1.019  -5.818  1.00  0.00    -0.357 OA
HETATM   21  H9          0      56.627   0.774  -6.485  1.00  0.00     0.218 HD
ENDBRANCH  17  20
BRANCH  18  22
HETATM   22  O11         0      59.805   0.665  -4.675  1.00  0.00    -0.357 OA
HETATM   23  H11         0      59.699   0.820  -5.607  1.00  0.00     0.218 HD
ENDBRANCH  18  22
ENDBRANCH   4  14
BRANCH   8  24
HETATM   24  O17         0      57.881   6.434   0.610  1.00  0.00    -0.359 OA
HETATM   25  H17         0      57.544   7.272   0.903  1.00  0.00     0.218 HD
ENDBRANCH   8  24
TORSDOF 5
ENDMDL
MODEL 5
REMARK VINA RESULT:      -5.4      1.911      2.204
REMARK  5 active torsions:
REMARK  status: ('A' for Active; 'I' for Inactive)
REMARK    1  A    between atoms: C4_4  and  C5_5 
REMARK    2  A    between atoms: C8_8  and  O9_9 
REMARK    3  A    between atoms: C10_11  and  O11_12 
REMARK    4  A    between atoms: C16_18  and  O17_19 
REMARK    5  A    between atoms: C19_22  and  O20_23 
ROOT
HETATM    1  O1          0      59.647  -1.807  -0.915  1.00  0.00    -0.286 OA
HETATM    2  C2          0      59.235  -0.706  -1.372  1.00  0.00     0.201 C 
HETATM    3  C3          0      59.321   0.480  -0.663  1.00  0.00     0.067 C 
HETATM    4  C4          0      58.768   1.660  -1.147  1.00  0.00     0.103 C 
HETATM    5  O13         0      58.164   1.643  -2.322  1.00  0.00    -0.307 OA
HETATM    6  C14         0      58.021   0.536  -3.019  1.00  0.00     0.107 C 
HETATM    7  C15         0      57.071   0.422  -4.023  1.00  0.00     0.049 C 
HETATM    8  C16         0      56.751  -0.812  -4.577  1.00  0.00     0.093 C 
HETATM    9  C18         0      57.747  -1.775  -4.479  1.00  0.00     0.048 C 
HETATM   10  C19         0      58.741  -1.667  -3.516  1.00  0.00     0.096 C 
HETATM   11  C21         0      58.749  -0.595  -2.666  1.00  0.00     0.084 C 
ENDROOT
BRANCH  10  12
HETATM   12  O20         0      59.449  -2.804  -3.138  1.00  0.00    -0.359 OA
HETATM   13  H20         0      59.687  -3.426  -3.816  1.00  0.00     0.218 HD
ENDBRANCH  10  12
BRANCH   4  14
HETATM   14  C5          0      58.362   2.663  -0.161  1.00  0.00     0.025 C 
HETATM   15  C6          0      59.188   3.704   0.237  1.00  0.00     0.004 C 
HETATM   16  C7          0      58.599   4.945   0.460  1.00  0.00     0.026 C 
HETATM   17  C8          0      57.220   5.115   0.421  1.00  0.00     0.112 C 
HETATM   18  C10         0      56.486   3.959   0.649  1.00  0.00     0.112 C 
HETATM   19  C12         0      57.067   2.736   0.337  1.00  0.00     0.028 C 
BRANCH  17  20
HETATM   20  O9          0      56.664   6.303  -0.022  1.00  0.00    -0.357 OA
HETATM   21  H9          0      56.805   6.659  -0.892  1.00  0.00     0.218 HD
ENDBRANCH  17  20
BRANCH  18  22
HETATM   22  O11         0      55.115   4.106   0.809  1.00  0.00    -0.357 OA
HETATM   23  H11         0      54.727   3.708   1.580  1.00  0.00     0.218 HD
ENDBRANCH  18  22
ENDBRANCH   4  14
BRANCH   8  24
HETATM   24  O17         0      55.430  -1.149  -4.892  1.00  0.00    -0.359 OA
HETATM   25  H17         0      55.076  -1.019  -5.764  1.00  0.00     0.218 HD
ENDBRANCH   8  24
TORSDOF 5
ENDMDL
MODEL 6
REMARK VINA RESULT:      -5.4      4.950      7.261
REMARK  5 active torsions:
REMARK  status: ('A' for Active; 'I' for Inactive)
REMARK    1  A    between atoms: C4_4  and  C5_5 
REMARK    2  A    between atoms: C8_8  and  O9_9 
REMARK    3  A    between atoms: C10_11  and  O11_12 
REMARK    4  A    between atoms: C16_18  and  O17_19 
REMARK    5  A    between atoms: C19_22  and  O20_23 
ROOT
HETATM    1  O1          0      53.825   2.103   3.091  1.00  0.00    -0.286 OA
HETATM    2  C2          0      55.025   2.274   3.443  1.00  0.00     0.201 C 
HETATM    3  C3          0      55.597   1.601   4.509  1.00  0.00     0.067 C 
HETATM    4  C4          0      56.888   1.883   4.940  1.00  0.00     0.103 C 
HETATM    5  O13         0      57.586   2.802   4.297  1.00  0.00    -0.307 OA
HETATM    6  C14         0      57.077   3.497   3.302  1.00  0.00     0.107 C 
HETATM    7  C15         0      57.629   4.703   2.895  1.00  0.00     0.049 C 
HETATM    8  C16         0      56.952   5.550   2.027  1.00  0.00     0.093 C 
HETATM    9  C18         0      56.016   4.927   1.210  1.00  0.00     0.048 C 
HETATM   10  C19         0      55.477   3.698   1.564  1.00  0.00     0.096 C 
HETATM   11  C21         0      55.884   3.086   2.718  1.00  0.00     0.084 C 
ENDROOT
BRANCH  10  12
HETATM   12  O20         0      54.267   3.299   1.005  1.00  0.00    -0.359 OA
HETATM   13  H20         0      54.262   3.047   0.090  1.00  0.00     0.218 HD
ENDBRANCH  10  12
BRANCH   4  14
HETATM   14  C5          0      57.198   1.620   6.347  1.00  0.00     0.025 C 
HETATM   15  C6          0      58.496   1.508   6.823  1.00  0.00     0.004 C 
HETATM   16  C7          0      58.772   2.049   8.075  1.00  0.00     0.026 C 
HETATM   17  C8          0      57.766   2.564   8.885  1.00  0.00     0.112 C 
HETATM   18  C10         0      56.496   2.068   8.618  1.00  0.00     0.112 C 
HETATM   19  C12         0      56.222   1.612   7.335  1.00  0.00     0.028 C 
BRANCH  17  20
HETATM   20  O9          0      58.012   3.634   9.727  1.00  0.00    -0.357 OA
HETATM   21  H9          0      57.749   3.658  10.640  1.00  0.00     0.218 HD
ENDBRANCH  17  20
BRANCH  18  22
HETATM   22  O11         0      55.491   2.402   9.514  1.00  0.00    -0.357 OA
HETATM   23  H11         0      55.131   3.279   9.449  1.00  0.00     0.218 HD
ENDBRANCH  18  22
ENDBRANCH   4  14
BRANCH   8  24
HETATM   24  O17         0      56.967   6.938   2.203  1.00  0.00    -0.359 OA
HETATM   25  H17         0      56.189   7.467   2.071  1.00  0.00     0.218 HD
ENDBRANCH   8  24
TORSDOF 5
ENDMDL
MODEL 7
REMARK VINA RESULT:      -5.2      4.382      6.520
REMARK  5 active torsions:
REMARK  status: ('A' for Active; 'I' for Inactive)
REMARK    1  A    between atoms: C4_4  and  C5_5 
REMARK    2  A    between atoms: C8_8  and  O9_9 
REMARK    3  A    between atoms: C10_11  and  O11_12 
REMARK    4  A    between atoms: C16_18  and  O17_19 
REMARK    5  A    between atoms: C19_22  and  O20_23 
ROOT
HETATM    1  O1          0      58.418   1.833   2.467  1.00  0.00    -0.286 OA
HETATM    2  C2          0      57.465   2.637   2.274  1.00  0.00     0.201 C 
HETATM    3  C3          0      56.141   2.299   2.498  1.00  0.00     0.067 C 
HETATM    4  C4          0      55.104   3.168   2.181  1.00  0.00     0.103 C 
HETATM    5  O13         0      55.400   4.352   1.673  1.00  0.00    -0.307 OA
HETATM    6  C14         0      56.637   4.708   1.406  1.00  0.00     0.107 C 
HETATM    7  C15         0      56.926   5.743   0.529  1.00  0.00     0.049 C 
HETATM    8  C16         0      58.217   5.949   0.056  1.00  0.00     0.093 C 
HETATM    9  C18         0      59.227   5.456   0.873  1.00  0.00     0.048 C 
HETATM   10  C19         0      58.962   4.452   1.795  1.00  0.00     0.096 C 
HETATM   11  C21         0      57.692   3.956   1.912  1.00  0.00     0.084 C 
ENDROOT
BRANCH  10  12
HETATM   12  O20         0      60.012   3.678   2.279  1.00  0.00    -0.359 OA
HETATM   13  H20         0      59.844   3.119   3.028  1.00  0.00     0.218 HD
ENDBRANCH  10  12
BRANCH   4  14
HETATM   14  C5          0      53.803   2.573   1.869  1.00  0.00     0.025 C 
HETATM   15  C6          0      53.190   1.634   2.687  1.00  0.00     0.004 C 
HETATM   16  C7          0      51.809   1.712   2.835  1.00  0.00     0.026 C 
HETATM   17  C8          0      51.045   2.606   2.092  1.00  0.00     0.112 C 
HETATM   18  C10         0      51.630   3.020   0.903  1.00  0.00     0.112 C 
HETATM   19  C12         0      53.017   3.013   0.812  1.00  0.00     0.028 C 
BRANCH  17  20
HETATM   20  O9          0      49.903   3.177   2.626  1.00  0.00    -0.357 OA
HETATM   21  H9          0      49.560   2.965   3.487  1.00  0.00     0.218 HD
ENDBRANCH  17  20
BRANCH  18  22
HETATM   22  O11         0      50.837   3.760   0.037  1.00  0.00    -0.357 OA
HETATM   23  H11         0      49.898   3.720   0.174  1.00  0.00     0.218 HD
ENDBRANCH  18  22
ENDBRANCH   4  14
BRANCH   8  24
HETATM   24  O17         0      58.457   6.310  -1.274  1.00  0.00    -0.359 OA
HETATM   25  H17         0      58.300   5.707  -1.991  1.00  0.00     0.218 HD
ENDBRANCH   8  24
TORSDOF 5
ENDMDL
MODEL 8
REMARK VINA RESULT:      -5.1      2.115      2.921
REMARK  5 active torsions:
REMARK  status: ('A' for Active; 'I' for Inactive)
REMARK    1  A    between atoms: C4_4  and  C5_5 
REMARK    2  A    between atoms: C8_8  and  O9_9 
REMARK    3  A    between atoms: C10_11  and  O11_12 
REMARK    4  A    between atoms: C16_18  and  O17_19 
REMARK    5  A    between atoms: C19_22  and  O20_23 
ROOT
HETATM    1  O1          0      53.309  -1.464  -1.932  1.00  0.00    -0.286 OA
HETATM    2  C2          0      54.410  -0.944  -1.603  1.00  0.00     0.201 C 
HETATM    3  C3          0      54.627  -0.366  -0.363  1.00  0.00     0.067 C 
HETATM    4  C4          0      55.815   0.291  -0.063  1.00  0.00     0.103 C 
HETATM    5  O13         0      56.762   0.342  -0.984  1.00  0.00    -0.307 OA
HETATM    6  C14         0      56.594  -0.158  -2.188  1.00  0.00     0.107 C 
HETATM    7  C15         0      57.388   0.230  -3.258  1.00  0.00     0.049 C 
HETATM    8  C16         0      57.050  -0.100  -4.565  1.00  0.00     0.093 C 
HETATM    9  C18         0      56.244  -1.224  -4.696  1.00  0.00     0.048 C 
HETATM   10  C19         0      55.471  -1.667  -3.631  1.00  0.00     0.096 C 
HETATM   11  C21         0      55.516  -1.001  -2.437  1.00  0.00     0.084 C 
ENDROOT
BRANCH  10  12
HETATM   12  O20         0      54.374  -2.485  -3.881  1.00  0.00    -0.359 OA
HETATM   13  H20         0      53.579  -2.327  -3.387  1.00  0.00     0.218 HD
ENDBRANCH  10  12
BRANCH   4  14
HETATM   14  C5          0      55.760   1.346   0.950  1.00  0.00     0.025 C 
HETATM   15  C6          0      56.894   1.869   1.555  1.00  0.00     0.004 C 
HETATM   16  C7          0      56.915   3.235   1.814  1.00  0.00     0.026 C 
HETATM   17  C8          0      55.796   4.035   1.604  1.00  0.00     0.112 C 
HETATM   18  C10         0      54.586   3.354   1.618  1.00  0.00     0.112 C 
HETATM   19  C12         0      54.582   2.008   1.272  1.00  0.00     0.028 C 
BRANCH  17  20
HETATM   20  O9          0      55.932   5.353   1.205  1.00  0.00    -0.357 OA
HETATM   21  H9          0      55.859   5.642   0.303  1.00  0.00     0.218 HD
ENDBRANCH  17  20
BRANCH  18  22
HETATM   22  O11         0      53.432   4.124   1.603  1.00  0.00    -0.357 OA
HETATM   23  H11         0      52.696   3.786   1.106  1.00  0.00     0.218 HD
ENDBRANCH  18  22
ENDBRANCH   4  14
BRANCH   8  24
HETATM   24  O17         0      57.221   0.810  -5.614  1.00  0.00    -0.359 OA
HETATM   25  H17         0      57.241   1.747  -5.463  1.00  0.00     0.218 HD
ENDBRANCH   8  24
TORSDOF 5
ENDMDL
MODEL 9
REMARK VINA RESULT:      -5.0      4.438      7.234
REMARK  5 active torsions:
REMARK  status: ('A' for Active; 'I' for Inactive)
REMARK    1  A    between atoms: C4_4  and  C5_5 
REMARK    2  A    between atoms: C8_8  and  O9_9 
REMARK    3  A    between atoms: C10_11  and  O11_12 
REMARK    4  A    between atoms: C16_18  and  O17_19 
REMARK    5  A    between atoms: C19_22  and  O20_23 
ROOT
HETATM    1  O1          0      55.840   1.400   4.047  1.00  0.00    -0.286 OA
HETATM    2  C2          0      55.313   2.144   3.176  1.00  0.00     0.201 C 
HETATM    3  C3          0      54.060   1.902   2.641  1.00  0.00     0.067 C 
HETATM    4  C4          0      53.545   2.679   1.609  1.00  0.00     0.103 C 
HETATM    5  O13         0      54.270   3.683   1.149  1.00  0.00    -0.307 OA
HETATM    6  C14         0      55.481   3.934   1.596  1.00  0.00     0.107 C 
HETATM    7  C15         0      56.383   4.699   0.872  1.00  0.00     0.049 C 
HETATM    8  C16         0      57.728   4.749   1.218  1.00  0.00     0.093 C 
HETATM    9  C18         0      58.002   4.466   2.551  1.00  0.00     0.048 C 
HETATM   10  C19         0      57.099   3.742   3.318  1.00  0.00     0.096 C 
HETATM   11  C21         0      55.922   3.319   2.762  1.00  0.00     0.084 C 
ENDROOT
BRANCH  10  12
HETATM   12  O20         0      57.545   3.100   4.469  1.00  0.00    -0.359 OA
HETATM   13  H20         0      56.942   3.024   5.198  1.00  0.00     0.218 HD
ENDBRANCH  10  12
BRANCH   4  14
HETATM   14  C5          0      52.569   2.048   0.719  1.00  0.00     0.025 C 
HETATM   15  C6          0      52.541   0.682   0.479  1.00  0.00     0.004 C 
HETATM   16  C7          0      51.296   0.073   0.363  1.00  0.00     0.026 C 
HETATM   17  C8          0      50.119   0.814   0.350  1.00  0.00     0.112 C 
HETATM   18  C10         0      50.273   2.138  -0.040  1.00  0.00     0.112 C 
HETATM   19  C12         0      51.504   2.749   0.166  1.00  0.00     0.028 C 
BRANCH  17  20
HETATM   20  O9          0      48.953   0.303   0.891  1.00  0.00    -0.357 OA
HETATM   21  H9          0      48.488  -0.444   0.533  1.00  0.00     0.218 HD
ENDBRANCH  17  20
BRANCH  18  22
HETATM   22  O11         0      49.113   2.869  -0.253  1.00  0.00    -0.357 OA
HETATM   23  H11         0      48.460   2.849   0.437  1.00  0.00     0.218 HD
ENDBRANCH  18  22
ENDBRANCH   4  14
BRANCH   8  24
HETATM   24  O17         0      58.733   4.747   0.244  1.00  0.00    -0.359 OA
HETATM   25  H17         0      59.376   4.050   0.192  1.00  0.00     0.218 HD
ENDBRANCH   8  24
TORSDOF 5
ENDMDL
