MODEL 1
REMARK VINA RESULT:      -0.8      0.000      0.000
REMARK  5 active torsions:
REMARK  status: ('A' for Active; 'I' for Inactive)
REMARK    1  A    between atoms: C4_4  and  C5_5 
REMARK    2  A    between atoms: C8_8  and  O9_9 
REMARK    3  A    between atoms: C10_11  and  O11_12 
REMARK    4  A    between atoms: C16_18  and  O17_19 
REMARK    5  A    between atoms: C19_22  and  O20_23 
ROOT
HETATM    1  O1          0      26.178  94.829  21.911  1.00  0.00    -0.286 OA
HETATM    2  C2          0      26.019  93.783  21.223  1.00  0.00     0.201 C 
HETATM    3  C3          0      24.772  93.245  20.955  1.00  0.00     0.067 C 
HETATM    4  C4          0      24.630  92.036  20.282  1.00  0.00     0.103 C 
HETATM    5  O13         0      25.717  91.405  19.875  1.00  0.00    -0.307 OA
HETATM    6  C14         0      26.925  91.853  20.136  1.00  0.00     0.107 C 
HETATM    7  C15         0      28.039  91.028  20.077  1.00  0.00     0.049 C 
HETATM    8  C16         0      29.264  91.432  20.595  1.00  0.00     0.093 C 
HETATM    9  C18         0      29.446  92.808  20.666  1.00  0.00     0.048 C 
HETATM   10  C19         0      28.354  93.665  20.680  1.00  0.00     0.096 C 
HETATM   11  C21         0      27.088  93.152  20.606  1.00  0.00     0.084 C 
ENDROOT
BRANCH  10  12
HETATM   12  O20         0      28.508  94.954  21.179  1.00  0.00    -0.359 OA
HETATM   13  H20         0      29.244  95.467  20.868  1.00  0.00     0.218 HD
ENDBRANCH  10  12
BRANCH   4  14
HETATM   14  C5          0      23.421  91.256  20.555  1.00  0.00     0.025 C 
HETATM   15  C6          0      23.431  90.096  21.316  1.00  0.00     0.004 C 
HETATM   16  C7          0      22.356  89.877  22.171  1.00  0.00     0.026 C 
HETATM   17  C8          0      21.243  90.712  22.172  1.00  0.00     0.112 C 
HETATM   18  C10         0      21.048  91.419  20.993  1.00  0.00     0.112 C 
HETATM   19  C12         0      22.154  91.698  20.199  1.00  0.00     0.028 C 
BRANCH  17  20
HETATM   20  O9          0      20.540  90.954  23.339  1.00  0.00    -0.357 OA
HETATM   21  H9          0      20.889  90.793  24.208  1.00  0.00     0.218 HD
ENDBRANCH  17  20
BRANCH  18  22
HETATM   22  O11         0      19.856  92.119  20.871  1.00  0.00    -0.357 OA
HETATM   23  H11         0      19.296  92.153  21.638  1.00  0.00     0.218 HD
ENDBRANCH  18  22
ENDBRANCH   4  14
BRANCH   8  24
HETATM   24  O17         0      30.089  90.543  21.294  1.00  0.00    -0.359 OA
HETATM   25  H17         0      29.734  89.799  21.765  1.00  0.00     0.218 HD
ENDBRANCH   8  24
TORSDOF 5
ENDMDL
MODEL 2
REMARK VINA RESULT:      -0.7      1.716      2.627
REMARK  5 active torsions:
REMARK  status: ('A' for Active; 'I' for Inactive)
REMARK    1  A    between atoms: C4_4  and  C5_5 
REMARK    2  A    between atoms: C8_8  and  O9_9 
REMARK    3  A    between atoms: C10_11  and  O11_12 
REMARK    4  A    between atoms: C16_18  and  O17_19 
REMARK    5  A    between atoms: C19_22  and  O20_23 
ROOT
HETATM    1  O1          0      25.349  95.344  21.477  1.00  0.00    -0.286 OA
HETATM    2  C2          0      24.745  94.382  20.927  1.00  0.00     0.201 C 
HETATM    3  C3          0      23.366  94.318  20.830  1.00  0.00     0.067 C 
HETATM    4  C4          0      22.723  93.200  20.312  1.00  0.00     0.103 C 
HETATM    5  O13         0      23.456  92.187  19.886  1.00  0.00    -0.307 OA
HETATM    6  C14         0      24.767  92.180  19.989  1.00  0.00     0.107 C 
HETATM    7  C15         0      25.499  91.003  19.926  1.00  0.00     0.049 C 
HETATM    8  C16         0      26.841  90.968  20.287  1.00  0.00     0.093 C 
HETATM    9  C18         0      27.507  92.183  20.187  1.00  0.00     0.048 C 
HETATM   10  C19         0      26.801  93.378  20.200  1.00  0.00     0.096 C 
HETATM   11  C21         0      25.437  93.360  20.294  1.00  0.00     0.084 C 
ENDROOT
BRANCH  10  12
HETATM   12  O20         0      27.463  94.556  20.536  1.00  0.00    -0.359 OA
HETATM   13  H20         0      28.288  94.741  20.104  1.00  0.00     0.218 HD
ENDBRANCH  10  12
BRANCH   4  14
HETATM   14  C5          0      21.358  92.937  20.774  1.00  0.00     0.025 C 
HETATM   15  C6          0      20.245  93.553  20.221  1.00  0.00     0.004 C 
HETATM   16  C7          0      19.093  92.788  20.072  1.00  0.00     0.026 C 
HETATM   17  C8          0      19.005  91.495  20.578  1.00  0.00     0.112 C 
HETATM   18  C10         0      19.879  91.220  21.621  1.00  0.00     0.112 C 
HETATM   19  C12         0      21.064  91.942  21.698  1.00  0.00     0.028 C 
BRANCH  17  20
HETATM   20  O9          0      18.254  90.530  19.931  1.00  0.00    -0.357 OA
HETATM   21  H9          0      17.333  90.372  20.107  1.00  0.00     0.218 HD
ENDBRANCH  17  20
BRANCH  18  22
HETATM   22  O11         0      19.705  90.015  22.286  1.00  0.00    -0.357 OA
HETATM   23  H11         0      20.408  89.379  22.214  1.00  0.00     0.218 HD
ENDBRANCH  18  22
ENDBRANCH   4  14
BRANCH   8  24
HETATM   24  O17         0      27.374  89.893  21.006  1.00  0.00    -0.359 OA
HETATM   25  H17         0      26.877  89.098  21.158  1.00  0.00     0.218 HD
ENDBRANCH   8  24
TORSDOF 5
ENDMDL
MODEL 3
REMARK VINA RESULT:      -0.6      2.941      6.049
REMARK  5 active torsions:
REMARK  status: ('A' for Active; 'I' for Inactive)
REMARK    1  A    between atoms: C4_4  and  C5_5 
REMARK    2  A    between atoms: C8_8  and  O9_9 
REMARK    3  A    between atoms: C10_11  and  O11_12 
REMARK    4  A    between atoms: C16_18  and  O17_19 
REMARK    5  A    between atoms: C19_22  and  O20_23 
ROOT
HETATM    1  O1          0      22.816  94.115  23.258  1.00  0.00    -0.286 OA
HETATM    2  C2          0      23.808  94.604  22.650  1.00  0.00     0.201 C 
HETATM    3  C3          0      24.400  93.987  21.562  1.00  0.00     0.067 C 
HETATM    4  C4          0      25.554  94.495  20.975  1.00  0.00     0.103 C 
HETATM    5  O13         0      26.078  95.605  21.464  1.00  0.00    -0.307 OA
HETATM    6  C14         0      25.578  96.210  22.519  1.00  0.00     0.107 C 
HETATM    7  C15         0      26.321  97.112  23.266  1.00  0.00     0.049 C 
HETATM    8  C16         0      25.885  97.550  24.511  1.00  0.00     0.093 C 
HETATM    9  C18         0      24.512  97.481  24.709  1.00  0.00     0.048 C 
HETATM   10  C19         0      23.731  96.624  23.946  1.00  0.00     0.096 C 
HETATM   11  C21         0      24.315  95.852  22.980  1.00  0.00     0.084 C 
ENDROOT
BRANCH  10  12
HETATM   12  O20         0      22.481  96.239  24.421  1.00  0.00    -0.359 OA
HETATM   13  H20         0      21.993  95.596  23.920  1.00  0.00     0.218 HD
ENDBRANCH  10  12
BRANCH   4  14
HETATM   14  C5          0      26.430  93.545  20.288  1.00  0.00     0.025 C 
HETATM   15  C6          0      27.786  93.771  20.103  1.00  0.00     0.004 C 
HETATM   16  C7          0      28.643  92.681  20.223  1.00  0.00     0.026 C 
HETATM   17  C8          0      28.160  91.388  20.388  1.00  0.00     0.112 C 
HETATM   18  C10         0      26.863  91.191  19.933  1.00  0.00     0.112 C 
HETATM   19  C12         0      26.001  92.281  19.903  1.00  0.00     0.028 C 
BRANCH  17  20
HETATM   20  O9          0      28.860  90.460  21.138  1.00  0.00    -0.357 OA
HETATM   21  H9          0      28.574  90.144  21.988  1.00  0.00     0.218 HD
ENDBRANCH  17  20
BRANCH  18  22
HETATM   22  O11         0      26.401  89.883  19.899  1.00  0.00    -0.357 OA
HETATM   23  H11         0      26.271  89.451  20.735  1.00  0.00     0.218 HD
ENDBRANCH  18  22
ENDBRANCH   4  14
BRANCH   8  24
HETATM   24  O17         0      26.775  97.717  25.578  1.00  0.00    -0.359 OA
HETATM   25  H17         0      26.492  98.067  26.414  1.00  0.00     0.218 HD
ENDBRANCH   8  24
TORSDOF 5
ENDMDL
MODEL 4
REMARK VINA RESULT:      -0.6      3.002      6.594
REMARK  5 active torsions:
REMARK  status: ('A' for Active; 'I' for Inactive)
REMARK    1  A    between atoms: C4_4  and  C5_5 
REMARK    2  A    between atoms: C8_8  and  O9_9 
REMARK    3  A    between atoms: C10_11  and  O11_12 
REMARK    4  A    between atoms: C16_18  and  O17_19 
REMARK    5  A    between atoms: C19_22  and  O20_23 
ROOT
HETATM    1  O1          0      24.987  95.803  24.244  1.00  0.00    -0.286 OA
HETATM    2  C2          0      24.620  95.184  23.208  1.00  0.00     0.201 C 
HETATM    3  C3          0      25.415  94.247  22.572  1.00  0.00     0.067 C 
HETATM    4  C4          0      25.028  93.655  21.375  1.00  0.00     0.103 C 
HETATM    5  O13         0      23.862  93.986  20.850  1.00  0.00    -0.307 OA
HETATM    6  C14         0      23.085  94.898  21.394  1.00  0.00     0.107 C 
HETATM    7  C15         0      22.085  95.532  20.670  1.00  0.00     0.049 C 
HETATM    8  C16         0      21.443  96.661  21.164  1.00  0.00     0.093 C 
HETATM    9  C18         0      21.456  96.786  22.547  1.00  0.00     0.048 C 
HETATM   10  C19         0      22.415  96.128  23.306  1.00  0.00     0.096 C 
HETATM   11  C21         0      23.343  95.336  22.688  1.00  0.00     0.084 C 
ENDROOT
BRANCH  10  12
HETATM   12  O20         0      22.697  96.584  24.590  1.00  0.00    -0.359 OA
HETATM   13  H20         0      22.342  96.097  25.324  1.00  0.00     0.218 HD
ENDBRANCH  10  12
BRANCH   4  14
HETATM   14  C5          0      26.092  93.184  20.486  1.00  0.00     0.025 C 
HETATM   15  C6          0      27.146  93.990  20.081  1.00  0.00     0.004 C 
HETATM   16  C7          0      28.404  93.404  19.980  1.00  0.00     0.026 C 
HETATM   17  C8          0      28.586  92.035  20.145  1.00  0.00     0.112 C 
HETATM   18  C10         0      27.453  91.267  19.912  1.00  0.00     0.112 C 
HETATM   19  C12         0      26.208  91.854  20.103  1.00  0.00     0.028 C 
BRANCH  17  20
HETATM   20  O9          0      29.751  91.537  20.701  1.00  0.00    -0.357 OA
HETATM   21  H9          0      30.080  91.793  21.554  1.00  0.00     0.218 HD
ENDBRANCH  17  20
BRANCH  18  22
HETATM   22  O11         0      27.623  89.891  19.876  1.00  0.00    -0.357 OA
HETATM   23  H11         0      28.086  89.496  20.606  1.00  0.00     0.218 HD
ENDBRANCH  18  22
ENDBRANCH   4  14
BRANCH   8  24
HETATM   24  O17         0      21.117  97.737  20.330  1.00  0.00    -0.359 OA
HETATM   25  H17         0      21.777  98.345  20.019  1.00  0.00     0.218 HD
ENDBRANCH   8  24
TORSDOF 5
ENDMDL
MODEL 5
REMARK VINA RESULT:      -0.6      2.241      6.709
REMARK  5 active torsions:
REMARK  status: ('A' for Active; 'I' for Inactive)
REMARK    1  A    between atoms: C4_4  and  C5_5 
REMARK    2  A    between atoms: C8_8  and  O9_9 
REMARK    3  A    between atoms: C10_11  and  O11_12 
REMARK    4  A    between atoms: C16_18  and  O17_19 
REMARK    5  A    between atoms: C19_22  and  O20_23 
ROOT
HETATM    1  O1          0      24.048  94.326  24.432  1.00  0.00    -0.286 OA
HETATM    2  C2          0      24.216  93.188  23.914  1.00  0.00     0.201 C 
HETATM    3  C3          0      25.340  92.858  23.175  1.00  0.00     0.067 C 
HETATM    4  C4          0      25.453  91.632  22.530  1.00  0.00     0.103 C 
HETATM    5  O13         0      24.468  90.759  22.647  1.00  0.00    -0.307 OA
HETATM    6  C14         0      23.363  91.036  23.305  1.00  0.00     0.107 C 
HETATM    7  C15         0      22.193  90.318  23.105  1.00  0.00     0.049 C 
HETATM    8  C16         0      20.976  90.767  23.603  1.00  0.00     0.093 C 
HETATM    9  C18         0      21.068  91.613  24.701  1.00  0.00     0.048 C 
HETATM   10  C19         0      22.240  92.312  24.958  1.00  0.00     0.096 C 
HETATM   11  C21         0      23.319  92.153  24.132  1.00  0.00     0.084 C 
ENDROOT
BRANCH  10  12
HETATM   12  O20         0      22.193  93.448  25.760  1.00  0.00    -0.359 OA
HETATM   13  H20         0      22.776  93.490  26.508  1.00  0.00     0.218 HD
ENDBRANCH  10  12
BRANCH   4  14
HETATM   14  C5          0      26.305  91.577  21.341  1.00  0.00     0.025 C 
HETATM   15  C6          0      26.388  92.617  20.427  1.00  0.00     0.004 C 
HETATM   16  C7          0      27.635  92.893  19.875  1.00  0.00     0.026 C 
HETATM   17  C8          0      28.736  92.079  20.119  1.00  0.00     0.112 C 
HETATM   18  C10         0      28.425  90.778  20.491  1.00  0.00     0.112 C 
HETATM   19  C12         0      27.207  90.544  21.118  1.00  0.00     0.028 C 
BRANCH  17  20
HETATM   20  O9          0      30.011  92.612  20.184  1.00  0.00    -0.357 OA
HETATM   21  H9          0      30.527  92.842  19.420  1.00  0.00     0.218 HD
ENDBRANCH  17  20
BRANCH  18  22
HETATM   22  O11         0      29.477  89.876  20.562  1.00  0.00    -0.357 OA
HETATM   23  H11         0      29.250  88.954  20.612  1.00  0.00     0.218 HD
ENDBRANCH  18  22
ENDBRANCH   4  14
BRANCH   8  24
HETATM   24  O17         0      19.797  90.654  22.858  1.00  0.00    -0.359 OA
HETATM   25  H17         0      18.941  90.704  23.267  1.00  0.00     0.218 HD
ENDBRANCH   8  24
TORSDOF 5
ENDMDL
MODEL 6
REMARK VINA RESULT:      -0.6      3.061      5.775
REMARK  5 active torsions:
REMARK  status: ('A' for Active; 'I' for Inactive)
REMARK    1  A    between atoms: C4_4  and  C5_5 
REMARK    2  A    between atoms: C8_8  and  O9_9 
REMARK    3  A    between atoms: C10_11  and  O11_12 
REMARK    4  A    between atoms: C16_18  and  O17_19 
REMARK    5  A    between atoms: C19_22  and  O20_23 
ROOT
HETATM    1  O1          0      28.351  92.232  23.961  1.00  0.00    -0.286 OA
HETATM    2  C2          0      28.054  92.755  22.852  1.00  0.00     0.201 C 
HETATM    3  C3          0      28.132  94.118  22.621  1.00  0.00     0.067 C 
HETATM    4  C4          0      27.702  94.680  21.424  1.00  0.00     0.103 C 
HETATM    5  O13         0      27.227  93.882  20.483  1.00  0.00    -0.307 OA
HETATM    6  C14         0      27.096  92.587  20.666  1.00  0.00     0.107 C 
HETATM    7  C15         0      26.253  91.819  19.875  1.00  0.00     0.049 C 
HETATM    8  C16         0      25.924  90.515  20.227  1.00  0.00     0.093 C 
HETATM    9  C18         0      26.847  89.876  21.045  1.00  0.00     0.048 C 
HETATM   10  C19         0      27.737  90.614  21.814  1.00  0.00     0.096 C 
HETATM   11  C21         0      27.716  91.981  21.753  1.00  0.00     0.084 C 
ENDROOT
BRANCH  10  12
HETATM   12  O20         0      28.334  90.020  22.922  1.00  0.00    -0.359 OA
HETATM   13  H20         0      27.896  90.100  23.760  1.00  0.00     0.218 HD
ENDBRANCH  10  12
BRANCH   4  14
HETATM   14  C5          0      27.251  96.072  21.461  1.00  0.00     0.025 C 
HETATM   15  C6          0      26.429  96.623  20.489  1.00  0.00     0.004 C 
HETATM   16  C7          0      25.449  97.518  20.905  1.00  0.00     0.026 C 
HETATM   17  C8          0      25.373  97.956  22.223  1.00  0.00     0.112 C 
HETATM   18  C10         0      26.562  97.864  22.933  1.00  0.00     0.112 C 
HETATM   19  C12         0      27.489  96.903  22.548  1.00  0.00     0.028 C 
BRANCH  17  20
HETATM   20  O9          0      24.152  98.248  22.803  1.00  0.00    -0.357 OA
HETATM   21  H9          0      23.343  98.343  22.313  1.00  0.00     0.218 HD
ENDBRANCH  17  20
BRANCH  18  22
HETATM   22  O11         0      26.593  98.459  24.187  1.00  0.00    -0.357 OA
HETATM   23  H11         0      27.310  98.215  24.761  1.00  0.00     0.218 HD
ENDBRANCH  18  22
ENDBRANCH   4  14
BRANCH   8  24
HETATM   24  O17         0      24.627  90.019  20.054  1.00  0.00    -0.359 OA
HETATM   25  H17         0      24.184  90.061  19.215  1.00  0.00     0.218 HD
ENDBRANCH   8  24
TORSDOF 5
ENDMDL
MODEL 7
REMARK VINA RESULT:      -0.5      4.369      5.650
REMARK  5 active torsions:
REMARK  status: ('A' for Active; 'I' for Inactive)
REMARK    1  A    between atoms: C4_4  and  C5_5 
REMARK    2  A    between atoms: C8_8  and  O9_9 
REMARK    3  A    between atoms: C10_11  and  O11_12 
REMARK    4  A    between atoms: C16_18  and  O17_19 
REMARK    5  A    between atoms: C19_22  and  O20_23 
ROOT
HETATM    1  O1          0      23.013  93.194  22.172  1.00  0.00    -0.286 OA
HETATM    2  C2          0      23.675  92.287  22.746  1.00  0.00     0.201 C 
HETATM    3  C3          0      23.784  92.194  24.123  1.00  0.00     0.067 C 
HETATM    4  C4          0      24.602  91.247  24.727  1.00  0.00     0.103 C 
HETATM    5  O13         0      25.273  90.406  23.960  1.00  0.00    -0.307 OA
HETATM    6  C14         0      25.235  90.474  22.647  1.00  0.00     0.107 C 
HETATM    7  C15         0      26.211  89.887  21.856  1.00  0.00     0.049 C 
HETATM    8  C16         0      26.310  90.174  20.500  1.00  0.00     0.093 C 
HETATM    9  C18         0      25.131  90.609  19.905  1.00  0.00     0.048 C 
HETATM   10  C19         0      24.114  91.158  20.673  1.00  0.00     0.096 C 
HETATM   11  C21         0      24.266  91.257  22.029  1.00  0.00     0.084 C 
ENDROOT
BRANCH  10  12
HETATM   12  O20         0      23.162  91.968  20.062  1.00  0.00    -0.359 OA
HETATM   13  H20         0      22.248  91.814  20.269  1.00  0.00     0.218 HD
ENDBRANCH  10  12
BRANCH   4  14
HETATM   14  C5          0      25.134  91.568  26.053  1.00  0.00     0.025 C 
HETATM   15  C6          0      26.493  91.623  26.325  1.00  0.00     0.004 C 
HETATM   16  C7          0      26.937  92.617  27.191  1.00  0.00     0.026 C 
HETATM   17  C8          0      26.049  93.445  27.869  1.00  0.00     0.112 C 
HETATM   18  C10         0      24.773  92.920  28.028  1.00  0.00     0.112 C 
HETATM   19  C12         0      24.322  91.990  27.098  1.00  0.00     0.028 C 
BRANCH  17  20
HETATM   20  O9          0      26.381  94.757  28.157  1.00  0.00    -0.357 OA
HETATM   21  H9          0      26.221  95.483  27.565  1.00  0.00     0.218 HD
ENDBRANCH  17  20
BRANCH  18  22
HETATM   22  O11         0      23.905  93.616  28.856  1.00  0.00    -0.357 OA
HETATM   23  H11         0      23.833  94.553  28.713  1.00  0.00     0.218 HD
ENDBRANCH  18  22
ENDBRANCH   4  14
BRANCH   8  24
HETATM   24  O17         0      27.552  90.337  19.877  1.00  0.00    -0.359 OA
HETATM   25  H17         0      27.630  90.723  19.013  1.00  0.00     0.218 HD
ENDBRANCH   8  24
TORSDOF 5
ENDMDL
MODEL 8
REMARK VINA RESULT:      -0.5      3.308      5.745
REMARK  5 active torsions:
REMARK  status: ('A' for Active; 'I' for Inactive)
REMARK    1  A    between atoms: C4_4  and  C5_5 
REMARK    2  A    between atoms: C8_8  and  O9_9 
REMARK    3  A    between atoms: C10_11  and  O11_12 
REMARK    4  A    between atoms: C16_18  and  O17_19 
REMARK    5  A    between atoms: C19_22  and  O20_23 
ROOT
HETATM    1  O1          0      21.758  95.229  23.199  1.00  0.00    -0.286 OA
HETATM    2  C2          0      22.963  94.957  22.942  1.00  0.00     0.201 C 
HETATM    3  C3          0      23.339  93.864  22.179  1.00  0.00     0.067 C 
HETATM    4  C4          0      24.676  93.529  21.997  1.00  0.00     0.103 C 
HETATM    5  O13         0      25.603  94.289  22.552  1.00  0.00    -0.307 OA
HETATM    6  C14         0      25.299  95.316  23.316  1.00  0.00     0.107 C 
HETATM    7  C15         0      26.214  95.861  24.206  1.00  0.00     0.049 C 
HETATM    8  C16         0      25.818  96.767  25.182  1.00  0.00     0.093 C 
HETATM    9  C18         0      24.658  97.474  24.892  1.00  0.00     0.048 C 
HETATM   10  C19         0      23.743  96.980  23.971  1.00  0.00     0.096 C 
HETATM   11  C21         0      23.994  95.797  23.332  1.00  0.00     0.084 C 
ENDROOT
BRANCH  10  12
HETATM   12  O20         0      22.429  97.437  24.006  1.00  0.00    -0.359 OA
HETATM   13  H20         0      22.274  98.324  24.307  1.00  0.00     0.218 HD
ENDBRANCH  10  12
BRANCH   4  14
HETATM   14  C5          0      24.983  92.122  21.734  1.00  0.00     0.025 C 
HETATM   15  C6          0      24.585  91.468  20.577  1.00  0.00     0.004 C 
HETATM   16  C7          0      25.471  90.557  20.013  1.00  0.00     0.026 C 
HETATM   17  C8          0      26.658  90.205  20.648  1.00  0.00     0.112 C 
HETATM   18  C10         0      26.660  90.401  22.023  1.00  0.00     0.112 C 
HETATM   19  C12         0      25.825  91.378  22.552  1.00  0.00     0.028 C 
BRANCH  17  20
HETATM   20  O9          0      27.789  89.893  19.915  1.00  0.00    -0.357 OA
HETATM   21  H9          0      28.432  90.535  19.638  1.00  0.00     0.218 HD
ENDBRANCH  17  20
BRANCH  18  22
HETATM   22  O11         0      27.742  89.894  22.728  1.00  0.00    -0.357 OA
HETATM   23  H11         0      27.894  88.958  22.667  1.00  0.00     0.218 HD
ENDBRANCH  18  22
ENDBRANCH   4  14
BRANCH   8  24
HETATM   24  O17         0      26.347  96.721  26.477  1.00  0.00    -0.359 OA
HETATM   25  H17         0      26.296  97.466  27.064  1.00  0.00     0.218 HD
ENDBRANCH   8  24
TORSDOF 5
ENDMDL
MODEL 9
REMARK VINA RESULT:      -0.5      2.069      2.714
REMARK  5 active torsions:
REMARK  status: ('A' for Active; 'I' for Inactive)
REMARK    1  A    between atoms: C4_4  and  C5_5 
REMARK    2  A    between atoms: C8_8  and  O9_9 
REMARK    3  A    between atoms: C10_11  and  O11_12 
REMARK    4  A    between atoms: C16_18  and  O17_19 
REMARK    5  A    between atoms: C19_22  and  O20_23 
ROOT
HETATM    1  O1          0      24.174  93.217  23.931  1.00  0.00    -0.286 OA
HETATM    2  C2          0      23.917  92.999  22.715  1.00  0.00     0.201 C 
HETATM    3  C3          0      22.632  93.042  22.201  1.00  0.00     0.067 C 
HETATM    4  C4          0      22.364  92.699  20.881  1.00  0.00     0.103 C 
HETATM    5  O13         0      23.369  92.343  20.100  1.00  0.00    -0.307 OA
HETATM    6  C14         0      24.602  92.249  20.548  1.00  0.00     0.107 C 
HETATM    7  C15         0      25.569  91.513  19.878  1.00  0.00     0.049 C 
HETATM    8  C16         0      26.785  91.207  20.476  1.00  0.00     0.093 C 
HETATM    9  C18         0      27.180  92.078  21.484  1.00  0.00     0.048 C 
HETATM   10  C19         0      26.245  92.865  22.143  1.00  0.00     0.096 C 
HETATM   11  C21         0      24.926  92.793  21.786  1.00  0.00     0.084 C 
ENDROOT
BRANCH  10  12
HETATM   12  O20         0      26.554  93.384  23.396  1.00  0.00    -0.359 OA
HETATM   13  H20         0      25.870  93.840  23.871  1.00  0.00     0.218 HD
ENDBRANCH  10  12
BRANCH   4  14
HETATM   14  C5          0      21.024  92.190  20.580  1.00  0.00     0.025 C 
HETATM   15  C6          0      20.786  90.878  20.197  1.00  0.00     0.004 C 
HETATM   16  C7          0      19.639  90.262  20.686  1.00  0.00     0.026 C 
HETATM   17  C8          0      18.690  90.965  21.420  1.00  0.00     0.112 C 
HETATM   18  C10         0      18.692  92.337  21.208  1.00  0.00     0.112 C 
HETATM   19  C12         0      19.876  92.940  20.801  1.00  0.00     0.028 C 
BRANCH  17  20
HETATM   20  O9          0      17.969  90.344  22.425  1.00  0.00    -0.357 OA
HETATM   21  H9          0      18.338  90.100  23.266  1.00  0.00     0.218 HD
ENDBRANCH  17  20
BRANCH  18  22
HETATM   22  O11         0      17.649  93.061  21.767  1.00  0.00    -0.357 OA
HETATM   23  H11         0      16.770  92.728  21.625  1.00  0.00     0.218 HD
ENDBRANCH  18  22
ENDBRANCH   4  14
BRANCH   8  24
HETATM   24  O17         0      27.383  89.952  20.313  1.00  0.00    -0.359 OA
HETATM   25  H17         0      27.958  89.583  20.973  1.00  0.00     0.218 HD
ENDBRANCH   8  24
TORSDOF 5
ENDMDL
