MODEL 1
REMARK VINA RESULT:      -0.0      0.000      0.000
REMARK  5 active torsions:
REMARK  status: ('A' for Active; 'I' for Inactive)
REMARK    1  A    between atoms: C4_4  and  C5_5 
REMARK    2  A    between atoms: C8_8  and  O9_9 
REMARK    3  A    between atoms: C10_11  and  O11_12 
REMARK    4  A    between atoms: C16_18  and  O17_19 
REMARK    5  A    between atoms: C19_22  and  O20_23 
ROOT
HETATM    1  O1          0      66.393 102.112  15.589  1.00  0.00    -0.286 OA
HETATM    2  C2          0      66.608 101.582  16.714  1.00  0.00     0.201 C 
HETATM    3  C3          0      65.603 101.351  17.638  1.00  0.00     0.067 C 
HETATM    4  C4          0      65.881 100.860  18.909  1.00  0.00     0.103 C 
HETATM    5  O13         0      67.136 100.592  19.225  1.00  0.00    -0.307 OA
HETATM    6  C14         0      68.131 100.828  18.399  1.00  0.00     0.107 C 
HETATM    7  C15         0      69.441 100.934  18.843  1.00  0.00     0.049 C 
HETATM    8  C16         0      70.445 101.431  18.021  1.00  0.00     0.093 C 
HETATM    9  C18         0      70.204 101.303  16.658  1.00  0.00     0.048 C 
HETATM   10  C19         0      68.909 101.149  16.182  1.00  0.00     0.096 C 
HETATM   11  C21         0      67.862 101.106  17.063  1.00  0.00     0.084 C 
ENDROOT
BRANCH  10  12
HETATM   12  O20         0      68.631 101.457  14.854  1.00  0.00    -0.359 OA
HETATM   13  H20         0      68.535 100.737  14.241  1.00  0.00     0.218 HD
ENDBRANCH  10  12
BRANCH   4  14
HETATM   14  C5          0      64.942 101.201  19.979  1.00  0.00     0.025 C 
HETATM   15  C6          0      65.315 101.271  21.313  1.00  0.00     0.004 C 
HETATM   16  C7          0      64.750 102.279  22.088  1.00  0.00     0.026 C 
HETATM   17  C8          0      63.747 103.105  21.592  1.00  0.00     0.112 C 
HETATM   18  C10         0      63.026 102.569  20.534  1.00  0.00     0.112 C 
HETATM   19  C12         0      63.645 101.626  19.723  1.00  0.00     0.028 C 
BRANCH  17  20
HETATM   20  O9          0      63.648 104.423  22.001  1.00  0.00    -0.357 OA
HETATM   21  H9          0      64.063 105.149  21.548  1.00  0.00     0.218 HD
ENDBRANCH  17  20
BRANCH  18  22
HETATM   22  O11         0      61.897 103.267  20.126  1.00  0.00    -0.357 OA
HETATM   23  H11         0      61.067 102.808  20.176  1.00  0.00     0.218 HD
ENDBRANCH  18  22
ENDBRANCH   4  14
BRANCH   8  24
HETATM   24  O17         0      71.438 102.284  18.515  1.00  0.00    -0.359 OA
HETATM   25  H17         0      71.227 103.131  18.888  1.00  0.00     0.218 HD
ENDBRANCH   8  24
TORSDOF 5
ENDMDL
MODEL 2
REMARK VINA RESULT:       0.0      8.363     11.070
REMARK  5 active torsions:
REMARK  status: ('A' for Active; 'I' for Inactive)
REMARK    1  A    between atoms: C4_4  and  C5_5 
REMARK    2  A    between atoms: C8_8  and  O9_9 
REMARK    3  A    between atoms: C10_11  and  O11_12 
REMARK    4  A    between atoms: C16_18  and  O17_19 
REMARK    5  A    between atoms: C19_22  and  O20_23 
ROOT
HETATM    1  O1          0      77.384  95.160  20.746  1.00  0.00    -0.286 OA
HETATM    2  C2          0      76.172  94.818  20.677  1.00  0.00     0.201 C 
HETATM    3  C3          0      75.264  95.440  19.837  1.00  0.00     0.067 C 
HETATM    4  C4          0      73.913  95.113  19.854  1.00  0.00     0.103 C 
HETATM    5  O13         0      73.498  94.171  20.682  1.00  0.00    -0.307 OA
HETATM    6  C14         0      74.311  93.576  21.527  1.00  0.00     0.107 C 
HETATM    7  C15         0      73.840  92.901  22.644  1.00  0.00     0.049 C 
HETATM    8  C16         0      74.698  92.498  23.660  1.00  0.00     0.093 C 
HETATM    9  C18         0      76.021  92.319  23.274  1.00  0.00     0.048 C 
HETATM   10  C19         0      76.514  92.942  22.135  1.00  0.00     0.096 C 
HETATM   11  C21         0      75.686  93.725  21.377  1.00  0.00     0.084 C 
ENDROOT
BRANCH  10  12
HETATM   12  O20         0      77.887  93.121  21.997  1.00  0.00    -0.359 OA
HETATM   13  H20         0      78.305  93.787  22.530  1.00  0.00     0.218 HD
ENDBRANCH  10  12
BRANCH   4  14
HETATM   14  C5          0      72.967  96.150  19.437  1.00  0.00     0.025 C 
HETATM   15  C6          0      71.656  96.197  19.887  1.00  0.00     0.004 C 
HETATM   16  C7          0      71.110  97.449  20.152  1.00  0.00     0.026 C 
HETATM   17  C8          0      71.795  98.622  19.854  1.00  0.00     0.112 C 
HETATM   18  C10         0      72.762  98.493  18.866  1.00  0.00     0.112 C 
HETATM   19  C12         0      73.353  97.249  18.679  1.00  0.00     0.028 C 
BRANCH  17  20
HETATM   20  O9          0      71.647  99.749  20.642  1.00  0.00    -0.357 OA
HETATM   21  H9          0      70.884 100.315  20.616  1.00  0.00     0.218 HD
ENDBRANCH  17  20
BRANCH  18  22
HETATM   22  O11         0      73.342  99.663  18.398  1.00  0.00    -0.357 OA
HETATM   23  H11         0      73.597  99.680  17.482  1.00  0.00     0.218 HD
ENDBRANCH  18  22
ENDBRANCH   4  14
BRANCH   8  24
HETATM   24  O17         0      74.332  92.597  25.007  1.00  0.00    -0.359 OA
HETATM   25  H17         0      74.937  92.912  25.667  1.00  0.00     0.218 HD
ENDBRANCH   8  24
TORSDOF 5
ENDMDL
MODEL 3
REMARK VINA RESULT:       0.0      3.230      4.474
REMARK  5 active torsions:
REMARK  status: ('A' for Active; 'I' for Inactive)
REMARK    1  A    between atoms: C4_4  and  C5_5 
REMARK    2  A    between atoms: C8_8  and  O9_9 
REMARK    3  A    between atoms: C10_11  and  O11_12 
REMARK    4  A    between atoms: C16_18  and  O17_19 
REMARK    5  A    between atoms: C19_22  and  O20_23 
ROOT
HETATM    1  O1          0      67.890  99.314  18.519  1.00  0.00    -0.286 OA
HETATM    2  C2          0      68.267 100.465  18.874  1.00  0.00     0.201 C 
HETATM    3  C3          0      68.812 100.725  20.120  1.00  0.00     0.067 C 
HETATM    4  C4          0      69.124 102.018  20.523  1.00  0.00     0.103 C 
HETATM    5  O13         0      68.910 103.014  19.682  1.00  0.00    -0.307 OA
HETATM    6  C14         0      68.361 102.827  18.502  1.00  0.00     0.107 C 
HETATM    7  C15         0      67.775 103.867  17.795  1.00  0.00     0.049 C 
HETATM    8  C16         0      66.980 103.625  16.682  1.00  0.00     0.093 C 
HETATM    9  C18         0      67.234 102.426  16.028  1.00  0.00     0.048 C 
HETATM   10  C19         0      67.861 101.380  16.692  1.00  0.00     0.096 C 
HETATM   11  C21         0      68.247 101.537  17.995  1.00  0.00     0.084 C 
ENDROOT
BRANCH  10  12
HETATM   12  O20         0      67.722 100.084  16.204  1.00  0.00    -0.359 OA
HETATM   13  H20         0      68.213  99.393  16.632  1.00  0.00     0.218 HD
ENDBRANCH  10  12
BRANCH   4  14
HETATM   14  C5          0      69.106 102.294  21.961  1.00  0.00     0.025 C 
HETATM   15  C6          0      68.858 103.555  22.482  1.00  0.00     0.004 C 
HETATM   16  C7          0      68.095 103.635  23.642  1.00  0.00     0.026 C 
HETATM   17  C8          0      67.704 102.496  24.338  1.00  0.00     0.112 C 
HETATM   18  C10         0      68.501 101.381  24.118  1.00  0.00     0.112 C 
HETATM   19  C12         0      69.187 101.286  22.913  1.00  0.00     0.028 C 
BRANCH  17  20
HETATM   20  O9          0      66.496 102.457  25.012  1.00  0.00    -0.357 OA
HETATM   21  H9          0      65.674 102.205  24.607  1.00  0.00     0.218 HD
ENDBRANCH  17  20
BRANCH  18  22
HETATM   22  O11         0      68.272 100.276  24.926  1.00  0.00    -0.357 OA
HETATM   23  H11         0      67.804  99.547  24.536  1.00  0.00     0.218 HD
ENDBRANCH  18  22
ENDBRANCH   4  14
BRANCH   8  24
HETATM   24  O17         0      65.809 104.356  16.449  1.00  0.00    -0.359 OA
HETATM   25  H17         0      65.750 104.993  15.746  1.00  0.00     0.218 HD
ENDBRANCH   8  24
TORSDOF 5
ENDMDL
MODEL 4
REMARK VINA RESULT:       0.0      5.678      8.440
REMARK  5 active torsions:
REMARK  status: ('A' for Active; 'I' for Inactive)
REMARK    1  A    between atoms: C4_4  and  C5_5 
REMARK    2  A    between atoms: C8_8  and  O9_9 
REMARK    3  A    between atoms: C10_11  and  O11_12 
REMARK    4  A    between atoms: C16_18  and  O17_19 
REMARK    5  A    between atoms: C19_22  and  O20_23 
ROOT
HETATM    1  O1          0      66.191  94.945  21.390  1.00  0.00    -0.286 OA
HETATM    2  C2          0      66.404  95.647  20.363  1.00  0.00     0.201 C 
HETATM    3  C3          0      66.451  95.115  19.086  1.00  0.00     0.067 C 
HETATM    4  C4          0      66.789  95.892  17.985  1.00  0.00     0.103 C 
HETATM    5  O13         0      67.052  97.174  18.169  1.00  0.00    -0.307 OA
HETATM    6  C14         0      67.059  97.721  19.365  1.00  0.00     0.107 C 
HETATM    7  C15         0      67.706  98.923  19.615  1.00  0.00     0.049 C 
HETATM    8  C16         0      67.929  99.366  20.913  1.00  0.00     0.093 C 
HETATM    9  C18         0      67.049  98.864  21.864  1.00  0.00     0.048 C 
HETATM   10  C19         0      66.349  97.688  21.627  1.00  0.00     0.096 C 
HETATM   11  C21         0      66.515  97.027  20.440  1.00  0.00     0.084 C 
ENDROOT
BRANCH  10  12
HETATM   12  O20         0      65.831  96.975  22.704  1.00  0.00    -0.359 OA
HETATM   13  H20         0      64.890  96.862  22.751  1.00  0.00     0.218 HD
ENDBRANCH  10  12
BRANCH   4  14
HETATM   14  C5          0      67.394  95.207  16.841  1.00  0.00     0.025 C 
HETATM   15  C6          0      68.246  95.840  15.949  1.00  0.00     0.004 C 
HETATM   16  C7          0      69.331  95.115  15.468  1.00  0.00     0.026 C 
HETATM   17  C8          0      69.491  93.764  15.756  1.00  0.00     0.112 C 
HETATM   18  C10         0      68.318  93.100  16.092  1.00  0.00     0.112 C 
HETATM   19  C12         0      67.280  93.836  16.650  1.00  0.00     0.028 C 
BRANCH  17  20
HETATM   20  O9          0      70.752  93.213  15.897  1.00  0.00    -0.357 OA
HETATM   21  H9          0      71.294  93.326  16.669  1.00  0.00     0.218 HD
ENDBRANCH  17  20
BRANCH  18  22
HETATM   22  O11         0      68.388  91.719  16.204  1.00  0.00    -0.357 OA
HETATM   23  H11         0      68.244  91.215  15.411  1.00  0.00     0.218 HD
ENDBRANCH  18  22
ENDBRANCH   4  14
BRANCH   8  24
HETATM   24  O17         0      69.131  99.983  21.277  1.00  0.00    -0.359 OA
HETATM   25  H17         0      69.429 100.781  20.857  1.00  0.00     0.218 HD
ENDBRANCH   8  24
TORSDOF 5
ENDMDL
MODEL 5
REMARK VINA RESULT:       0.0      6.803      8.975
REMARK  5 active torsions:
REMARK  status: ('A' for Active; 'I' for Inactive)
REMARK    1  A    between atoms: C4_4  and  C5_5 
REMARK    2  A    between atoms: C8_8  and  O9_9 
REMARK    3  A    between atoms: C10_11  and  O11_12 
REMARK    4  A    between atoms: C16_18  and  O17_19 
REMARK    5  A    between atoms: C19_22  and  O20_23 
ROOT
HETATM    1  O1          0      75.009 102.408  18.002  1.00  0.00    -0.286 OA
HETATM    2  C2          0      75.256 101.566  18.909  1.00  0.00     0.201 C 
HETATM    3  C3          0      74.673 100.311  18.946  1.00  0.00     0.067 C 
HETATM    4  C4          0      74.882  99.442  20.011  1.00  0.00     0.103 C 
HETATM    5  O13         0      75.674  99.825  20.997  1.00  0.00    -0.307 OA
HETATM    6  C14         0      76.222 101.020  21.029  1.00  0.00     0.107 C 
HETATM    7  C15         0      76.707 101.570  22.207  1.00  0.00     0.049 C 
HETATM    8  C16         0      77.047 102.915  22.289  1.00  0.00     0.093 C 
HETATM    9  C18         0      77.383 103.510  21.079  1.00  0.00     0.048 C 
HETATM   10  C19         0      76.953 102.960  19.879  1.00  0.00     0.096 C 
HETATM   11  C21         0      76.207 101.813  19.886  1.00  0.00     0.084 C 
ENDROOT
BRANCH  10  12
HETATM   12  O20         0      76.907 103.760  18.741  1.00  0.00    -0.359 OA
HETATM   13  H20         0      77.178 103.376  17.916  1.00  0.00     0.218 HD
ENDBRANCH  10  12
BRANCH   4  14
HETATM   14  C5          0      73.832  98.461  20.291  1.00  0.00     0.025 C 
HETATM   15  C6          0      73.620  97.927  21.554  1.00  0.00     0.004 C 
HETATM   16  C7          0      72.303  97.712  21.950  1.00  0.00     0.026 C 
HETATM   17  C8          0      71.239  97.895  21.074  1.00  0.00     0.112 C 
HETATM   18  C10         0      71.572  97.803  19.729  1.00  0.00     0.112 C 
HETATM   19  C12         0      72.875  98.106  19.350  1.00  0.00     0.028 C 
BRANCH  17  20
HETATM   20  O9          0      70.012  98.341  21.533  1.00  0.00    -0.357 OA
HETATM   21  H9          0      69.810  99.255  21.697  1.00  0.00     0.218 HD
ENDBRANCH  17  20
BRANCH  18  22
HETATM   22  O11         0      70.523  97.789  18.821  1.00  0.00    -0.357 OA
HETATM   23  H11         0      70.751  97.725  17.901  1.00  0.00     0.218 HD
ENDBRANCH  18  22
ENDBRANCH   4  14
BRANCH   8  24
HETATM   24  O17         0      76.748 103.675  23.425  1.00  0.00    -0.359 OA
HETATM   25  H17         0      76.292 103.302  24.169  1.00  0.00     0.218 HD
ENDBRANCH   8  24
TORSDOF 5
ENDMDL
MODEL 6
REMARK VINA RESULT:       0.0      5.206      9.155
REMARK  5 active torsions:
REMARK  status: ('A' for Active; 'I' for Inactive)
REMARK    1  A    between atoms: C4_4  and  C5_5 
REMARK    2  A    between atoms: C8_8  and  O9_9 
REMARK    3  A    between atoms: C10_11  and  O11_12 
REMARK    4  A    between atoms: C16_18  and  O17_19 
REMARK    5  A    between atoms: C19_22  and  O20_23 
ROOT
HETATM    1  O1          0      70.275  99.856  19.298  1.00  0.00    -0.286 OA
HETATM    2  C2          0      71.199 100.567  18.813  1.00  0.00     0.201 C 
HETATM    3  C3          0      71.976 100.159  17.743  1.00  0.00     0.067 C 
HETATM    4  C4          0      73.053 100.916  17.294  1.00  0.00     0.103 C 
HETATM    5  O13         0      73.320 102.060  17.898  1.00  0.00    -0.307 OA
HETATM    6  C14         0      72.637 102.475  18.943  1.00  0.00     0.107 C 
HETATM    7  C15         0      73.139 103.435  19.810  1.00  0.00     0.049 C 
HETATM    8  C16         0      72.537 103.684  21.038  1.00  0.00     0.093 C 
HETATM    9  C18         0      71.190 103.348  21.110  1.00  0.00     0.048 C 
HETATM   10  C19         0      70.644 102.427  20.227  1.00  0.00     0.096 C 
HETATM   11  C21         0      71.435 101.856  19.267  1.00  0.00     0.084 C 
ENDROOT
BRANCH  10  12
HETATM   12  O20         0      69.458 101.782  20.564  1.00  0.00    -0.359 OA
HETATM   13  H20         0      69.499 101.080  21.202  1.00  0.00     0.218 HD
ENDBRANCH  10  12
BRANCH   4  14
HETATM   14  C5          0      74.142 100.201  16.626  1.00  0.00     0.025 C 
HETATM   15  C6          0      75.449 100.665  16.612  1.00  0.00     0.004 C 
HETATM   16  C7          0      76.468  99.724  16.729  1.00  0.00     0.026 C 
HETATM   17  C8          0      76.204  98.359  16.723  1.00  0.00     0.112 C 
HETATM   18  C10         0      75.010  98.002  16.112  1.00  0.00     0.112 C 
HETATM   19  C12         0      73.978  98.932  16.085  1.00  0.00     0.028 C 
BRANCH  17  20
HETATM   20  O9          0      76.982  97.484  17.461  1.00  0.00    -0.357 OA
HETATM   21  H9          0      77.139  97.575  18.393  1.00  0.00     0.218 HD
ENDBRANCH  17  20
BRANCH  18  22
HETATM   22  O11         0      74.787  96.647  15.911  1.00  0.00    -0.357 OA
HETATM   23  H11         0      73.979  96.287  16.259  1.00  0.00     0.218 HD
ENDBRANCH  18  22
ENDBRANCH   4  14
BRANCH   8  24
HETATM   24  O17         0      73.297 103.925  22.187  1.00  0.00    -0.359 OA
HETATM   25  H17         0      73.849 104.694  22.268  1.00  0.00     0.218 HD
ENDBRANCH   8  24
TORSDOF 5
ENDMDL
MODEL 7
REMARK VINA RESULT:       0.0      7.170     10.416
REMARK  5 active torsions:
REMARK  status: ('A' for Active; 'I' for Inactive)
REMARK    1  A    between atoms: C4_4  and  C5_5 
REMARK    2  A    between atoms: C8_8  and  O9_9 
REMARK    3  A    between atoms: C10_11  and  O11_12 
REMARK    4  A    between atoms: C16_18  and  O17_19 
REMARK    5  A    between atoms: C19_22  and  O20_23 
ROOT
HETATM    1  O1          0      68.345  99.222  23.121  1.00  0.00    -0.286 OA
HETATM    2  C2          0      69.252  98.914  23.943  1.00  0.00     0.201 C 
HETATM    3  C3          0      70.564  98.690  23.563  1.00  0.00     0.067 C 
HETATM    4  C4          0      71.521  98.252  24.472  1.00  0.00     0.103 C 
HETATM    5  O13         0      71.163  98.067  25.730  1.00  0.00    -0.307 OA
HETATM    6  C14         0      69.923  98.229  26.136  1.00  0.00     0.107 C 
HETATM    7  C15         0      69.461  97.667  27.317  1.00  0.00     0.049 C 
HETATM    8  C16         0      68.104  97.623  27.613  1.00  0.00     0.093 C 
HETATM    9  C18         0      67.333  98.591  26.980  1.00  0.00     0.048 C 
HETATM   10  C19         0      67.786  99.207  25.822  1.00  0.00     0.096 C 
HETATM   11  C21         0      69.009  98.871  25.307  1.00  0.00     0.084 C 
ENDROOT
BRANCH  10  12
HETATM   12  O20         0      66.869  99.823  24.976  1.00  0.00    -0.359 OA
HETATM   13  H20         0      66.670  99.398  24.150  1.00  0.00     0.218 HD
ENDBRANCH  10  12
BRANCH   4  14
HETATM   14  C5          0      72.648  97.485  23.939  1.00  0.00     0.025 C 
HETATM   15  C6          0      73.350  96.557  24.695  1.00  0.00     0.004 C 
HETATM   16  C7          0      73.768  95.392  24.059  1.00  0.00     0.026 C 
HETATM   17  C8          0      73.614  95.213  22.689  1.00  0.00     0.112 C 
HETATM   18  C10         0      73.505  96.389  21.959  1.00  0.00     0.112 C 
HETATM   19  C12         0      73.004  97.518  22.597  1.00  0.00     0.028 C 
BRANCH  17  20
HETATM   20  O9          0      73.378  93.956  22.160  1.00  0.00    -0.357 OA
HETATM   21  H9          0      74.061  93.389  21.822  1.00  0.00     0.218 HD
ENDBRANCH  17  20
BRANCH  18  22
HETATM   22  O11         0      73.539  96.277  20.577  1.00  0.00    -0.357 OA
HETATM   23  H11         0      74.397  96.248  20.168  1.00  0.00     0.218 HD
ENDBRANCH  18  22
ENDBRANCH   4  14
BRANCH   8  24
HETATM   24  O17         0      67.525  96.501  28.216  1.00  0.00    -0.359 OA
HETATM   25  H17         0      67.893  96.110  29.000  1.00  0.00     0.218 HD
ENDBRANCH   8  24
TORSDOF 5
ENDMDL
MODEL 8
REMARK VINA RESULT:       0.0      4.940      8.361
REMARK  5 active torsions:
REMARK  status: ('A' for Active; 'I' for Inactive)
REMARK    1  A    between atoms: C4_4  and  C5_5 
REMARK    2  A    between atoms: C8_8  and  O9_9 
REMARK    3  A    between atoms: C10_11  and  O11_12 
REMARK    4  A    between atoms: C16_18  and  O17_19 
REMARK    5  A    between atoms: C19_22  and  O20_23 
ROOT
HETATM    1  O1          0      68.841 100.113  23.967  1.00  0.00    -0.286 OA
HETATM    2  C2          0      69.809  99.712  23.264  1.00  0.00     0.201 C 
HETATM    3  C3          0      71.130  99.966  23.591  1.00  0.00     0.067 C 
HETATM    4  C4          0      72.172  99.603  22.747  1.00  0.00     0.103 C 
HETATM    5  O13         0      71.886  98.983  21.615  1.00  0.00    -0.307 OA
HETATM    6  C14         0      70.648  98.751  21.239  1.00  0.00     0.107 C 
HETATM    7  C15         0      70.324  98.479  19.918  1.00  0.00     0.049 C 
HETATM    8  C16         0      69.005  98.488  19.481  1.00  0.00     0.093 C 
HETATM    9  C18         0      68.058  98.249  20.470  1.00  0.00     0.048 C 
HETATM   10  C19         0      68.364  98.467  21.806  1.00  0.00     0.096 C 
HETATM   11  C21         0      69.613  98.903  22.155  1.00  0.00     0.084 C 
ENDROOT
BRANCH  10  12
HETATM   12  O20         0      67.330  98.651  22.719  1.00  0.00    -0.359 OA
HETATM   13  H20         0      67.526  98.543  23.642  1.00  0.00     0.218 HD
ENDBRANCH  10  12
BRANCH   4  14
HETATM   14  C5          0      73.405 100.389  22.827  1.00  0.00     0.025 C 
HETATM   15  C6          0      74.280 100.527  21.760  1.00  0.00     0.004 C 
HETATM   16  C7          0      74.883 101.767  21.576  1.00  0.00     0.026 C 
HETATM   17  C8          0      74.728 102.797  22.498  1.00  0.00     0.112 C 
HETATM   18  C10         0      74.391 102.383  23.780  1.00  0.00     0.112 C 
HETATM   19  C12         0      73.713 101.179  23.928  1.00  0.00     0.028 C 
BRANCH  17  20
HETATM   20  O9          0      74.706 104.118  22.087  1.00  0.00    -0.357 OA
HETATM   21  H9          0      75.478 104.670  22.043  1.00  0.00     0.218 HD
ENDBRANCH  17  20
BRANCH  18  22
HETATM   22  O11         0      74.409 103.347  24.777  1.00  0.00    -0.357 OA
HETATM   23  H11         0      74.301 103.044  25.671  1.00  0.00     0.218 HD
ENDBRANCH  18  22
ENDBRANCH   4  14
BRANCH   8  24
HETATM   24  O17         0      68.652  99.025  18.238  1.00  0.00    -0.359 OA
HETATM   25  H17         0      68.912  99.902  17.981  1.00  0.00     0.218 HD
ENDBRANCH   8  24
TORSDOF 5
ENDMDL
MODEL 9
REMARK VINA RESULT:       0.0      3.105      5.006
REMARK  5 active torsions:
REMARK  status: ('A' for Active; 'I' for Inactive)
REMARK    1  A    between atoms: C4_4  and  C5_5 
REMARK    2  A    between atoms: C8_8  and  O9_9 
REMARK    3  A    between atoms: C10_11  and  O11_12 
REMARK    4  A    between atoms: C16_18  and  O17_19 
REMARK    5  A    between atoms: C19_22  and  O20_23 
ROOT
HETATM    1  O1          0      65.663 100.968  18.678  1.00  0.00    -0.286 OA
HETATM    2  C2          0      65.299 102.087  19.133  1.00  0.00     0.201 C 
HETATM    3  C3          0      65.314 102.390  20.484  1.00  0.00     0.067 C 
HETATM    4  C4          0      64.811 103.593  20.967  1.00  0.00     0.103 C 
HETATM    5  O13         0      64.328 104.470  20.105  1.00  0.00    -0.307 OA
HETATM    6  C14         0      64.256 104.218  18.816  1.00  0.00     0.107 C 
HETATM    7  C15         0      63.410 104.931  17.978  1.00  0.00     0.049 C 
HETATM    8  C16         0      63.147 104.501  16.683  1.00  0.00     0.093 C 
HETATM    9  C18         0      64.129 103.693  16.122  1.00  0.00     0.048 C 
HETATM   10  C19         0      65.021 103.002  16.930  1.00  0.00     0.096 C 
HETATM   11  C21         0      64.944 103.130  18.291  1.00  0.00     0.084 C 
ENDROOT
BRANCH  10  12
HETATM   12  O20         0      65.688 101.894  16.416  1.00  0.00    -0.359 OA
HETATM   13  H20         0      65.243 101.056  16.443  1.00  0.00     0.218 HD
ENDBRANCH  10  12
BRANCH   4  14
HETATM   14  C5          0      64.309 103.605  22.342  1.00  0.00     0.025 C 
HETATM   15  C6          0      63.333 104.489  22.778  1.00  0.00     0.004 C 
HETATM   16  C7          0      62.383 104.010  23.674  1.00  0.00     0.026 C 
HETATM   17  C8          0      62.476 102.735  24.223  1.00  0.00     0.112 C 
HETATM   18  C10         0      63.757 102.200  24.233  1.00  0.00     0.112 C 
HETATM   19  C12         0      64.662 102.636  23.272  1.00  0.00     0.028 C 
BRANCH  17  20
HETATM   20  O9          0      61.338 102.009  24.526  1.00  0.00    -0.357 OA
HETATM   21  H9          0      61.277 101.404  25.257  1.00  0.00     0.218 HD
ENDBRANCH  17  20
BRANCH  18  22
HETATM   22  O11         0      63.940 101.018  24.936  1.00  0.00    -0.357 OA
HETATM   23  H11         0      63.447 100.917  25.742  1.00  0.00     0.218 HD
ENDBRANCH  18  22
ENDBRANCH   4  14
BRANCH   8  24
HETATM   24  O17         0      61.864 104.591  16.132  1.00  0.00    -0.359 OA
HETATM   25  H17         0      61.119 104.877  16.646  1.00  0.00     0.218 HD
ENDBRANCH   8  24
TORSDOF 5
ENDMDL
