MODEL 1
REMARK VINA RESULT:      -4.4      0.000      0.000
REMARK  5 active torsions:
REMARK  status: ('A' for Active; 'I' for Inactive)
REMARK    1  A    between atoms: C4_4  and  C5_5 
REMARK    2  A    between atoms: C8_8  and  O9_9 
REMARK    3  A    between atoms: C10_11  and  O11_12 
REMARK    4  A    between atoms: C16_18  and  O17_19 
REMARK    5  A    between atoms: C19_22  and  O20_23 
ROOT
HETATM    1  O1          0      49.201  87.515  11.479  1.00  0.00    -0.286 OA
HETATM    2  C2          0      48.327  86.686  11.856  1.00  0.00     0.201 C 
HETATM    3  C3          0      47.237  87.046  12.630  1.00  0.00     0.067 C 
HETATM    4  C4          0      46.344  86.097  13.117  1.00  0.00     0.103 C 
HETATM    5  O13         0      46.539  84.826  12.811  1.00  0.00    -0.307 OA
HETATM    6  C14         0      47.578  84.427  12.110  1.00  0.00     0.107 C 
HETATM    7  C15         0      48.005  83.107  12.124  1.00  0.00     0.049 C 
HETATM    8  C16         0      49.238  82.742  11.596  1.00  0.00     0.093 C 
HETATM    9  C18         0      49.740  83.603  10.627  1.00  0.00     0.048 C 
HETATM   10  C19         0      49.300  84.918  10.556  1.00  0.00     0.096 C 
HETATM   11  C21         0      48.352  85.365  11.435  1.00  0.00     0.084 C 
ENDROOT
BRANCH  10  12
HETATM   12  O20         0      50.087  85.865   9.908  1.00  0.00    -0.359 OA
HETATM   13  H20         0      50.419  86.593  10.419  1.00  0.00     0.218 HD
ENDBRANCH  10  12
BRANCH   4  14
HETATM   14  C5          0      45.628  86.422  14.352  1.00  0.00     0.025 C 
HETATM   15  C6          0      44.410  87.087  14.362  1.00  0.00     0.004 C 
HETATM   16  C7          0      43.464  86.684  15.299  1.00  0.00     0.026 C 
HETATM   17  C8          0      43.764  85.746  16.281  1.00  0.00     0.112 C 
HETATM   18  C10         0      45.115  85.631  16.580  1.00  0.00     0.112 C 
HETATM   19  C12         0      46.039  85.959  15.595  1.00  0.00     0.028 C 
BRANCH  17  20
HETATM   20  O9          0      42.797  84.871  16.744  1.00  0.00    -0.357 OA
HETATM   21  H9          0      42.724  83.967  16.462  1.00  0.00     0.218 HD
ENDBRANCH  17  20
BRANCH  18  22
HETATM   22  O11         0      45.452  84.852  17.677  1.00  0.00    -0.357 OA
HETATM   23  H11         0      45.088  83.974  17.710  1.00  0.00     0.218 HD
ENDBRANCH  18  22
ENDBRANCH   4  14
BRANCH   8  24
HETATM   24  O17         0      50.048  81.791  12.225  1.00  0.00    -0.359 OA
HETATM   25  H17         0      50.324  81.889  13.129  1.00  0.00     0.218 HD
ENDBRANCH   8  24
TORSDOF 5
ENDMDL
MODEL 2
REMARK VINA RESULT:      -4.4      1.851      5.913
REMARK  5 active torsions:
REMARK  status: ('A' for Active; 'I' for Inactive)
REMARK    1  A    between atoms: C4_4  and  C5_5 
REMARK    2  A    between atoms: C8_8  and  O9_9 
REMARK    3  A    between atoms: C10_11  and  O11_12 
REMARK    4  A    between atoms: C16_18  and  O17_19 
REMARK    5  A    between atoms: C19_22  and  O20_23 
ROOT
HETATM    1  O1          0      48.421  87.411  11.253  1.00  0.00    -0.286 OA
HETATM    2  C2          0      48.245  86.601  12.204  1.00  0.00     0.201 C 
HETATM    3  C3          0      48.910  85.390  12.290  1.00  0.00     0.067 C 
HETATM    4  C4          0      48.623  84.471  13.294  1.00  0.00     0.103 C 
HETATM    5  O13         0      47.705  84.780  14.193  1.00  0.00    -0.307 OA
HETATM    6  C14         0      47.019  85.900  14.135  1.00  0.00     0.107 C 
HETATM    7  C15         0      45.814  86.054  14.806  1.00  0.00     0.049 C 
HETATM    8  C16         0      44.974  87.129  14.543  1.00  0.00     0.093 C 
HETATM    9  C18         0      45.604  88.253  14.022  1.00  0.00     0.048 C 
HETATM   10  C19         0      46.832  88.141  13.386  1.00  0.00     0.096 C 
HETATM   11  C21         0      47.436  86.917  13.285  1.00  0.00     0.084 C 
ENDROOT
BRANCH  10  12
HETATM   12  O20         0      47.238  89.143  12.509  1.00  0.00    -0.359 OA
HETATM   13  H20         0      47.149  90.045  12.792  1.00  0.00     0.218 HD
ENDBRANCH  10  12
BRANCH   4  14
HETATM   14  C5          0      48.876  83.059  13.001  1.00  0.00     0.025 C 
HETATM   15  C6          0      48.258  82.026  13.690  1.00  0.00     0.004 C 
HETATM   16  C7          0      47.879  80.902  12.963  1.00  0.00     0.026 C 
HETATM   17  C8          0      48.222  80.750  11.624  1.00  0.00     0.112 C 
HETATM   18  C10         0      49.331  81.483  11.223  1.00  0.00     0.112 C 
HETATM   19  C12         0      49.637  82.649  11.914  1.00  0.00     0.028 C 
BRANCH  17  20
HETATM   20  O9          0      47.382  80.087  10.747  1.00  0.00    -0.357 OA
HETATM   21  H9          0      47.200  79.156  10.793  1.00  0.00     0.218 HD
ENDBRANCH  17  20
BRANCH  18  22
HETATM   22  O11         0      49.829  81.226   9.953  1.00  0.00    -0.357 OA
HETATM   23  H11         0      49.934  80.313   9.709  1.00  0.00     0.218 HD
ENDBRANCH  18  22
ENDBRANCH   4  14
BRANCH   8  24
HETATM   24  O17         0      43.584  86.972  14.485  1.00  0.00    -0.359 OA
HETATM   25  H17         0      43.085  86.666  15.233  1.00  0.00     0.218 HD
ENDBRANCH   8  24
TORSDOF 5
ENDMDL
MODEL 3
REMARK VINA RESULT:      -4.3      2.366      7.652
REMARK  5 active torsions:
REMARK  status: ('A' for Active; 'I' for Inactive)
REMARK    1  A    between atoms: C4_4  and  C5_5 
REMARK    2  A    between atoms: C8_8  and  O9_9 
REMARK    3  A    between atoms: C10_11  and  O11_12 
REMARK    4  A    between atoms: C16_18  and  O17_19 
REMARK    5  A    between atoms: C19_22  and  O20_23 
ROOT
HETATM    1  O1          0      42.617  85.010  16.219  1.00  0.00    -0.286 OA
HETATM    2  C2          0      43.229  86.010  15.752  1.00  0.00     0.201 C 
HETATM    3  C3          0      44.105  85.922  14.685  1.00  0.00     0.067 C 
HETATM    4  C4          0      44.844  87.019  14.256  1.00  0.00     0.103 C 
HETATM    5  O13         0      44.683  88.175  14.877  1.00  0.00    -0.307 OA
HETATM    6  C14         0      43.892  88.303  15.920  1.00  0.00     0.107 C 
HETATM    7  C15         0      44.015  89.366  16.804  1.00  0.00     0.049 C 
HETATM    8  C16         0      43.358  89.365  18.028  1.00  0.00     0.093 C 
HETATM    9  C18         0      42.219  88.571  18.083  1.00  0.00     0.048 C 
HETATM   10  C19         0      42.042  87.529  17.184  1.00  0.00     0.096 C 
HETATM   11  C21         0      42.988  87.291  16.224  1.00  0.00     0.084 C 
ENDROOT
BRANCH  10  12
HETATM   12  O20         0      41.162  86.498  17.501  1.00  0.00    -0.359 OA
HETATM   13  H20         0      40.521  86.654  18.185  1.00  0.00     0.218 HD
ENDBRANCH  10  12
BRANCH   4  14
HETATM   14  C5          0      46.119  86.750  13.590  1.00  0.00     0.025 C 
HETATM   15  C6          0      46.539  85.469  13.259  1.00  0.00     0.004 C 
HETATM   16  C7          0      47.208  85.302  12.051  1.00  0.00     0.026 C 
HETATM   17  C8          0      47.567  86.387  11.260  1.00  0.00     0.112 C 
HETATM   18  C10         0      47.680  87.591  11.943  1.00  0.00     0.112 C 
HETATM   19  C12         0      46.934  87.764  13.103  1.00  0.00     0.028 C 
BRANCH  17  20
HETATM   20  O9          0      47.592  86.282   9.880  1.00  0.00    -0.357 OA
HETATM   21  H9          0      46.828  86.402   9.328  1.00  0.00     0.218 HD
ENDBRANCH  17  20
BRANCH  18  22
HETATM   22  O11         0      48.216  88.662  11.244  1.00  0.00    -0.357 OA
HETATM   23  H11         0      49.148  88.632  11.058  1.00  0.00     0.218 HD
ENDBRANCH  18  22
ENDBRANCH   4  14
BRANCH   8  24
HETATM   24  O17         0      43.977  89.844  19.188  1.00  0.00    -0.359 OA
HETATM   25  H17         0      43.821  89.448  20.037  1.00  0.00     0.218 HD
ENDBRANCH   8  24
TORSDOF 5
ENDMDL
MODEL 4
REMARK VINA RESULT:      -4.2      1.668      2.550
REMARK  5 active torsions:
REMARK  status: ('A' for Active; 'I' for Inactive)
REMARK    1  A    between atoms: C4_4  and  C5_5 
REMARK    2  A    between atoms: C8_8  and  O9_9 
REMARK    3  A    between atoms: C10_11  and  O11_12 
REMARK    4  A    between atoms: C16_18  and  O17_19 
REMARK    5  A    between atoms: C19_22  and  O20_23 
ROOT
HETATM    1  O1          0      47.227  89.388  13.294  1.00  0.00    -0.286 OA
HETATM    2  C2          0      46.568  88.327  13.475  1.00  0.00     0.201 C 
HETATM    3  C3          0      45.501  88.247  14.353  1.00  0.00     0.067 C 
HETATM    4  C4          0      44.858  87.042  14.610  1.00  0.00     0.103 C 
HETATM    5  O13         0      45.271  85.955  13.982  1.00  0.00    -0.307 OA
HETATM    6  C14         0      46.303  85.969  13.167  1.00  0.00     0.107 C 
HETATM    7  C15         0      46.980  84.807  12.826  1.00  0.00     0.049 C 
HETATM    8  C16         0      48.210  84.852  12.180  1.00  0.00     0.093 C 
HETATM    9  C18         0      48.447  86.009  11.448  1.00  0.00     0.048 C 
HETATM   10  C19         0      47.752  87.177  11.732  1.00  0.00     0.096 C 
HETATM   11  C21         0      46.815  87.185  12.729  1.00  0.00     0.084 C 
ENDROOT
BRANCH  10  12
HETATM   12  O20         0      48.279  88.398  11.322  1.00  0.00    -0.359 OA
HETATM   13  H20         0      48.660  88.450  10.454  1.00  0.00     0.218 HD
ENDBRANCH  10  12
BRANCH   4  14
HETATM   14  C5          0      44.202  86.897  15.911  1.00  0.00     0.025 C 
HETATM   15  C6          0      43.428  87.899  16.479  1.00  0.00     0.004 C 
HETATM   16  C7          0      42.282  87.515  17.168  1.00  0.00     0.026 C 
HETATM   17  C8          0      41.985  86.177  17.402  1.00  0.00     0.112 C 
HETATM   18  C10         0      43.081  85.325  17.370  1.00  0.00     0.112 C 
HETATM   19  C12         0      44.181  85.694  16.604  1.00  0.00     0.028 C 
BRANCH  17  20
HETATM   20  O9          0      40.673  85.739  17.445  1.00  0.00    -0.357 OA
HETATM   21  H9          0      39.992  86.053  16.861  1.00  0.00     0.218 HD
ENDBRANCH  17  20
BRANCH  18  22
HETATM   22  O11         0      42.872  84.017  17.781  1.00  0.00    -0.357 OA
HETATM   23  H11         0      41.975  83.760  17.960  1.00  0.00     0.218 HD
ENDBRANCH  18  22
ENDBRANCH   4  14
BRANCH   8  24
HETATM   24  O17         0      49.243  83.969  12.516  1.00  0.00    -0.359 OA
HETATM   25  H17         0      50.089  84.005  12.086  1.00  0.00     0.218 HD
ENDBRANCH   8  24
TORSDOF 5
ENDMDL
MODEL 5
REMARK VINA RESULT:      -4.2      1.828      2.431
REMARK  5 active torsions:
REMARK  status: ('A' for Active; 'I' for Inactive)
REMARK    1  A    between atoms: C4_4  and  C5_5 
REMARK    2  A    between atoms: C8_8  and  O9_9 
REMARK    3  A    between atoms: C10_11  and  O11_12 
REMARK    4  A    between atoms: C16_18  and  O17_19 
REMARK    5  A    between atoms: C19_22  and  O20_23 
ROOT
HETATM    1  O1          0      50.394  85.785  11.010  1.00  0.00    -0.286 OA
HETATM    2  C2          0      49.287  85.400  11.477  1.00  0.00     0.201 C 
HETATM    3  C3          0      48.373  86.266  12.051  1.00  0.00     0.067 C 
HETATM    4  C4          0      47.207  85.802  12.650  1.00  0.00     0.103 C 
HETATM    5  O13         0      46.965  84.503  12.648  1.00  0.00    -0.307 OA
HETATM    6  C14         0      47.818  83.635  12.150  1.00  0.00     0.107 C 
HETATM    7  C15         0      47.774  82.290  12.490  1.00  0.00     0.049 C 
HETATM    8  C16         0      48.818  81.431  12.169  1.00  0.00     0.093 C 
HETATM    9  C18         0      49.593  81.827  11.085  1.00  0.00     0.048 C 
HETATM   10  C19         0      49.623  83.157  10.689  1.00  0.00     0.096 C 
HETATM   11  C21         0      48.870  84.082  11.359  1.00  0.00     0.084 C 
ENDROOT
BRANCH  10  12
HETATM   12  O20         0      50.691  83.614   9.924  1.00  0.00    -0.359 OA
HETATM   13  H20         0      50.944  84.525  10.013  1.00  0.00     0.218 HD
ENDBRANCH  10  12
BRANCH   4  14
HETATM   14  C5          0      46.628  86.625  13.713  1.00  0.00     0.025 C 
HETATM   15  C6          0      47.160  87.849  14.091  1.00  0.00     0.004 C 
HETATM   16  C7          0      46.269  88.865  14.422  1.00  0.00     0.026 C 
HETATM   17  C8          0      44.899  88.636  14.504  1.00  0.00     0.112 C 
HETATM   18  C10         0      44.546  87.314  14.736  1.00  0.00     0.112 C 
HETATM   19  C12         0      45.417  86.314  14.319  1.00  0.00     0.028 C 
BRANCH  17  20
HETATM   20  O9          0      43.993  89.626  14.166  1.00  0.00    -0.357 OA
HETATM   21  H9          0      43.862  90.418  14.674  1.00  0.00     0.218 HD
ENDBRANCH  17  20
BRANCH  18  22
HETATM   22  O11         0      43.210  87.060  15.015  1.00  0.00    -0.357 OA
HETATM   23  H11         0      42.661  86.797  14.285  1.00  0.00     0.218 HD
ENDBRANCH  18  22
ENDBRANCH   4  14
BRANCH   8  24
HETATM   24  O17         0      49.251  80.445  13.062  1.00  0.00    -0.359 OA
HETATM   25  H17         0      48.671  79.758  13.368  1.00  0.00     0.218 HD
ENDBRANCH   8  24
TORSDOF 5
ENDMDL
MODEL 6
REMARK VINA RESULT:      -4.1      2.052      2.854
REMARK  5 active torsions:
REMARK  status: ('A' for Active; 'I' for Inactive)
REMARK    1  A    between atoms: C4_4  and  C5_5 
REMARK    2  A    between atoms: C8_8  and  O9_9 
REMARK    3  A    between atoms: C10_11  and  O11_12 
REMARK    4  A    between atoms: C16_18  and  O17_19 
REMARK    5  A    between atoms: C19_22  and  O20_23 
ROOT
HETATM    1  O1          0      49.544  83.351  16.401  1.00  0.00    -0.286 OA
HETATM    2  C2          0      48.893  83.942  15.496  1.00  0.00     0.201 C 
HETATM    3  C3          0      48.039  85.000  15.754  1.00  0.00     0.067 C 
HETATM    4  C4          0      47.257  85.567  14.754  1.00  0.00     0.103 C 
HETATM    5  O13         0      47.353  85.088  13.526  1.00  0.00    -0.307 OA
HETATM    6  C14         0      48.120  84.061  13.234  1.00  0.00     0.107 C 
HETATM    7  C15         0      47.932  83.313  12.080  1.00  0.00     0.049 C 
HETATM    8  C16         0      48.567  82.090  11.901  1.00  0.00     0.093 C 
HETATM    9  C18         0      49.741  81.928  12.626  1.00  0.00     0.048 C 
HETATM   10  C19         0      49.983  82.692  13.759  1.00  0.00     0.096 C 
HETATM   11  C21         0      49.065  83.626  14.157  1.00  0.00     0.084 C 
ENDROOT
BRANCH  10  12
HETATM   12  O20         0      50.905  82.243  14.699  1.00  0.00    -0.359 OA
HETATM   13  H20         0      50.891  81.323  14.933  1.00  0.00     0.218 HD
ENDBRANCH  10  12
BRANCH   4  14
HETATM   14  C5          0      46.007  86.209  15.165  1.00  0.00     0.025 C 
HETATM   15  C6          0      44.941  86.403  14.298  1.00  0.00     0.004 C 
HETATM   16  C7          0      43.658  86.233  14.808  1.00  0.00     0.026 C 
HETATM   17  C8          0      43.434  86.010  16.162  1.00  0.00     0.112 C 
HETATM   18  C10         0      44.448  86.458  16.998  1.00  0.00     0.112 C 
HETATM   19  C12         0      45.738  86.537  16.487  1.00  0.00     0.028 C 
BRANCH  17  20
HETATM   20  O9          0      42.382  85.218  16.586  1.00  0.00    -0.357 OA
HETATM   21  H9          0      41.728  84.851  16.002  1.00  0.00     0.218 HD
ENDBRANCH  17  20
BRANCH  18  22
HETATM   22  O11         0      44.195  86.433  18.362  1.00  0.00    -0.357 OA
HETATM   23  H11         0      44.885  86.097  18.922  1.00  0.00     0.218 HD
ENDBRANCH  18  22
ENDBRANCH   4  14
BRANCH   8  24
HETATM   24  O17         0      47.907  81.004  11.317  1.00  0.00    -0.359 OA
HETATM   25  H17         0      47.162  80.589  11.735  1.00  0.00     0.218 HD
ENDBRANCH   8  24
TORSDOF 5
ENDMDL
MODEL 7
REMARK VINA RESULT:      -4.1      2.204      6.727
REMARK  5 active torsions:
REMARK  status: ('A' for Active; 'I' for Inactive)
REMARK    1  A    between atoms: C4_4  and  C5_5 
REMARK    2  A    between atoms: C8_8  and  O9_9 
REMARK    3  A    between atoms: C10_11  and  O11_12 
REMARK    4  A    between atoms: C16_18  and  O17_19 
REMARK    5  A    between atoms: C19_22  and  O20_23 
ROOT
HETATM    1  O1          0      44.280  89.791  14.681  1.00  0.00    -0.286 OA
HETATM    2  C2          0      44.806  88.657  14.846  1.00  0.00     0.201 C 
HETATM    3  C3          0      45.788  88.156  14.007  1.00  0.00     0.067 C 
HETATM    4  C4          0      46.277  86.863  14.149  1.00  0.00     0.103 C 
HETATM    5  O13         0      45.803  86.108  15.124  1.00  0.00    -0.307 OA
HETATM    6  C14         0      44.844  86.521  15.925  1.00  0.00     0.107 C 
HETATM    7  C15         0      44.077  85.633  16.665  1.00  0.00     0.049 C 
HETATM    8  C16         0      42.913  86.044  17.304  1.00  0.00     0.093 C 
HETATM    9  C18         0      42.858  87.399  17.608  1.00  0.00     0.048 C 
HETATM   10  C19         0      43.648  88.309  16.919  1.00  0.00     0.096 C 
HETATM   11  C21         0      44.499  87.868  15.944  1.00  0.00     0.084 C 
ENDROOT
BRANCH  10  12
HETATM   12  O20         0      43.286  89.653  16.911  1.00  0.00    -0.359 OA
HETATM   13  H20         0      43.095  90.068  17.743  1.00  0.00     0.218 HD
ENDBRANCH  10  12
BRANCH   4  14
HETATM   14  C5          0      46.811  86.213  12.950  1.00  0.00     0.025 C 
HETATM   15  C6          0      47.612  86.873  12.030  1.00  0.00     0.004 C 
HETATM   16  C7          0      48.664  86.161  11.463  1.00  0.00     0.026 C 
HETATM   17  C8          0      48.834  84.801  11.698  1.00  0.00     0.112 C 
HETATM   18  C10         0      47.680  84.129  12.080  1.00  0.00     0.112 C 
HETATM   19  C12         0      46.679  84.849  12.722  1.00  0.00     0.028 C 
BRANCH  17  20
HETATM   20  O9          0      50.099  84.242  11.746  1.00  0.00    -0.357 OA
HETATM   21  H9          0      50.386  83.644  12.426  1.00  0.00     0.218 HD
ENDBRANCH  17  20
BRANCH  18  22
HETATM   22  O11         0      47.750  82.745  12.143  1.00  0.00    -0.357 OA
HETATM   23  H11         0      48.098  82.368  12.943  1.00  0.00     0.218 HD
ENDBRANCH  18  22
ENDBRANCH   4  14
BRANCH   8  24
HETATM   24  O17         0      41.770  85.237  17.327  1.00  0.00    -0.359 OA
HETATM   25  H17         0      41.293  85.071  18.131  1.00  0.00     0.218 HD
ENDBRANCH   8  24
TORSDOF 5
ENDMDL
MODEL 8
REMARK VINA RESULT:      -4.0      1.858      6.670
REMARK  5 active torsions:
REMARK  status: ('A' for Active; 'I' for Inactive)
REMARK    1  A    between atoms: C4_4  and  C5_5 
REMARK    2  A    between atoms: C8_8  and  O9_9 
REMARK    3  A    between atoms: C10_11  and  O11_12 
REMARK    4  A    between atoms: C16_18  and  O17_19 
REMARK    5  A    between atoms: C19_22  and  O20_23 
ROOT
HETATM    1  O1          0      48.470  86.139  16.388  1.00  0.00    -0.286 OA
HETATM    2  C2          0      47.641  85.894  15.469  1.00  0.00     0.201 C 
HETATM    3  C3          0      47.949  85.112  14.369  1.00  0.00     0.067 C 
HETATM    4  C4          0      47.052  84.941  13.321  1.00  0.00     0.103 C 
HETATM    5  O13         0      45.870  85.528  13.396  1.00  0.00    -0.307 OA
HETATM    6  C14         0      45.540  86.310  14.400  1.00  0.00     0.107 C 
HETATM    7  C15         0      44.502  87.226  14.303  1.00  0.00     0.049 C 
HETATM    8  C16         0      44.323  88.217  15.261  1.00  0.00     0.093 C 
HETATM    9  C18         0      44.850  87.926  16.513  1.00  0.00     0.048 C 
HETATM   10  C19         0      45.857  86.981  16.652  1.00  0.00     0.096 C 
HETATM   11  C21         0      46.323  86.319  15.550  1.00  0.00     0.084 C 
ENDROOT
BRANCH  10  12
HETATM   12  O20         0      46.662  87.007  17.787  1.00  0.00    -0.359 OA
HETATM   13  H20         0      46.321  87.430  18.566  1.00  0.00     0.218 HD
ENDBRANCH  10  12
BRANCH   4  14
HETATM   14  C5          0      47.611  84.650  12.000  1.00  0.00     0.025 C 
HETATM   15  C6          0      47.497  85.522  10.927  1.00  0.00     0.004 C 
HETATM   16  C7          0      48.590  85.641  10.074  1.00  0.00     0.026 C 
HETATM   17  C8          0      49.708  84.824  10.203  1.00  0.00     0.112 C 
HETATM   18  C10         0      49.474  83.619  10.851  1.00  0.00     0.112 C 
HETATM   19  C12         0      48.427  83.552  11.763  1.00  0.00     0.028 C 
BRANCH  17  20
HETATM   20  O9          0      50.971  85.298   9.893  1.00  0.00    -0.357 OA
HETATM   21  H9          0      51.167  85.809   9.116  1.00  0.00     0.218 HD
ENDBRANCH  17  20
BRANCH  18  22
HETATM   22  O11         0      50.505  82.690  10.841  1.00  0.00    -0.357 OA
HETATM   23  H11         0      50.797  82.381   9.991  1.00  0.00     0.218 HD
ENDBRANCH  18  22
ENDBRANCH   4  14
BRANCH   8  24
HETATM   24  O17         0      43.952  89.518  14.902  1.00  0.00    -0.359 OA
HETATM   25  H17         0      44.225  90.273  15.411  1.00  0.00     0.218 HD
ENDBRANCH   8  24
TORSDOF 5
ENDMDL
MODEL 9
REMARK VINA RESULT:      -3.8      4.261      6.998
REMARK  5 active torsions:
REMARK  status: ('A' for Active; 'I' for Inactive)
REMARK    1  A    between atoms: C4_4  and  C5_5 
REMARK    2  A    between atoms: C8_8  and  O9_9 
REMARK    3  A    between atoms: C10_11  and  O11_12 
REMARK    4  A    between atoms: C16_18  and  O17_19 
REMARK    5  A    between atoms: C19_22  and  O20_23 
ROOT
HETATM    1  O1          0      43.758  88.849  18.596  1.00  0.00    -0.286 OA
HETATM    2  C2          0      43.180  87.835  18.117  1.00  0.00     0.201 C 
HETATM    3  C3          0      42.384  86.995  18.878  1.00  0.00     0.067 C 
HETATM    4  C4          0      41.843  85.829  18.350  1.00  0.00     0.103 C 
HETATM    5  O13         0      42.083  85.534  17.084  1.00  0.00    -0.307 OA
HETATM    6  C14         0      42.861  86.277  16.329  1.00  0.00     0.107 C 
HETATM    7  C15         0      43.433  85.786  15.164  1.00  0.00     0.049 C 
HETATM    8  C16         0      44.447  86.477  14.511  1.00  0.00     0.093 C 
HETATM    9  C18         0      44.471  87.846  14.749  1.00  0.00     0.048 C 
HETATM   10  C19         0      43.868  88.376  15.881  1.00  0.00     0.096 C 
HETATM   11  C21         0      43.229  87.546  16.762  1.00  0.00     0.084 C 
ENDROOT
BRANCH  10  12
HETATM   12  O20         0      44.257  89.633  16.335  1.00  0.00    -0.359 OA
HETATM   13  H20         0      43.594  90.190  16.725  1.00  0.00     0.218 HD
ENDBRANCH  10  12
BRANCH   4  14
HETATM   14  C5          0      41.557  84.740  19.286  1.00  0.00     0.025 C 
HETATM   15  C6          0      40.274  84.268  19.522  1.00  0.00     0.004 C 
HETATM   16  C7          0      40.113  82.898  19.698  1.00  0.00     0.026 C 
HETATM   17  C8          0      41.205  82.039  19.772  1.00  0.00     0.112 C 
HETATM   18  C10         0      42.393  82.644  20.158  1.00  0.00     0.112 C 
HETATM   19  C12         0      42.562  83.997  19.893  1.00  0.00     0.028 C 
BRANCH  17  20
HETATM   20  O9          0      41.123  80.745  19.288  1.00  0.00    -0.357 OA
HETATM   21  H9          0      41.328  80.502  18.393  1.00  0.00     0.218 HD
ENDBRANCH  17  20
BRANCH  18  22
HETATM   22  O11         0      43.465  81.806  20.430  1.00  0.00    -0.357 OA
HETATM   23  H11         0      43.644  81.117  19.800  1.00  0.00     0.218 HD
ENDBRANCH  18  22
ENDBRANCH   4  14
BRANCH   8  24
HETATM   24  O17         0      45.538  85.809  13.946  1.00  0.00    -0.359 OA
HETATM   25  H17         0      46.284  85.540  14.469  1.00  0.00     0.218 HD
ENDBRANCH   8  24
TORSDOF 5
ENDMDL
