MODEL 1
REMARK VINA RESULT:      -0.0      0.000      0.000
REMARK  5 active torsions:
REMARK  status: ('A' for Active; 'I' for Inactive)
REMARK    1  A    between atoms: C4_4  and  C5_5 
REMARK    2  A    between atoms: C8_8  and  O9_9 
REMARK    3  A    between atoms: C10_11  and  O11_12 
REMARK    4  A    between atoms: C16_18  and  O17_19 
REMARK    5  A    between atoms: C19_22  and  O20_23 
ROOT
HETATM    1  O1          0      40.226 124.326 -31.523  1.00  0.00    -0.286 OA
HETATM    2  C2          0      40.877 125.367 -31.813  1.00  0.00     0.201 C 
HETATM    3  C3          0      41.199 125.712 -33.115  1.00  0.00     0.067 C 
HETATM    4  C4          0      42.004 126.809 -33.400  1.00  0.00     0.103 C 
HETATM    5  O13         0      42.452 127.545 -32.398  1.00  0.00    -0.307 OA
HETATM    6  C14         0      42.208 127.239 -31.142  1.00  0.00     0.107 C 
HETATM    7  C15         0      42.978 127.743 -30.104  1.00  0.00     0.049 C 
HETATM    8  C16         0      42.883 127.226 -28.818  1.00  0.00     0.093 C 
HETATM    9  C18         0      41.674 126.608 -28.522  1.00  0.00     0.048 C 
HETATM   10  C19         0      40.857 126.134 -29.538  1.00  0.00     0.096 C 
HETATM   11  C21         0      41.236 126.290 -30.844  1.00  0.00     0.084 C 
ENDROOT
BRANCH  10  12
HETATM   12  O20         0      39.905 125.161 -29.248  1.00  0.00    -0.359 OA
HETATM   13  H20         0      39.775 124.463 -29.879  1.00  0.00     0.218 HD
ENDBRANCH  10  12
BRANCH   4  14
HETATM   14  C5          0      42.774 126.769 -34.644  1.00  0.00     0.025 C 
HETATM   15  C6          0      43.966 127.459 -34.814  1.00  0.00     0.004 C 
HETATM   16  C7          0      44.975 126.833 -35.538  1.00  0.00     0.026 C 
HETATM   17  C8          0      44.764 125.622 -36.187  1.00  0.00     0.112 C 
HETATM   18  C10         0      43.436 125.349 -36.488  1.00  0.00     0.112 C 
HETATM   19  C12         0      42.448 125.920 -35.694  1.00  0.00     0.028 C 
BRANCH  17  20
HETATM   20  O9          0      45.786 124.697 -36.312  1.00  0.00    -0.357 OA
HETATM   21  H9          0      46.668 124.838 -35.988  1.00  0.00     0.218 HD
ENDBRANCH  17  20
BRANCH  18  22
HETATM   22  O11         0      43.188 124.250 -37.298  1.00  0.00    -0.357 OA
HETATM   23  H11         0      43.764 123.501 -37.195  1.00  0.00     0.218 HD
ENDBRANCH  18  22
ENDBRANCH   4  14
BRANCH   8  24
HETATM   24  O17         0      44.018 127.043 -28.020  1.00  0.00    -0.359 OA
HETATM   25  H17         0      44.425 126.191 -27.919  1.00  0.00     0.218 HD
ENDBRANCH   8  24
TORSDOF 5
ENDMDL
MODEL 2
REMARK VINA RESULT:       0.0      2.569      4.715
REMARK  5 active torsions:
REMARK  status: ('A' for Active; 'I' for Inactive)
REMARK    1  A    between atoms: C4_4  and  C5_5 
REMARK    2  A    between atoms: C8_8  and  O9_9 
REMARK    3  A    between atoms: C10_11  and  O11_12 
REMARK    4  A    between atoms: C16_18  and  O17_19 
REMARK    5  A    between atoms: C19_22  and  O20_23 
ROOT
HETATM    1  O1          0      45.395 128.327 -35.606  1.00  0.00    -0.286 OA
HETATM    2  C2          0      45.242 127.186 -35.090  1.00  0.00     0.201 C 
HETATM    3  C3          0      45.315 126.014 -35.824  1.00  0.00     0.067 C 
HETATM    4  C4          0      45.041 124.777 -35.251  1.00  0.00     0.103 C 
HETATM    5  O13         0      44.722 124.728 -33.969  1.00  0.00    -0.307 OA
HETATM    6  C14         0      44.602 125.814 -33.237  1.00  0.00     0.107 C 
HETATM    7  C15         0      43.898 125.814 -32.041  1.00  0.00     0.049 C 
HETATM    8  C16         0      43.557 127.001 -31.405  1.00  0.00     0.093 C 
HETATM    9  C18         0      44.374 128.084 -31.706  1.00  0.00     0.048 C 
HETATM   10  C19         0      45.129 128.096 -32.871  1.00  0.00     0.096 C 
HETATM   11  C21         0      45.080 127.026 -33.722  1.00  0.00     0.084 C 
ENDROOT
BRANCH  10  12
HETATM   12  O20         0      45.581 129.311 -33.376  1.00  0.00    -0.359 OA
HETATM   13  H20         0      45.048 129.749 -34.028  1.00  0.00     0.218 HD
ENDBRANCH  10  12
BRANCH   4  14
HETATM   14  C5          0      44.553 123.721 -36.139  1.00  0.00     0.025 C 
HETATM   15  C6          0      43.755 122.676 -35.698  1.00  0.00     0.004 C 
HETATM   16  C7          0      42.736 122.242 -36.540  1.00  0.00     0.026 C 
HETATM   17  C8          0      42.598 122.737 -37.832  1.00  0.00     0.112 C 
HETATM   18  C10         0      43.761 123.263 -38.379  1.00  0.00     0.112 C 
HETATM   19  C12         0      44.727 123.768 -37.517  1.00  0.00     0.028 C 
BRANCH  17  20
HETATM   20  O9          0      41.348 122.873 -38.410  1.00  0.00    -0.357 OA
HETATM   21  H9          0      41.201 123.256 -39.267  1.00  0.00     0.218 HD
ENDBRANCH  17  20
BRANCH  18  22
HETATM   22  O11         0      43.728 123.596 -39.726  1.00  0.00    -0.357 OA
HETATM   23  H11         0      43.824 122.884 -40.348  1.00  0.00     0.218 HD
ENDBRANCH  18  22
ENDBRANCH   4  14
BRANCH   8  24
HETATM   24  O17         0      42.310 127.169 -30.792  1.00  0.00    -0.359 OA
HETATM   25  H17         0      42.064 126.675 -30.019  1.00  0.00     0.218 HD
ENDBRANCH   8  24
TORSDOF 5
ENDMDL
MODEL 3
REMARK VINA RESULT:       0.0      6.552      8.891
REMARK  5 active torsions:
REMARK  status: ('A' for Active; 'I' for Inactive)
REMARK    1  A    between atoms: C4_4  and  C5_5 
REMARK    2  A    between atoms: C8_8  and  O9_9 
REMARK    3  A    between atoms: C10_11  and  O11_12 
REMARK    4  A    between atoms: C16_18  and  O17_19 
REMARK    5  A    between atoms: C19_22  and  O20_23 
ROOT
HETATM    1  O1          0      41.724 125.560 -27.621  1.00  0.00    -0.286 OA
HETATM    2  C2          0      42.394 124.603 -27.145  1.00  0.00     0.201 C 
HETATM    3  C3          0      42.070 123.275 -27.369  1.00  0.00     0.067 C 
HETATM    4  C4          0      42.763 122.241 -26.750  1.00  0.00     0.103 C 
HETATM    5  O13         0      43.766 122.543 -25.944  1.00  0.00    -0.307 OA
HETATM    6  C14         0      44.091 123.787 -25.667  1.00  0.00     0.107 C 
HETATM    7  C15         0      44.847 124.113 -24.551  1.00  0.00     0.049 C 
HETATM    8  C16         0      44.971 125.430 -24.124  1.00  0.00     0.093 C 
HETATM    9  C18         0      44.779 126.388 -25.111  1.00  0.00     0.048 C 
HETATM   10  C19         0      44.067 126.081 -26.263  1.00  0.00     0.096 C 
HETATM   11  C21         0      43.565 124.820 -26.435  1.00  0.00     0.084 C 
ENDROOT
BRANCH  10  12
HETATM   12  O20         0      43.513 127.112 -27.016  1.00  0.00    -0.359 OA
HETATM   13  H20         0      42.806 126.898 -27.611  1.00  0.00     0.218 HD
ENDBRANCH  10  12
BRANCH   4  14
HETATM   14  C5          0      42.042 120.985 -26.538  1.00  0.00     0.025 C 
HETATM   15  C6          0      42.356 120.101 -25.516  1.00  0.00     0.004 C 
HETATM   16  C7          0      41.303 119.457 -24.874  1.00  0.00     0.026 C 
HETATM   17  C8          0      39.991 119.583 -25.319  1.00  0.00     0.112 C 
HETATM   18  C10         0      39.864 119.938 -26.656  1.00  0.00     0.112 C 
HETATM   19  C12         0      40.896 120.655 -27.250  1.00  0.00     0.028 C 
BRANCH  17  20
HETATM   20  O9          0      38.934 119.560 -24.427  1.00  0.00    -0.357 OA
HETATM   21  H9          0      38.939 119.066 -23.615  1.00  0.00     0.218 HD
ENDBRANCH  17  20
BRANCH  18  22
HETATM   22  O11         0      38.588 119.893 -27.199  1.00  0.00    -0.357 OA
HETATM   23  H11         0      38.102 120.709 -27.224  1.00  0.00     0.218 HD
ENDBRANCH  18  22
ENDBRANCH   4  14
BRANCH   8  24
HETATM   24  O17         0      44.951 125.761 -22.764  1.00  0.00    -0.359 OA
HETATM   25  H17         0      44.589 125.171 -22.113  1.00  0.00     0.218 HD
ENDBRANCH   8  24
TORSDOF 5
ENDMDL
MODEL 4
REMARK VINA RESULT:       0.0     11.187     13.379
REMARK  5 active torsions:
REMARK  status: ('A' for Active; 'I' for Inactive)
REMARK    1  A    between atoms: C4_4  and  C5_5 
REMARK    2  A    between atoms: C8_8  and  O9_9 
REMARK    3  A    between atoms: C10_11  and  O11_12 
REMARK    4  A    between atoms: C16_18  and  O17_19 
REMARK    5  A    between atoms: C19_22  and  O20_23 
ROOT
HETATM    1  O1          0      41.595 116.809 -29.722  1.00  0.00    -0.286 OA
HETATM    2  C2          0      41.432 116.069 -28.714  1.00  0.00     0.201 C 
HETATM    3  C3          0      40.182 115.757 -28.206  1.00  0.00     0.067 C 
HETATM    4  C4          0      40.034 115.024 -27.034  1.00  0.00     0.103 C 
HETATM    5  O13         0      41.119 114.601 -26.409  1.00  0.00    -0.307 OA
HETATM    6  C14         0      42.329 114.900 -26.828  1.00  0.00     0.107 C 
HETATM    7  C15         0      43.434 114.815 -25.993  1.00  0.00     0.049 C 
HETATM    8  C16         0      44.656 115.369 -26.354  1.00  0.00     0.093 C 
HETATM    9  C18         0      44.855 115.510 -27.723  1.00  0.00     0.048 C 
HETATM   10  C19         0      43.773 115.552 -28.592  1.00  0.00     0.096 C 
HETATM   11  C21         0      42.502 115.436 -28.100  1.00  0.00     0.084 C 
ENDROOT
BRANCH  10  12
HETATM   12  O20         0      43.935 116.116 -29.853  1.00  0.00    -0.359 OA
HETATM   13  H20         0      43.181 116.142 -30.430  1.00  0.00     0.218 HD
ENDBRANCH  10  12
BRANCH   4  14
HETATM   14  C5          0      38.813 115.241 -26.257  1.00  0.00     0.025 C 
HETATM   15  C6          0      38.747 115.039 -24.886  1.00  0.00     0.004 C 
HETATM   16  C7          0      37.988 115.933 -24.138  1.00  0.00     0.026 C 
HETATM   17  C8          0      37.211 116.914 -24.744  1.00  0.00     0.112 C 
HETATM   18  C10         0      36.849 116.640 -26.056  1.00  0.00     0.112 C 
HETATM   19  C12         0      37.672 115.810 -26.808  1.00  0.00     0.028 C 
BRANCH  17  20
HETATM   20  O9          0      37.016 118.140 -24.133  1.00  0.00    -0.357 OA
HETATM   21  H9          0      36.538 118.255 -23.320  1.00  0.00     0.218 HD
ENDBRANCH  17  20
BRANCH  18  22
HETATM   22  O11         0      35.922 117.489 -26.643  1.00  0.00    -0.357 OA
HETATM   23  H11         0      35.719 117.338 -27.559  1.00  0.00     0.218 HD
ENDBRANCH  18  22
ENDBRANCH   4  14
BRANCH   8  24
HETATM   24  O17         0      45.460 116.034 -25.422  1.00  0.00    -0.359 OA
HETATM   25  H17         0      46.331 116.341 -25.643  1.00  0.00     0.218 HD
ENDBRANCH   8  24
TORSDOF 5
ENDMDL
MODEL 5
REMARK VINA RESULT:       0.0      4.851      8.084
REMARK  5 active torsions:
REMARK  status: ('A' for Active; 'I' for Inactive)
REMARK    1  A    between atoms: C4_4  and  C5_5 
REMARK    2  A    between atoms: C8_8  and  O9_9 
REMARK    3  A    between atoms: C10_11  and  O11_12 
REMARK    4  A    between atoms: C16_18  and  O17_19 
REMARK    5  A    between atoms: C19_22  and  O20_23 
ROOT
HETATM    1  O1          0      41.061 123.301 -31.319  1.00  0.00    -0.286 OA
HETATM    2  C2          0      40.852 122.975 -30.118  1.00  0.00     0.201 C 
HETATM    3  C3          0      39.769 122.206 -29.727  1.00  0.00     0.067 C 
HETATM    4  C4          0      39.505 121.948 -28.386  1.00  0.00     0.103 C 
HETATM    5  O13         0      40.325 122.436 -27.472  1.00  0.00    -0.307 OA
HETATM    6  C14         0      41.346 123.203 -27.787  1.00  0.00     0.107 C 
HETATM    7  C15         0      41.955 124.029 -26.854  1.00  0.00     0.049 C 
HETATM    8  C16         0      42.855 125.015 -27.240  1.00  0.00     0.093 C 
HETATM    9  C18         0      43.491 124.786 -28.454  1.00  0.00     0.048 C 
HETATM   10  C19         0      42.932 123.929 -29.393  1.00  0.00     0.096 C 
HETATM   11  C21         0      41.754 123.291 -29.114  1.00  0.00     0.084 C 
ENDROOT
BRANCH  10  12
HETATM   12  O20         0      43.316 124.037 -30.726  1.00  0.00    -0.359 OA
HETATM   13  H20         0      44.121 123.611 -30.993  1.00  0.00     0.218 HD
ENDBRANCH  10  12
BRANCH   4  14
HETATM   14  C5          0      38.113 121.686 -28.016  1.00  0.00     0.025 C 
HETATM   15  C6          0      37.611 121.943 -26.749  1.00  0.00     0.004 C 
HETATM   16  C7          0      36.316 122.445 -26.659  1.00  0.00     0.026 C 
HETATM   17  C8          0      35.499 122.561 -27.778  1.00  0.00     0.112 C 
HETATM   18  C10         0      35.835 121.720 -28.831  1.00  0.00     0.112 C 
HETATM   19  C12         0      37.155 121.302 -28.946  1.00  0.00     0.028 C 
BRANCH  17  20
HETATM   20  O9          0      34.576 123.586 -27.878  1.00  0.00    -0.357 OA
HETATM   21  H9          0      34.012 123.861 -27.164  1.00  0.00     0.218 HD
ENDBRANCH  17  20
BRANCH  18  22
HETATM   22  O11         0      34.946 121.658 -29.894  1.00  0.00    -0.357 OA
HETATM   23  H11         0      34.077 121.319 -29.709  1.00  0.00     0.218 HD
ENDBRANCH  18  22
ENDBRANCH   4  14
BRANCH   8  24
HETATM   24  O17         0      42.859 126.276 -26.634  1.00  0.00    -0.359 OA
HETATM   25  H17         0      43.382 126.992 -26.975  1.00  0.00     0.218 HD
ENDBRANCH   8  24
TORSDOF 5
ENDMDL
MODEL 6
REMARK VINA RESULT:       0.0      3.692      6.311
REMARK  5 active torsions:
REMARK  status: ('A' for Active; 'I' for Inactive)
REMARK    1  A    between atoms: C4_4  and  C5_5 
REMARK    2  A    between atoms: C8_8  and  O9_9 
REMARK    3  A    between atoms: C10_11  and  O11_12 
REMARK    4  A    between atoms: C16_18  and  O17_19 
REMARK    5  A    between atoms: C19_22  and  O20_23 
ROOT
HETATM    1  O1          0      41.893 126.416 -28.356  1.00  0.00    -0.286 OA
HETATM    2  C2          0      42.837 125.644 -28.680  1.00  0.00     0.201 C 
HETATM    3  C3          0      44.128 125.796 -28.202  1.00  0.00     0.067 C 
HETATM    4  C4          0      45.171 124.996 -28.654  1.00  0.00     0.103 C 
HETATM    5  O13         0      44.910 124.057 -29.547  1.00  0.00    -0.307 OA
HETATM    6  C14         0      43.710 123.895 -30.061  1.00  0.00     0.107 C 
HETATM    7  C15         0      43.511 123.212 -31.252  1.00  0.00     0.049 C 
HETATM    8  C16         0      42.292 123.262 -31.917  1.00  0.00     0.093 C 
HETATM    9  C18         0      41.195 123.547 -31.113  1.00  0.00     0.048 C 
HETATM   10  C19         0      41.363 124.188 -29.893  1.00  0.00     0.096 C 
HETATM   11  C21         0      42.620 124.526 -29.471  1.00  0.00     0.084 C 
ENDROOT
BRANCH  10  12
HETATM   12  O20         0      40.282 124.847 -29.316  1.00  0.00    -0.359 OA
HETATM   13  H20         0      40.062 124.639 -28.416  1.00  0.00     0.218 HD
ENDBRANCH  10  12
BRANCH   4  14
HETATM   14  C5          0      46.520 125.561 -28.600  1.00  0.00     0.025 C 
HETATM   15  C6          0      47.537 125.164 -29.457  1.00  0.00     0.004 C 
HETATM   16  C7          0      48.407 126.145 -29.921  1.00  0.00     0.026 C 
HETATM   17  C8          0      48.355 127.451 -29.446  1.00  0.00     0.112 C 
HETATM   18  C10         0      47.775 127.589 -28.192  1.00  0.00     0.112 C 
HETATM   19  C12         0      46.843 126.640 -27.788  1.00  0.00     0.028 C 
BRANCH  17  20
HETATM   20  O9          0      48.668 128.518 -30.269  1.00  0.00    -0.357 OA
HETATM   21  H9          0      48.964 128.423 -31.167  1.00  0.00     0.218 HD
ENDBRANCH  17  20
BRANCH  18  22
HETATM   22  O11         0      47.867 128.836 -27.591  1.00  0.00    -0.357 OA
HETATM   23  H11         0      48.096 128.853 -26.669  1.00  0.00     0.218 HD
ENDBRANCH  18  22
ENDBRANCH   4  14
BRANCH   8  24
HETATM   24  O17         0      42.226 123.356 -33.312  1.00  0.00    -0.359 OA
HETATM   25  H17         0      41.657 123.982 -33.743  1.00  0.00     0.218 HD
ENDBRANCH   8  24
TORSDOF 5
ENDMDL
MODEL 7
REMARK VINA RESULT:       0.0      5.565      7.183
REMARK  5 active torsions:
REMARK  status: ('A' for Active; 'I' for Inactive)
REMARK    1  A    between atoms: C4_4  and  C5_5 
REMARK    2  A    between atoms: C8_8  and  O9_9 
REMARK    3  A    between atoms: C10_11  and  O11_12 
REMARK    4  A    between atoms: C16_18  and  O17_19 
REMARK    5  A    between atoms: C19_22  and  O20_23 
ROOT
HETATM    1  O1          0      41.569 125.355 -27.542  1.00  0.00    -0.286 OA
HETATM    2  C2          0      42.246 124.298 -27.667  1.00  0.00     0.201 C 
HETATM    3  C3          0      43.533 124.167 -27.173  1.00  0.00     0.067 C 
HETATM    4  C4          0      44.294 123.029 -27.414  1.00  0.00     0.103 C 
HETATM    5  O13         0      43.760 122.046 -28.116  1.00  0.00    -0.307 OA
HETATM    6  C14         0      42.557 122.133 -28.640  1.00  0.00     0.107 C 
HETATM    7  C15         0      42.152 121.312 -29.682  1.00  0.00     0.049 C 
HETATM    8  C16         0      40.989 121.573 -30.396  1.00  0.00     0.093 C 
HETATM    9  C18         0      40.033 122.314 -29.711  1.00  0.00     0.048 C 
HETATM   10  C19         0      40.397 123.110 -28.634  1.00  0.00     0.096 C 
HETATM   11  C21         0      41.704 123.153 -28.232  1.00  0.00     0.084 C 
ENDROOT
BRANCH  10  12
HETATM   12  O20         0      39.560 124.152 -28.245  1.00  0.00    -0.359 OA
HETATM   13  H20         0      38.629 123.977 -28.187  1.00  0.00     0.218 HD
ENDBRANCH  10  12
BRANCH   4  14
HETATM   14  C5          0      45.750 123.185 -27.412  1.00  0.00     0.025 C 
HETATM   15  C6          0      46.596 122.352 -28.131  1.00  0.00     0.004 C 
HETATM   16  C7          0      47.705 122.931 -28.740  1.00  0.00     0.026 C 
HETATM   17  C8          0      48.038 124.265 -28.532  1.00  0.00     0.112 C 
HETATM   18  C10         0      47.541 124.810 -27.356  1.00  0.00     0.112 C 
HETATM   19  C12         0      46.382 124.267 -26.814  1.00  0.00     0.028 C 
BRANCH  17  20
HETATM   20  O9          0      48.632 125.011 -29.534  1.00  0.00    -0.357 OA
HETATM   21  H9          0      49.158 125.787 -29.374  1.00  0.00     0.218 HD
ENDBRANCH  17  20
BRANCH  18  22
HETATM   22  O11         0      47.998 126.073 -27.007  1.00  0.00    -0.357 OA
HETATM   23  H11         0      48.236 126.208 -26.097  1.00  0.00     0.218 HD
ENDBRANCH  18  22
ENDBRANCH   4  14
BRANCH   8  24
HETATM   24  O17         0      40.931 121.401 -31.784  1.00  0.00    -0.359 OA
HETATM   25  H17         0      40.561 122.064 -32.354  1.00  0.00     0.218 HD
ENDBRANCH   8  24
TORSDOF 5
ENDMDL
MODEL 8
REMARK VINA RESULT:       0.0      7.141      9.201
REMARK  5 active torsions:
REMARK  status: ('A' for Active; 'I' for Inactive)
REMARK    1  A    between atoms: C4_4  and  C5_5 
REMARK    2  A    between atoms: C8_8  and  O9_9 
REMARK    3  A    between atoms: C10_11  and  O11_12 
REMARK    4  A    between atoms: C16_18  and  O17_19 
REMARK    5  A    between atoms: C19_22  and  O20_23 
ROOT
HETATM    1  O1          0      37.356 119.408 -30.476  1.00  0.00    -0.286 OA
HETATM    2  C2          0      37.527 120.295 -29.595  1.00  0.00     0.201 C 
HETATM    3  C3          0      38.732 120.952 -29.416  1.00  0.00     0.067 C 
HETATM    4  C4          0      38.924 121.851 -28.373  1.00  0.00     0.103 C 
HETATM    5  O13         0      37.919 122.092 -27.550  1.00  0.00    -0.307 OA
HETATM    6  C14         0      36.766 121.467 -27.652  1.00  0.00     0.107 C 
HETATM    7  C15         0      35.871 121.406 -26.594  1.00  0.00     0.049 C 
HETATM    8  C16         0      34.783 120.542 -26.618  1.00  0.00     0.093 C 
HETATM    9  C18         0      34.352 120.176 -27.887  1.00  0.00     0.048 C 
HETATM   10  C19         0      35.207 120.268 -28.977  1.00  0.00     0.096 C 
HETATM   11  C21         0      36.480 120.740 -28.803  1.00  0.00     0.084 C 
ENDROOT
BRANCH  10  12
HETATM   12  O20         0      34.940 119.517 -30.117  1.00  0.00    -0.359 OA
HETATM   13  H20         0      34.985 118.571 -30.048  1.00  0.00     0.218 HD
ENDBRANCH  10  12
BRANCH   4  14
HETATM   14  C5          0      40.293 122.028 -27.885  1.00  0.00     0.025 C 
HETATM   15  C6          0      40.583 122.423 -26.587  1.00  0.00     0.004 C 
HETATM   16  C7          0      41.682 121.838 -25.965  1.00  0.00     0.026 C 
HETATM   17  C8          0      42.543 120.990 -26.653  1.00  0.00     0.112 C 
HETATM   18  C10         0      42.547 121.162 -28.031  1.00  0.00     0.112 C 
HETATM   19  C12         0      41.404 121.669 -28.637  1.00  0.00     0.028 C 
BRANCH  17  20
HETATM   20  O9          0      43.165 119.936 -26.009  1.00  0.00    -0.357 OA
HETATM   21  H9          0      44.007 120.005 -25.574  1.00  0.00     0.218 HD
ENDBRANCH  17  20
BRANCH  18  22
HETATM   22  O11         0      43.520 120.478 -28.747  1.00  0.00    -0.357 OA
HETATM   23  H11         0      43.848 120.896 -29.535  1.00  0.00     0.218 HD
ENDBRANCH  18  22
ENDBRANCH   4  14
BRANCH   8  24
HETATM   24  O17         0      34.384 119.841 -25.475  1.00  0.00    -0.359 OA
HETATM   25  H17         0      34.792 119.990 -24.630  1.00  0.00     0.218 HD
ENDBRANCH   8  24
TORSDOF 5
ENDMDL
MODEL 9
REMARK VINA RESULT:       0.0     12.197     14.576
REMARK  5 active torsions:
REMARK  status: ('A' for Active; 'I' for Inactive)
REMARK    1  A    between atoms: C4_4  and  C5_5 
REMARK    2  A    between atoms: C8_8  and  O9_9 
REMARK    3  A    between atoms: C10_11  and  O11_12 
REMARK    4  A    between atoms: C16_18  and  O17_19 
REMARK    5  A    between atoms: C19_22  and  O20_23 
ROOT
HETATM    1  O1          0      41.846 112.527 -29.641  1.00  0.00    -0.286 OA
HETATM    2  C2          0      42.489 113.081 -28.708  1.00  0.00     0.201 C 
HETATM    3  C3          0      42.251 112.813 -27.371  1.00  0.00     0.067 C 
HETATM    4  C4          0      42.902 113.512 -26.361  1.00  0.00     0.103 C 
HETATM    5  O13         0      43.783 114.439 -26.696  1.00  0.00    -0.307 OA
HETATM    6  C14         0      44.019 114.758 -27.950  1.00  0.00     0.107 C 
HETATM    7  C15         0      44.614 115.962 -28.298  1.00  0.00     0.049 C 
HETATM    8  C16         0      44.629 116.405 -29.615  1.00  0.00     0.093 C 
HETATM    9  C18         0      44.524 115.404 -30.572  1.00  0.00     0.048 C 
HETATM   10  C19         0      43.976 114.170 -30.246  1.00  0.00     0.096 C 
HETATM   11  C21         0      43.552 113.933 -28.967  1.00  0.00     0.084 C 
ENDROOT
BRANCH  10  12
HETATM   12  O20         0      43.479 113.357 -31.260  1.00  0.00    -0.359 OA
HETATM   13  H20         0      43.997 113.265 -32.050  1.00  0.00     0.218 HD
ENDBRANCH  10  12
BRANCH   4  14
HETATM   14  C5          0      42.213 113.628 -25.074  1.00  0.00     0.025 C 
HETATM   15  C6          0      42.432 114.679 -24.196  1.00  0.00     0.004 C 
HETATM   16  C7          0      41.333 115.181 -23.505  1.00  0.00     0.026 C 
HETATM   17  C8          0      40.084 114.574 -23.581  1.00  0.00     0.112 C 
HETATM   18  C10         0      40.112 113.233 -23.941  1.00  0.00     0.112 C 
HETATM   19  C12         0      41.180 112.776 -24.704  1.00  0.00     0.028 C 
BRANCH  17  20
HETATM   20  O9          0      38.925 115.326 -23.508  1.00  0.00    -0.357 OA
HETATM   21  H9          0      38.491 115.549 -22.693  1.00  0.00     0.218 HD
ENDBRANCH  17  20
BRANCH  18  22
HETATM   22  O11         0      38.918 112.533 -23.849  1.00  0.00    -0.357 OA
HETATM   23  H11         0      38.487 112.527 -23.002  1.00  0.00     0.218 HD
ENDBRANCH  18  22
ENDBRANCH   4  14
BRANCH   8  24
HETATM   24  O17         0      44.424 117.752 -29.933  1.00  0.00    -0.359 OA
HETATM   25  H17         0      44.319 118.414 -29.260  1.00  0.00     0.218 HD
ENDBRANCH   8  24
TORSDOF 5
ENDMDL
