MODEL 1
REMARK VINA RESULT:      -5.3      0.000      0.000
REMARK  5 active torsions:
REMARK  status: ('A' for Active; 'I' for Inactive)
REMARK    1  A    between atoms: C4_4  and  C5_5 
REMARK    2  A    between atoms: C8_8  and  O9_9 
REMARK    3  A    between atoms: C10_11  and  O11_12 
REMARK    4  A    between atoms: C16_18  and  O17_19 
REMARK    5  A    between atoms: C19_22  and  O20_23 
ROOT
HETATM    1  O1          0      61.866  14.919 -11.730  1.00  0.00    -0.286 OA
HETATM    2  C2          0      63.039  15.290 -12.008  1.00  0.00     0.201 C 
HETATM    3  C3          0      63.665  14.969 -13.200  1.00  0.00     0.067 C 
HETATM    4  C4          0      64.994  15.303 -13.438  1.00  0.00     0.103 C 
HETATM    5  O13         0      65.660  15.960 -12.504  1.00  0.00    -0.307 OA
HETATM    6  C14         0      65.125  16.256 -11.340  1.00  0.00     0.107 C 
HETATM    7  C15         0      65.904  16.571 -10.236  1.00  0.00     0.049 C 
HETATM    8  C16         0      65.356  16.631  -8.960  1.00  0.00     0.093 C 
HETATM    9  C18         0      63.992  16.891  -8.919  1.00  0.00     0.048 C 
HETATM   10  C19         0      63.190  16.631 -10.022  1.00  0.00     0.096 C 
HETATM   11  C21         0      63.751  16.131 -11.166  1.00  0.00     0.084 C 
ENDROOT
BRANCH  10  12
HETATM   12  O20         0      61.819  16.475  -9.845  1.00  0.00    -0.359 OA
HETATM   13  H20         0      61.238  16.959 -10.420  1.00  0.00     0.218 HD
ENDBRANCH  10  12
BRANCH   4  14
HETATM   14  C5          0      65.739  14.459 -14.374  1.00  0.00     0.025 C 
HETATM   15  C6          0      67.123  14.482 -14.469  1.00  0.00     0.004 C 
HETATM   16  C7          0      67.775  13.271 -14.679  1.00  0.00     0.026 C 
HETATM   17  C8          0      67.071  12.097 -14.921  1.00  0.00     0.112 C 
HETATM   18  C10         0      65.791  12.281 -15.426  1.00  0.00     0.112 C 
HETATM   19  C12         0      65.129  13.466 -15.129  1.00  0.00     0.028 C 
BRANCH  17  20
HETATM   20  O9          0      67.556  10.877 -14.483  1.00  0.00    -0.357 OA
HETATM   21  H9          0      67.845  10.184 -15.065  1.00  0.00     0.218 HD
ENDBRANCH  17  20
BRANCH  18  22
HETATM   22  O11         0      65.118  11.148 -15.860  1.00  0.00    -0.357 OA
HETATM   23  H11         0      64.335  10.902 -15.380  1.00  0.00     0.218 HD
ENDBRANCH  18  22
ENDBRANCH   4  14
BRANCH   8  24
HETATM   24  O17         0      66.046  16.138  -7.847  1.00  0.00    -0.359 OA
HETATM   25  H17         0      66.092  15.207  -7.661  1.00  0.00     0.218 HD
ENDBRANCH   8  24
TORSDOF 5
ENDMDL
MODEL 2
REMARK VINA RESULT:      -4.9      2.699      5.927
REMARK  5 active torsions:
REMARK  status: ('A' for Active; 'I' for Inactive)
REMARK    1  A    between atoms: C4_4  and  C5_5 
REMARK    2  A    between atoms: C8_8  and  O9_9 
REMARK    3  A    between atoms: C10_11  and  O11_12 
REMARK    4  A    between atoms: C16_18  and  O17_19 
REMARK    5  A    between atoms: C19_22  and  O20_23 
ROOT
HETATM    1  O1          0      65.665  13.617 -13.142  1.00  0.00    -0.286 OA
HETATM    2  C2          0      65.734  14.472 -12.217  1.00  0.00     0.201 C 
HETATM    3  C3          0      66.835  14.592 -11.386  1.00  0.00     0.067 C 
HETATM    4  C4          0      66.844  15.473 -10.311  1.00  0.00     0.103 C 
HETATM    5  O13         0      65.778  16.224 -10.097  1.00  0.00    -0.307 OA
HETATM    6  C14         0      64.693  16.123 -10.833  1.00  0.00     0.107 C 
HETATM    7  C15         0      63.464  16.592 -10.391  1.00  0.00     0.049 C 
HETATM    8  C16         0      62.286  16.260 -11.049  1.00  0.00     0.093 C 
HETATM    9  C18         0      62.437  15.924 -12.389  1.00  0.00     0.048 C 
HETATM   10  C19         0      63.665  15.496 -12.875  1.00  0.00     0.096 C 
HETATM   11  C21         0      64.740  15.420 -12.032  1.00  0.00     0.084 C 
ENDROOT
BRANCH  10  12
HETATM   12  O20         0      63.711  14.764 -14.058  1.00  0.00    -0.359 OA
HETATM   13  H20         0      63.251  13.934 -14.086  1.00  0.00     0.218 HD
ENDBRANCH  10  12
BRANCH   4  14
HETATM   14  C5          0      67.709  15.138  -9.178  1.00  0.00     0.025 C 
HETATM   15  C6          0      68.948  14.534  -9.331  1.00  0.00     0.004 C 
HETATM   16  C7          0      69.975  14.948  -8.489  1.00  0.00     0.026 C 
HETATM   17  C8          0      69.748  15.834  -7.442  1.00  0.00     0.112 C 
HETATM   18  C10         0      68.435  15.873  -6.990  1.00  0.00     0.112 C 
HETATM   19  C12         0      67.421  15.536  -7.878  1.00  0.00     0.028 C 
BRANCH  17  20
HETATM   20  O9          0      70.721  16.738  -7.053  1.00  0.00    -0.357 OA
HETATM   21  H9          0      70.933  16.928  -6.147  1.00  0.00     0.218 HD
ENDBRANCH  17  20
BRANCH  18  22
HETATM   22  O11         0      68.191  16.595  -5.830  1.00  0.00    -0.357 OA
HETATM   23  H11         0      68.940  16.792  -5.280  1.00  0.00     0.218 HD
ENDBRANCH  18  22
ENDBRANCH   4  14
BRANCH   8  24
HETATM   24  O17         0      61.115  15.962 -10.343  1.00  0.00    -0.359 OA
HETATM   25  H17         0      60.320  15.691 -10.787  1.00  0.00     0.218 HD
ENDBRANCH   8  24
TORSDOF 5
ENDMDL
MODEL 3
REMARK VINA RESULT:      -4.9      2.490      6.499
REMARK  5 active torsions:
REMARK  status: ('A' for Active; 'I' for Inactive)
REMARK    1  A    between atoms: C4_4  and  C5_5 
REMARK    2  A    between atoms: C8_8  and  O9_9 
REMARK    3  A    between atoms: C10_11  and  O11_12 
REMARK    4  A    between atoms: C16_18  and  O17_19 
REMARK    5  A    between atoms: C19_22  and  O20_23 
ROOT
HETATM    1  O1          0      62.783  17.794  -9.899  1.00  0.00    -0.286 OA
HETATM    2  C2          0      63.729  16.962  -9.977  1.00  0.00     0.201 C 
HETATM    3  C3          0      64.788  16.943  -9.086  1.00  0.00     0.067 C 
HETATM    4  C4          0      65.867  16.083  -9.255  1.00  0.00     0.103 C 
HETATM    5  O13         0      65.863  15.254 -10.283  1.00  0.00    -0.307 OA
HETATM    6  C14         0      64.901  15.257 -11.180  1.00  0.00     0.107 C 
HETATM    7  C15         0      65.073  14.700 -12.439  1.00  0.00     0.049 C 
HETATM    8  C16         0      64.158  14.927 -13.460  1.00  0.00     0.093 C 
HETATM    9  C18         0      62.875  15.252 -13.036  1.00  0.00     0.048 C 
HETATM   10  C19         0      62.661  15.768 -11.765  1.00  0.00     0.096 C 
HETATM   11  C21         0      63.720  15.942 -10.916  1.00  0.00     0.084 C 
ENDROOT
BRANCH  10  12
HETATM   12  O20         0      61.494  16.481 -11.508  1.00  0.00    -0.359 OA
HETATM   13  H20         0      60.820  16.059 -10.988  1.00  0.00     0.218 HD
ENDBRANCH  10  12
BRANCH   4  14
HETATM   14  C5          0      67.152  16.504  -8.694  1.00  0.00     0.025 C 
HETATM   15  C6          0      67.785  17.682  -9.063  1.00  0.00     0.004 C 
HETATM   16  C7          0      68.441  18.400  -8.068  1.00  0.00     0.026 C 
HETATM   17  C8          0      68.581  17.899  -6.778  1.00  0.00     0.112 C 
HETATM   18  C10         0      68.495  16.517  -6.681  1.00  0.00     0.112 C 
HETATM   19  C12         0      67.761  15.831  -7.642  1.00  0.00     0.028 C 
BRANCH  17  20
HETATM   20  O9          0      68.588  18.747  -5.685  1.00  0.00    -0.357 OA
HETATM   21  H9          0      68.593  18.447  -4.784  1.00  0.00     0.218 HD
ENDBRANCH  17  20
BRANCH  18  22
HETATM   22  O11         0      68.814  15.952  -5.454  1.00  0.00    -0.357 OA
HETATM   23  H11         0      69.495  16.380  -4.948  1.00  0.00     0.218 HD
ENDBRANCH  18  22
ENDBRANCH   4  14
BRANCH   8  24
HETATM   24  O17         0      64.575  15.144 -14.778  1.00  0.00    -0.359 OA
HETATM   25  H17         0      65.259  15.769 -14.988  1.00  0.00     0.218 HD
ENDBRANCH   8  24
TORSDOF 5
ENDMDL
MODEL 4
REMARK VINA RESULT:      -4.9      7.892     10.001
REMARK  5 active torsions:
REMARK  status: ('A' for Active; 'I' for Inactive)
REMARK    1  A    between atoms: C4_4  and  C5_5 
REMARK    2  A    between atoms: C8_8  and  O9_9 
REMARK    3  A    between atoms: C10_11  and  O11_12 
REMARK    4  A    between atoms: C16_18  and  O17_19 
REMARK    5  A    between atoms: C19_22  and  O20_23 
ROOT
HETATM    1  O1          0      71.136   8.294 -11.815  1.00  0.00    -0.286 OA
HETATM    2  C2          0      71.086   9.017 -10.782  1.00  0.00     0.201 C 
HETATM    3  C3          0      71.679   8.656  -9.584  1.00  0.00     0.067 C 
HETATM    4  C4          0      71.522   9.421  -8.434  1.00  0.00     0.103 C 
HETATM    5  O13         0      70.805  10.528  -8.501  1.00  0.00    -0.307 OA
HETATM    6  C14         0      70.190  10.897  -9.604  1.00  0.00     0.107 C 
HETATM    7  C15         0      69.139  11.803  -9.587  1.00  0.00     0.049 C 
HETATM    8  C16         0      68.333  11.995 -10.702  1.00  0.00     0.093 C 
HETATM    9  C18         0      68.927  11.674 -11.917  1.00  0.00     0.048 C 
HETATM   10  C19         0      70.010  10.807 -11.966  1.00  0.00     0.096 C 
HETATM   11  C21         0      70.508  10.277 -10.807  1.00  0.00     0.084 C 
ENDROOT
BRANCH  10  12
HETATM   12  O20         0      70.311  10.161 -13.161  1.00  0.00    -0.359 OA
HETATM   13  H20         0      71.210   9.894 -13.309  1.00  0.00     0.218 HD
ENDBRANCH  10  12
BRANCH   4  14
HETATM   14  C5          0      71.630   8.728  -7.149  1.00  0.00     0.025 C 
HETATM   15  C6          0      71.365   9.347  -5.936  1.00  0.00     0.004 C 
HETATM   16  C7          0      70.715   8.599  -4.959  1.00  0.00     0.026 C 
HETATM   17  C8          0      70.458   7.243  -5.130  1.00  0.00     0.112 C 
HETATM   18  C10         0      71.290   6.605  -6.039  1.00  0.00     0.112 C 
HETATM   19  C12         0      71.859   7.361  -7.057  1.00  0.00     0.028 C 
BRANCH  17  20
HETATM   20  O9          0      69.326   6.663  -4.586  1.00  0.00    -0.357 OA
HETATM   21  H9          0      68.454   7.033  -4.662  1.00  0.00     0.218 HD
ENDBRANCH  17  20
BRANCH  18  22
HETATM   22  O11         0      71.203   5.222  -6.108  1.00  0.00    -0.357 OA
HETATM   23  H11         0      70.332   4.849  -6.183  1.00  0.00     0.218 HD
ENDBRANCH  18  22
ENDBRANCH   4  14
BRANCH   8  24
HETATM   24  O17         0      66.950  12.166 -10.582  1.00  0.00    -0.359 OA
HETATM   25  H17         0      66.336  11.603 -11.038  1.00  0.00     0.218 HD
ENDBRANCH   8  24
TORSDOF 5
ENDMDL
MODEL 5
REMARK VINA RESULT:      -4.7      4.177      7.079
REMARK  5 active torsions:
REMARK  status: ('A' for Active; 'I' for Inactive)
REMARK    1  A    between atoms: C4_4  and  C5_5 
REMARK    2  A    between atoms: C8_8  and  O9_9 
REMARK    3  A    between atoms: C10_11  and  O11_12 
REMARK    4  A    between atoms: C16_18  and  O17_19 
REMARK    5  A    between atoms: C19_22  and  O20_23 
ROOT
HETATM    1  O1          0      69.754  16.381 -10.594  1.00  0.00    -0.286 OA
HETATM    2  C2          0      68.776  16.121  -9.841  1.00  0.00     0.201 C 
HETATM    3  C3          0      67.459  16.221 -10.259  1.00  0.00     0.067 C 
HETATM    4  C4          0      66.400  16.029  -9.379  1.00  0.00     0.103 C 
HETATM    5  O13         0      66.666  15.725  -8.121  1.00  0.00    -0.307 OA
HETATM    6  C14         0      67.897  15.655  -7.664  1.00  0.00     0.107 C 
HETATM    7  C15         0      68.179  15.737  -6.308  1.00  0.00     0.049 C 
HETATM    8  C16         0      69.478  15.919  -5.851  1.00  0.00     0.093 C 
HETATM    9  C18         0      70.472  15.488  -6.721  1.00  0.00     0.048 C 
HETATM   10  C19         0      70.211  15.350  -8.078  1.00  0.00     0.096 C 
HETATM   11  C21         0      68.960  15.625  -8.560  1.00  0.00     0.084 C 
ENDROOT
BRANCH  10  12
HETATM   12  O20         0      71.272  15.351  -8.978  1.00  0.00    -0.359 OA
HETATM   13  H20         0      72.084  15.762  -8.709  1.00  0.00     0.218 HD
ENDBRANCH  10  12
BRANCH   4  14
HETATM   14  C5          0      65.141  16.710  -9.689  1.00  0.00     0.025 C 
HETATM   15  C6          0      64.246  16.240 -10.639  1.00  0.00     0.004 C 
HETATM   16  C7          0      62.888  16.359 -10.360  1.00  0.00     0.026 C 
HETATM   17  C8          0      62.431  17.042  -9.238  1.00  0.00     0.112 C 
HETATM   18  C10         0      63.319  17.981  -8.729  1.00  0.00     0.112 C 
HETATM   19  C12         0      64.678  17.791  -8.951  1.00  0.00     0.028 C 
BRANCH  17  20
HETATM   20  O9          0      61.277  16.644  -8.587  1.00  0.00    -0.357 OA
HETATM   21  H9          0      60.593  17.243  -8.312  1.00  0.00     0.218 HD
ENDBRANCH  17  20
BRANCH  18  22
HETATM   22  O11         0      62.844  18.820  -7.732  1.00  0.00    -0.357 OA
HETATM   23  H11         0      61.904  18.953  -7.694  1.00  0.00     0.218 HD
ENDBRANCH  18  22
ENDBRANCH   4  14
BRANCH   8  24
HETATM   24  O17         0      69.761  16.766  -4.773  1.00  0.00    -0.359 OA
HETATM   25  H17         0      69.638  17.706  -4.831  1.00  0.00     0.218 HD
ENDBRANCH   8  24
TORSDOF 5
ENDMDL
MODEL 6
REMARK VINA RESULT:      -4.6      3.537      5.156
REMARK  5 active torsions:
REMARK  status: ('A' for Active; 'I' for Inactive)
REMARK    1  A    between atoms: C4_4  and  C5_5 
REMARK    2  A    between atoms: C8_8  and  O9_9 
REMARK    3  A    between atoms: C10_11  and  O11_12 
REMARK    4  A    between atoms: C16_18  and  O17_19 
REMARK    5  A    between atoms: C19_22  and  O20_23 
ROOT
HETATM    1  O1          0      65.897  13.191 -14.403  1.00  0.00    -0.286 OA
HETATM    2  C2          0      66.080  13.765 -13.295  1.00  0.00     0.201 C 
HETATM    3  C3          0      67.199  13.543 -12.510  1.00  0.00     0.067 C 
HETATM    4  C4          0      67.328  14.109 -11.247  1.00  0.00     0.103 C 
HETATM    5  O13         0      66.362  14.894 -10.802  1.00  0.00    -0.307 OA
HETATM    6  C14         0      65.262  15.108 -11.491  1.00  0.00     0.107 C 
HETATM    7  C15         0      64.104  15.581 -10.890  1.00  0.00     0.049 C 
HETATM    8  C16         0      62.886  15.564 -11.558  1.00  0.00     0.093 C 
HETATM    9  C18         0      62.977  15.570 -12.945  1.00  0.00     0.048 C 
HETATM   10  C19         0      64.138  15.148 -13.578  1.00  0.00     0.096 C 
HETATM   11  C21         0      65.208  14.738 -12.830  1.00  0.00     0.084 C 
ENDROOT
BRANCH  10  12
HETATM   12  O20         0      64.080  14.747 -14.909  1.00  0.00    -0.359 OA
HETATM   13  H20         0      64.333  13.855 -15.116  1.00  0.00     0.218 HD
ENDBRANCH  10  12
BRANCH   4  14
HETATM   14  C5          0      68.162  13.400 -10.276  1.00  0.00     0.025 C 
HETATM   15  C6          0      68.139  12.020 -10.131  1.00  0.00     0.004 C 
HETATM   16  C7          0      69.349  11.377  -9.886  1.00  0.00     0.026 C 
HETATM   17  C8          0      70.521  12.091  -9.659  1.00  0.00     0.112 C 
HETATM   18  C10         0      70.330  13.388  -9.202  1.00  0.00     0.112 C 
HETATM   19  C12         0      69.147  14.038  -9.534  1.00  0.00     0.028 C 
BRANCH  17  20
HETATM   20  O9          0      71.745  11.592 -10.067  1.00  0.00    -0.357 OA
HETATM   21  H9          0      72.319  11.079  -9.510  1.00  0.00     0.218 HD
ENDBRANCH  17  20
BRANCH  18  22
HETATM   22  O11         0      71.458  14.078  -8.781  1.00  0.00    -0.357 OA
HETATM   23  H11         0      71.640  14.907  -9.208  1.00  0.00     0.218 HD
ENDBRANCH  18  22
ENDBRANCH   4  14
BRANCH   8  24
HETATM   24  O17         0      61.698  15.225 -10.901  1.00  0.00    -0.359 OA
HETATM   25  H17         0      60.889  15.699 -11.056  1.00  0.00     0.218 HD
ENDBRANCH   8  24
TORSDOF 5
ENDMDL
MODEL 7
REMARK VINA RESULT:      -4.6      7.122      8.984
REMARK  5 active torsions:
REMARK  status: ('A' for Active; 'I' for Inactive)
REMARK    1  A    between atoms: C4_4  and  C5_5 
REMARK    2  A    between atoms: C8_8  and  O9_9 
REMARK    3  A    between atoms: C10_11  and  O11_12 
REMARK    4  A    between atoms: C16_18  and  O17_19 
REMARK    5  A    between atoms: C19_22  and  O20_23 
ROOT
HETATM    1  O1          0      71.270  15.249  -4.914  1.00  0.00    -0.286 OA
HETATM    2  C2          0      71.388  14.243  -5.667  1.00  0.00     0.201 C 
HETATM    3  C3          0      71.132  14.289  -7.027  1.00  0.00     0.067 C 
HETATM    4  C4          0      71.170  13.144  -7.814  1.00  0.00     0.103 C 
HETATM    5  O13         0      71.480  11.993  -7.246  1.00  0.00    -0.307 OA
HETATM    6  C14         0      71.696  11.887  -5.953  1.00  0.00     0.107 C 
HETATM    7  C15         0      71.624  10.667  -5.297  1.00  0.00     0.049 C 
HETATM    8  C16         0      71.599  10.594  -3.909  1.00  0.00     0.093 C 
HETATM    9  C18         0      72.169  11.679  -3.254  1.00  0.00     0.048 C 
HETATM   10  C19         0      72.300  12.902  -3.897  1.00  0.00     0.096 C 
HETATM   11  C21         0      71.879  13.037  -5.192  1.00  0.00     0.084 C 
ENDROOT
BRANCH  10  12
HETATM   12  O20         0      72.451  14.058  -3.136  1.00  0.00    -0.359 OA
HETATM   13  H20         0      71.947  14.132  -2.335  1.00  0.00     0.218 HD
ENDBRANCH  10  12
BRANCH   4  14
HETATM   14  C5          0      70.342  13.134  -9.022  1.00  0.00     0.025 C 
HETATM   15  C6          0      70.267  12.041  -9.873  1.00  0.00     0.004 C 
HETATM   16  C7          0      69.029  11.743 -10.432  1.00  0.00     0.026 C 
HETATM   17  C8          0      67.931  12.579 -10.260  1.00  0.00     0.112 C 
HETATM   18  C10         0      68.247  13.897  -9.961  1.00  0.00     0.112 C 
HETATM   19  C12         0      69.455  14.158  -9.325  1.00  0.00     0.028 C 
BRANCH  17  20
HETATM   20  O9          0      66.650  12.061 -10.188  1.00  0.00    -0.357 OA
HETATM   21  H9          0      65.875  12.527 -10.479  1.00  0.00     0.218 HD
ENDBRANCH  17  20
BRANCH  18  22
HETATM   22  O11         0      67.203  14.811  -9.966  1.00  0.00    -0.357 OA
HETATM   23  H11         0      66.706  14.900  -9.160  1.00  0.00     0.218 HD
ENDBRANCH  18  22
ENDBRANCH   4  14
BRANCH   8  24
HETATM   24  O17         0      70.773   9.682  -3.242  1.00  0.00    -0.359 OA
HETATM   25  H17         0      69.957   9.378  -3.620  1.00  0.00     0.218 HD
ENDBRANCH   8  24
TORSDOF 5
ENDMDL
MODEL 8
REMARK VINA RESULT:      -4.5      2.658      6.178
REMARK  5 active torsions:
REMARK  status: ('A' for Active; 'I' for Inactive)
REMARK    1  A    between atoms: C4_4  and  C5_5 
REMARK    2  A    between atoms: C8_8  and  O9_9 
REMARK    3  A    between atoms: C10_11  and  O11_12 
REMARK    4  A    between atoms: C16_18  and  O17_19 
REMARK    5  A    between atoms: C19_22  and  O20_23 
ROOT
HETATM    1  O1          0      67.937  13.402 -14.570  1.00  0.00    -0.286 OA
HETATM    2  C2          0      67.326  13.478 -13.469  1.00  0.00     0.201 C 
HETATM    3  C3          0      66.046  13.993 -13.355  1.00  0.00     0.067 C 
HETATM    4  C4          0      65.436  14.161 -12.118  1.00  0.00     0.103 C 
HETATM    5  O13         0      66.094  13.798 -11.031  1.00  0.00    -0.307 OA
HETATM    6  C14         0      67.325  13.339 -11.080  1.00  0.00     0.107 C 
HETATM    7  C15         0      68.150  13.337  -9.964  1.00  0.00     0.049 C 
HETATM    8  C16         0      69.513  13.094 -10.075  1.00  0.00     0.093 C 
HETATM    9  C18         0      69.889  12.358 -11.192  1.00  0.00     0.048 C 
HETATM   10  C19         0      69.067  12.300 -12.308  1.00  0.00     0.096 C 
HETATM   11  C21         0      67.867  12.959 -12.303  1.00  0.00     0.084 C 
ENDROOT
BRANCH  10  12
HETATM   12  O20         0      69.613  11.951 -13.539  1.00  0.00    -0.359 OA
HETATM   13  H20         0      69.713  12.634 -14.192  1.00  0.00     0.218 HD
ENDBRANCH  10  12
BRANCH   4  14
HETATM   14  C5          0      64.419  15.208 -12.009  1.00  0.00     0.025 C 
HETATM   15  C6          0      63.153  15.089 -12.565  1.00  0.00     0.004 C 
HETATM   16  C7          0      62.080  15.598 -11.841  1.00  0.00     0.026 C 
HETATM   17  C8          0      62.269  16.321 -10.668  1.00  0.00     0.112 C 
HETATM   18  C10         0      63.519  16.914 -10.547  1.00  0.00     0.112 C 
HETATM   19  C12         0      64.592  16.334 -11.214  1.00  0.00     0.028 C 
BRANCH  17  20
HETATM   20  O9          0      61.347  16.254  -9.639  1.00  0.00    -0.357 OA
HETATM   21  H9          0      61.444  16.715  -8.813  1.00  0.00     0.218 HD
ENDBRANCH  17  20
BRANCH  18  22
HETATM   22  O11         0      63.695  17.798  -9.493  1.00  0.00    -0.357 OA
HETATM   23  H11         0      63.913  18.696  -9.716  1.00  0.00     0.218 HD
ENDBRANCH  18  22
ENDBRANCH   4  14
BRANCH   8  24
HETATM   24  O17         0      70.446  13.813  -9.319  1.00  0.00    -0.359 OA
HETATM   25  H17         0      71.285  14.075  -9.680  1.00  0.00     0.218 HD
ENDBRANCH   8  24
TORSDOF 5
ENDMDL
MODEL 9
REMARK VINA RESULT:      -4.5      1.608      2.788
REMARK  5 active torsions:
REMARK  status: ('A' for Active; 'I' for Inactive)
REMARK    1  A    between atoms: C4_4  and  C5_5 
REMARK    2  A    between atoms: C8_8  and  O9_9 
REMARK    3  A    between atoms: C10_11  and  O11_12 
REMARK    4  A    between atoms: C16_18  and  O17_19 
REMARK    5  A    between atoms: C19_22  and  O20_23 
ROOT
HETATM    1  O1          0      66.763  15.675 -10.277  1.00  0.00    -0.286 OA
HETATM    2  C2          0      65.972  15.189 -11.131  1.00  0.00     0.201 C 
HETATM    3  C3          0      66.346  14.195 -12.020  1.00  0.00     0.067 C 
HETATM    4  C4          0      65.487  13.750 -13.018  1.00  0.00     0.103 C 
HETATM    5  O13         0      64.280  14.280 -13.100  1.00  0.00    -0.307 OA
HETATM    6  C14         0      63.888  15.252 -12.306  1.00  0.00     0.107 C 
HETATM    7  C15         0      62.815  16.071 -12.627  1.00  0.00     0.049 C 
HETATM    8  C16         0      62.565  17.243 -11.923  1.00  0.00     0.093 C 
HETATM    9  C18         0      63.067  17.268 -10.628  1.00  0.00     0.048 C 
HETATM   10  C19         0      64.110  16.428 -10.259  1.00  0.00     0.096 C 
HETATM   11  C21         0      64.636  15.557 -11.174  1.00  0.00     0.084 C 
ENDROOT
BRANCH  10  12
HETATM   12  O20         0      64.880  16.748  -9.145  1.00  0.00    -0.359 OA
HETATM   13  H20         0      64.454  16.754  -8.297  1.00  0.00     0.218 HD
ENDBRANCH  10  12
BRANCH   4  14
HETATM   14  C5          0      66.097  13.196 -14.228  1.00  0.00     0.025 C 
HETATM   15  C6          0      67.440  12.858 -14.306  1.00  0.00     0.004 C 
HETATM   16  C7          0      67.776  11.712 -15.020  1.00  0.00     0.026 C 
HETATM   17  C8          0      66.827  11.000 -15.745  1.00  0.00     0.112 C 
HETATM   18  C10         0      65.711  11.736 -16.119  1.00  0.00     0.112 C 
HETATM   19  C12         0      65.348  12.827 -15.338  1.00  0.00     0.028 C 
BRANCH  17  20
HETATM   20  O9          0      66.921   9.626 -15.879  1.00  0.00    -0.357 OA
HETATM   21  H9          0      67.725   9.171 -16.104  1.00  0.00     0.218 HD
ENDBRANCH  17  20
BRANCH  18  22
HETATM   22  O11         0      64.826  11.132 -17.000  1.00  0.00    -0.357 OA
HETATM   23  H11         0      64.509  10.267 -16.766  1.00  0.00     0.218 HD
ENDBRANCH  18  22
ENDBRANCH   4  14
BRANCH   8  24
HETATM   24  O17         0      62.150  18.410 -12.574  1.00  0.00    -0.359 OA
HETATM   25  H17         0      61.264  18.742 -12.486  1.00  0.00     0.218 HD
ENDBRANCH   8  24
TORSDOF 5
ENDMDL
