MODEL 1
REMARK VINA RESULT:      -3.6      0.000      0.000
REMARK  5 active torsions:
REMARK  status: ('A' for Active; 'I' for Inactive)
REMARK    1  A    between atoms: C4_4  and  C5_5 
REMARK    2  A    between atoms: C8_8  and  O9_9 
REMARK    3  A    between atoms: C10_11  and  O11_12 
REMARK    4  A    between atoms: C16_18  and  O17_19 
REMARK    5  A    between atoms: C19_22  and  O20_23 
ROOT
HETATM    1  O1          0      40.093 100.483 -13.220  1.00  0.00    -0.286 OA
HETATM    2  C2          0      40.958 101.218 -13.771  1.00  0.00     0.201 C 
HETATM    3  C3          0      42.265 101.304 -13.323  1.00  0.00     0.067 C 
HETATM    4  C4          0      43.170 102.198 -13.884  1.00  0.00     0.103 C 
HETATM    5  O13         0      42.768 102.965 -14.882  1.00  0.00    -0.307 OA
HETATM    6  C14         0      41.529 102.950 -15.321  1.00  0.00     0.107 C 
HETATM    7  C15         0      41.004 103.997 -16.064  1.00  0.00     0.049 C 
HETATM    8  C16         0      39.639 104.097 -16.306  1.00  0.00     0.093 C 
HETATM    9  C18         0      38.943 102.895 -16.248  1.00  0.00     0.048 C 
HETATM   10  C19         0      39.462 101.812 -15.552  1.00  0.00     0.096 C 
HETATM   11  C21         0      40.676 101.922 -14.931  1.00  0.00     0.084 C 
ENDROOT
BRANCH  10  12
HETATM   12  O20         0      38.605 100.798 -15.134  1.00  0.00    -0.359 OA
HETATM   13  H20         0      38.986  99.960 -14.904  1.00  0.00     0.218 HD
ENDBRANCH  10  12
BRANCH   4  14
HETATM   14  C5          0      44.265 102.666 -13.032  1.00  0.00     0.025 C 
HETATM   15  C6          0      44.057 103.228 -11.781  1.00  0.00     0.004 C 
HETATM   16  C7          0      44.963 102.914 -10.774  1.00  0.00     0.026 C 
HETATM   17  C8          0      46.113 102.174 -11.032  1.00  0.00     0.112 C 
HETATM   18  C10         0      46.542 102.211 -12.352  1.00  0.00     0.112 C 
HETATM   19  C12         0      45.599 102.444 -13.346  1.00  0.00     0.028 C 
BRANCH  17  20
HETATM   20  O9          0      46.632 101.316 -10.079  1.00  0.00    -0.357 OA
HETATM   21  H9          0      47.483 101.431  -9.672  1.00  0.00     0.218 HD
ENDBRANCH  17  20
BRANCH  18  22
HETATM   22  O11         0      47.781 101.650 -12.625  1.00  0.00    -0.357 OA
HETATM   23  H11         0      48.535 102.227 -12.577  1.00  0.00     0.218 HD
ENDBRANCH  18  22
ENDBRANCH   4  14
BRANCH   8  24
HETATM   24  O17         0      38.980 105.331 -16.269  1.00  0.00    -0.359 OA
HETATM   25  H17         0      38.265 105.533 -16.860  1.00  0.00     0.218 HD
ENDBRANCH   8  24
TORSDOF 5
ENDMDL
MODEL 2
REMARK VINA RESULT:      -3.4      2.486      6.315
REMARK  5 active torsions:
REMARK  status: ('A' for Active; 'I' for Inactive)
REMARK    1  A    between atoms: C4_4  and  C5_5 
REMARK    2  A    between atoms: C8_8  and  O9_9 
REMARK    3  A    between atoms: C10_11  and  O11_12 
REMARK    4  A    between atoms: C16_18  and  O17_19 
REMARK    5  A    between atoms: C19_22  and  O20_23 
ROOT
HETATM    1  O1          0      45.083 103.373 -16.197  1.00  0.00    -0.286 OA
HETATM    2  C2          0      44.545 102.952 -15.136  1.00  0.00     0.201 C 
HETATM    3  C3          0      43.649 101.896 -15.117  1.00  0.00     0.067 C 
HETATM    4  C4          0      42.993 101.519 -13.951  1.00  0.00     0.103 C 
HETATM    5  O13         0      43.253 102.176 -12.835  1.00  0.00    -0.307 OA
HETATM    6  C14         0      44.067 103.209 -12.806  1.00  0.00     0.107 C 
HETATM    7  C15         0      44.040 104.132 -11.769  1.00  0.00     0.049 C 
HETATM    8  C16         0      44.711 105.345 -11.865  1.00  0.00     0.093 C 
HETATM    9  C18         0      45.785 105.353 -12.747  1.00  0.00     0.048 C 
HETATM   10  C19         0      45.868 104.415 -13.767  1.00  0.00     0.096 C 
HETATM   11  C21         0      44.892 103.464 -13.895  1.00  0.00     0.084 C 
ENDROOT
BRANCH  10  12
HETATM   12  O20         0      46.668 104.681 -14.873  1.00  0.00    -0.359 OA
HETATM   13  H20         0      47.566 104.371 -14.859  1.00  0.00     0.218 HD
ENDBRANCH  10  12
BRANCH   4  14
HETATM   14  C5          0      41.692 100.864 -14.097  1.00  0.00     0.025 C 
HETATM   15  C6          0      40.891 100.533 -13.013  1.00  0.00     0.004 C 
HETATM   16  C7          0      39.517 100.695 -13.154  1.00  0.00     0.026 C 
HETATM   17  C8          0      38.944 101.046 -14.372  1.00  0.00     0.112 C 
HETATM   18  C10         0      39.714 100.735 -15.485  1.00  0.00     0.112 C 
HETATM   19  C12         0      41.094 100.663 -15.334  1.00  0.00     0.028 C 
BRANCH  17  20
HETATM   20  O9          0      37.804 101.828 -14.421  1.00  0.00    -0.357 OA
HETATM   21  H9          0      37.725 102.673 -13.993  1.00  0.00     0.218 HD
ENDBRANCH  17  20
BRANCH  18  22
HETATM   22  O11         0      39.115 100.888 -16.727  1.00  0.00    -0.357 OA
HETATM   23  H11         0      38.173 100.767 -16.768  1.00  0.00     0.218 HD
ENDBRANCH  18  22
ENDBRANCH   4  14
BRANCH   8  24
HETATM   24  O17         0      44.148 106.530 -11.381  1.00  0.00    -0.359 OA
HETATM   25  H17         0      44.327 106.846 -10.503  1.00  0.00     0.218 HD
ENDBRANCH   8  24
TORSDOF 5
ENDMDL
MODEL 3
REMARK VINA RESULT:      -3.4      2.015      6.800
REMARK  5 active torsions:
REMARK  status: ('A' for Active; 'I' for Inactive)
REMARK    1  A    between atoms: C4_4  and  C5_5 
REMARK    2  A    between atoms: C8_8  and  O9_9 
REMARK    3  A    between atoms: C10_11  and  O11_12 
REMARK    4  A    between atoms: C16_18  and  O17_19 
REMARK    5  A    between atoms: C19_22  and  O20_23 
ROOT
HETATM    1  O1          0      43.719 105.264 -13.552  1.00  0.00    -0.286 OA
HETATM    2  C2          0      43.836 104.016 -13.690  1.00  0.00     0.201 C 
HETATM    3  C3          0      42.845 103.226 -14.248  1.00  0.00     0.067 C 
HETATM    4  C4          0      42.957 101.841 -14.295  1.00  0.00     0.103 C 
HETATM    5  O13         0      44.049 101.276 -13.812  1.00  0.00    -0.307 OA
HETATM    6  C14         0      45.003 101.976 -13.238  1.00  0.00     0.107 C 
HETATM    7  C15         0      45.932 101.388 -12.391  1.00  0.00     0.049 C 
HETATM    8  C16         0      46.770 102.158 -11.594  1.00  0.00     0.093 C 
HETATM    9  C18         0      47.003 103.446 -12.060  1.00  0.00     0.048 C 
HETATM   10  C19         0      46.118 104.047 -12.945  1.00  0.00     0.096 C 
HETATM   11  C21         0      45.016 103.359 -13.375  1.00  0.00     0.084 C 
ENDROOT
BRANCH  10  12
HETATM   12  O20         0      46.108 105.434 -13.061  1.00  0.00    -0.359 OA
HETATM   13  H20         0      46.920 105.866 -13.298  1.00  0.00     0.218 HD
ENDBRANCH  10  12
BRANCH   4  14
HETATM   14  C5          0      41.713 101.069 -14.316  1.00  0.00     0.025 C 
HETATM   15  C6          0      41.060 100.665 -13.161  1.00  0.00     0.004 C 
HETATM   16  C7          0      39.669 100.699 -13.161  1.00  0.00     0.026 C 
HETATM   17  C8          0      38.947 100.995 -14.312  1.00  0.00     0.112 C 
HETATM   18  C10         0      39.626 100.758 -15.499  1.00  0.00     0.112 C 
HETATM   19  C12         0      41.015 100.814 -15.489  1.00  0.00     0.028 C 
BRANCH  17  20
HETATM   20  O9          0      37.741 101.668 -14.238  1.00  0.00    -0.357 OA
HETATM   21  H9          0      37.188 101.846 -14.990  1.00  0.00     0.218 HD
ENDBRANCH  17  20
BRANCH  18  22
HETATM   22  O11         0      38.892 100.855 -16.673  1.00  0.00    -0.357 OA
HETATM   23  H11         0      39.209 100.361 -17.421  1.00  0.00     0.218 HD
ENDBRANCH  18  22
ENDBRANCH   4  14
BRANCH   8  24
HETATM   24  O17         0      47.070 101.787 -10.279  1.00  0.00    -0.359 OA
HETATM   25  H17         0      47.962 101.781  -9.953  1.00  0.00     0.218 HD
ENDBRANCH   8  24
TORSDOF 5
ENDMDL
MODEL 4
REMARK VINA RESULT:      -3.2      3.441      5.836
REMARK  5 active torsions:
REMARK  status: ('A' for Active; 'I' for Inactive)
REMARK    1  A    between atoms: C4_4  and  C5_5 
REMARK    2  A    between atoms: C8_8  and  O9_9 
REMARK    3  A    between atoms: C10_11  and  O11_12 
REMARK    4  A    between atoms: C16_18  and  O17_19 
REMARK    5  A    between atoms: C19_22  and  O20_23 
ROOT
HETATM    1  O1          0      34.824 100.123 -14.337  1.00  0.00    -0.286 OA
HETATM    2  C2          0      35.575 100.966 -14.902  1.00  0.00     0.201 C 
HETATM    3  C3          0      36.858 100.663 -15.324  1.00  0.00     0.067 C 
HETATM    4  C4          0      37.701 101.636 -15.850  1.00  0.00     0.103 C 
HETATM    5  O13         0      37.249 102.872 -15.964  1.00  0.00    -0.307 OA
HETATM    6  C14         0      36.053 103.221 -15.544  1.00  0.00     0.107 C 
HETATM    7  C15         0      35.725 104.545 -15.289  1.00  0.00     0.049 C 
HETATM    8  C16         0      34.560 104.882 -14.611  1.00  0.00     0.093 C 
HETATM    9  C18         0      33.543 103.938 -14.686  1.00  0.00     0.048 C 
HETATM   10  C19         0      33.831 102.613 -14.984  1.00  0.00     0.096 C 
HETATM   11  C21         0      35.124 102.237 -15.224  1.00  0.00     0.084 C 
ENDROOT
BRANCH  10  12
HETATM   12  O20         0      32.917 101.623 -14.636  1.00  0.00    -0.359 OA
HETATM   13  H20         0      32.046 101.894 -14.372  1.00  0.00     0.218 HD
ENDBRANCH  10  12
BRANCH   4  14
HETATM   14  C5          0      39.142 101.422 -15.706  1.00  0.00     0.025 C 
HETATM   15  C6          0      40.055 101.765 -16.693  1.00  0.00     0.004 C 
HETATM   16  C7          0      41.275 102.295 -16.286  1.00  0.00     0.026 C 
HETATM   17  C8          0      41.632 102.359 -14.943  1.00  0.00     0.112 C 
HETATM   18  C10         0      40.974 101.450 -14.125  1.00  0.00     0.112 C 
HETATM   19  C12         0      39.717 101.001 -14.514  1.00  0.00     0.028 C 
BRANCH  17  20
HETATM   20  O9          0      42.417 103.393 -14.467  1.00  0.00    -0.357 OA
HETATM   21  H9          0      42.100 104.280 -14.336  1.00  0.00     0.218 HD
ENDBRANCH  17  20
BRANCH  18  22
HETATM   22  O11         0      41.425 101.341 -12.818  1.00  0.00    -0.357 OA
HETATM   23  H11         0      42.349 101.503 -12.666  1.00  0.00     0.218 HD
ENDBRANCH  18  22
ENDBRANCH   4  14
BRANCH   8  24
HETATM   24  O17         0      34.540 105.911 -13.663  1.00  0.00    -0.359 OA
HETATM   25  H17         0      35.329 106.382 -13.420  1.00  0.00     0.218 HD
ENDBRANCH   8  24
TORSDOF 5
ENDMDL
MODEL 5
REMARK VINA RESULT:      -3.2      5.178      6.512
REMARK  5 active torsions:
REMARK  status: ('A' for Active; 'I' for Inactive)
REMARK    1  A    between atoms: C4_4  and  C5_5 
REMARK    2  A    between atoms: C8_8  and  O9_9 
REMARK    3  A    between atoms: C10_11  and  O11_12 
REMARK    4  A    between atoms: C16_18  and  O17_19 
REMARK    5  A    between atoms: C19_22  and  O20_23 
ROOT
HETATM    1  O1          0      42.446 109.899 -13.527  1.00  0.00    -0.286 OA
HETATM    2  C2          0      42.583 109.084 -12.573  1.00  0.00     0.201 C 
HETATM    3  C3          0      43.642 108.197 -12.490  1.00  0.00     0.067 C 
HETATM    4  C4          0      43.714 107.240 -11.484  1.00  0.00     0.103 C 
HETATM    5  O13         0      42.753 107.199 -10.577  1.00  0.00    -0.307 OA
HETATM    6  C14         0      41.707 107.993 -10.631  1.00  0.00     0.107 C 
HETATM    7  C15         0      40.533 107.703  -9.951  1.00  0.00     0.049 C 
HETATM    8  C16         0      39.358 108.399 -10.210  1.00  0.00     0.093 C 
HETATM    9  C18         0      39.534 109.673 -10.737  1.00  0.00     0.048 C 
HETATM   10  C19         0      40.716 110.012 -11.383  1.00  0.00     0.096 C 
HETATM   11  C21         0      41.721 109.090 -11.487  1.00  0.00     0.084 C 
ENDROOT
BRANCH  10  12
HETATM   12  O20         0      40.724 111.089 -12.263  1.00  0.00    -0.359 OA
HETATM   13  H20         0      41.144 111.892 -11.980  1.00  0.00     0.218 HD
ENDBRANCH  10  12
BRANCH   4  14
HETATM   14  C5          0      44.460 106.015 -11.776  1.00  0.00     0.025 C 
HETATM   15  C6          0      45.783 105.832 -11.400  1.00  0.00     0.004 C 
HETATM   16  C7          0      46.159 104.566 -10.962  1.00  0.00     0.026 C 
HETATM   17  C8          0      45.287 103.484 -11.023  1.00  0.00     0.112 C 
HETATM   18  C10         0      44.272 103.610 -11.962  1.00  0.00     0.112 C 
HETATM   19  C12         0      43.857 104.887 -12.318  1.00  0.00     0.028 C 
BRANCH  17  20
HETATM   20  O9          0      45.331 102.483 -10.068  1.00  0.00    -0.357 OA
HETATM   21  H9          0      45.344 101.556 -10.276  1.00  0.00     0.218 HD
ENDBRANCH  17  20
BRANCH  18  22
HETATM   22  O11         0      43.490 102.487 -12.197  1.00  0.00    -0.357 OA
HETATM   23  H11         0      43.469 102.157 -13.087  1.00  0.00     0.218 HD
ENDBRANCH  18  22
ENDBRANCH   4  14
BRANCH   8  24
HETATM   24  O17         0      38.120 107.749 -10.256  1.00  0.00    -0.359 OA
HETATM   25  H17         0      37.345 108.175 -10.601  1.00  0.00     0.218 HD
ENDBRANCH   8  24
TORSDOF 5
ENDMDL
MODEL 6
REMARK VINA RESULT:      -3.1      2.176      7.151
REMARK  5 active torsions:
REMARK  status: ('A' for Active; 'I' for Inactive)
REMARK    1  A    between atoms: C4_4  and  C5_5 
REMARK    2  A    between atoms: C8_8  and  O9_9 
REMARK    3  A    between atoms: C10_11  and  O11_12 
REMARK    4  A    between atoms: C16_18  and  O17_19 
REMARK    5  A    between atoms: C19_22  and  O20_23 
ROOT
HETATM    1  O1          0      42.051 106.039 -15.728  1.00  0.00    -0.286 OA
HETATM    2  C2          0      41.906 104.796 -15.572  1.00  0.00     0.201 C 
HETATM    3  C3          0      40.887 104.077 -16.174  1.00  0.00     0.067 C 
HETATM    4  C4          0      40.689 102.728 -15.904  1.00  0.00     0.103 C 
HETATM    5  O13         0      41.512 102.121 -15.067  1.00  0.00    -0.307 OA
HETATM    6  C14         0      42.472 102.764 -14.440  1.00  0.00     0.107 C 
HETATM    7  C15         0      43.064 102.256 -13.293  1.00  0.00     0.049 C 
HETATM    8  C16         0      43.888 103.043 -12.496  1.00  0.00     0.093 C 
HETATM    9  C18         0      44.491 104.110 -13.151  1.00  0.00     0.048 C 
HETATM   10  C19         0      43.951 104.614 -14.326  1.00  0.00     0.096 C 
HETATM   11  C21         0      42.825 104.044 -14.854  1.00  0.00     0.084 C 
ENDROOT
BRANCH  10  12
HETATM   12  O20         0      44.278 105.906 -14.727  1.00  0.00    -0.359 OA
HETATM   13  H20         0      44.201 106.119 -15.649  1.00  0.00     0.218 HD
ENDBRANCH  10  12
BRANCH   4  14
HETATM   14  C5          0      39.330 102.206 -16.060  1.00  0.00     0.025 C 
HETATM   15  C6          0      38.804 101.221 -15.237  1.00  0.00     0.004 C 
HETATM   16  C7          0      37.466 101.332 -14.873  1.00  0.00     0.026 C 
HETATM   17  C8          0      36.642 102.313 -15.414  1.00  0.00     0.112 C 
HETATM   18  C10         0      37.060 102.810 -16.641  1.00  0.00     0.112 C 
HETATM   19  C12         0      38.416 102.763 -16.945  1.00  0.00     0.028 C 
BRANCH  17  20
HETATM   20  O9          0      35.620 102.872 -14.667  1.00  0.00    -0.357 OA
HETATM   21  H9          0      35.170 103.674 -14.905  1.00  0.00     0.218 HD
ENDBRANCH  17  20
BRANCH  18  22
HETATM   22  O11         0      36.182 103.648 -17.312  1.00  0.00    -0.357 OA
HETATM   23  H11         0      35.322 103.768 -16.926  1.00  0.00     0.218 HD
ENDBRANCH  18  22
ENDBRANCH   4  14
BRANCH   8  24
HETATM   24  O17         0      43.839 102.969 -11.100  1.00  0.00    -0.359 OA
HETATM   25  H17         0      44.508 103.367 -10.555  1.00  0.00     0.218 HD
ENDBRANCH   8  24
TORSDOF 5
ENDMDL
MODEL 7
REMARK VINA RESULT:      -3.0      7.400      8.907
REMARK  5 active torsions:
REMARK  status: ('A' for Active; 'I' for Inactive)
REMARK    1  A    between atoms: C4_4  and  C5_5 
REMARK    2  A    between atoms: C8_8  and  O9_9 
REMARK    3  A    between atoms: C10_11  and  O11_12 
REMARK    4  A    between atoms: C16_18  and  O17_19 
REMARK    5  A    between atoms: C19_22  and  O20_23 
ROOT
HETATM    1  O1          0      35.408 110.780 -11.707  1.00  0.00    -0.286 OA
HETATM    2  C2          0      36.049 109.814 -11.209  1.00  0.00     0.201 C 
HETATM    3  C3          0      37.238 109.978 -10.519  1.00  0.00     0.067 C 
HETATM    4  C4          0      37.976 108.889 -10.069  1.00  0.00     0.103 C 
HETATM    5  O13         0      37.513 107.672 -10.294  1.00  0.00    -0.307 OA
HETATM    6  C14         0      36.409 107.459 -10.977  1.00  0.00     0.107 C 
HETATM    7  C15         0      36.132 106.228 -11.553  1.00  0.00     0.049 C 
HETATM    8  C16         0      35.104 106.078 -12.477  1.00  0.00     0.093 C 
HETATM    9  C18         0      34.089 107.023 -12.384  1.00  0.00     0.048 C 
HETATM   10  C19         0      34.319 108.247 -11.771  1.00  0.00     0.096 C 
HETATM   11  C21         0      35.550 108.520 -11.240  1.00  0.00     0.084 C 
ENDROOT
BRANCH  10  12
HETATM   12  O20         0      33.480 109.319 -12.058  1.00  0.00    -0.359 OA
HETATM   13  H20         0      33.199 109.436 -12.958  1.00  0.00     0.218 HD
ENDBRANCH  10  12
BRANCH   4  14
HETATM   14  C5          0      39.420 109.076  -9.915  1.00  0.00     0.025 C 
HETATM   15  C6          0      40.319 108.019  -9.912  1.00  0.00     0.004 C 
HETATM   16  C7          0      41.542 108.211 -10.547  1.00  0.00     0.026 C 
HETATM   17  C8          0      41.915 109.452 -11.051  1.00  0.00     0.112 C 
HETATM   18  C10         0      41.271 110.534 -10.465  1.00  0.00     0.112 C 
HETATM   19  C12         0      40.012 110.332  -9.912  1.00  0.00     0.028 C 
BRANCH  17  20
HETATM   20  O9          0      42.701 109.549 -12.185  1.00  0.00    -0.357 OA
HETATM   21  H9          0      42.554 109.042 -12.975  1.00  0.00     0.218 HD
ENDBRANCH  17  20
BRANCH  18  22
HETATM   22  O11         0      41.739 111.798 -10.794  1.00  0.00    -0.357 OA
HETATM   23  H11         0      41.450 112.160 -11.624  1.00  0.00     0.218 HD
ENDBRANCH  18  22
ENDBRANCH   4  14
BRANCH   8  24
HETATM   24  O17         0      35.252 105.266 -13.606  1.00  0.00    -0.359 OA
HETATM   25  H17         0      36.007 104.700 -13.719  1.00  0.00     0.218 HD
ENDBRANCH   8  24
TORSDOF 5
ENDMDL
MODEL 8
REMARK VINA RESULT:      -3.0      7.185      9.024
REMARK  5 active torsions:
REMARK  status: ('A' for Active; 'I' for Inactive)
REMARK    1  A    between atoms: C4_4  and  C5_5 
REMARK    2  A    between atoms: C8_8  and  O9_9 
REMARK    3  A    between atoms: C10_11  and  O11_12 
REMARK    4  A    between atoms: C16_18  and  O17_19 
REMARK    5  A    between atoms: C19_22  and  O20_23 
ROOT
HETATM    1  O1          0      37.761 106.514 -16.369  1.00  0.00    -0.286 OA
HETATM    2  C2          0      36.870 105.949 -15.678  1.00  0.00     0.201 C 
HETATM    3  C3          0      36.299 106.538 -14.563  1.00  0.00     0.067 C 
HETATM    4  C4          0      35.394 105.852 -13.760  1.00  0.00     0.103 C 
HETATM    5  O13         0      35.063 104.616 -14.089  1.00  0.00    -0.307 OA
HETATM    6  C14         0      35.604 103.997 -15.115  1.00  0.00     0.107 C 
HETATM    7  C15         0      35.577 102.615 -15.233  1.00  0.00     0.049 C 
HETATM    8  C16         0      36.360 101.955 -16.172  1.00  0.00     0.093 C 
HETATM    9  C18         0      36.721 102.718 -17.275  1.00  0.00     0.048 C 
HETATM   10  C19         0      36.714 104.105 -17.207  1.00  0.00     0.096 C 
HETATM   11  C21         0      36.333 104.726 -16.049  1.00  0.00     0.084 C 
ENDROOT
BRANCH  10  12
HETATM   12  O20         0      37.468 104.835 -18.121  1.00  0.00    -0.359 OA
HETATM   13  H20         0      37.010 105.267 -18.831  1.00  0.00     0.218 HD
ENDBRANCH  10  12
BRANCH   4  14
HETATM   14  C5          0      35.306 106.255 -12.355  1.00  0.00     0.025 C 
HETATM   15  C6          0      36.424 106.540 -11.583  1.00  0.00     0.004 C 
HETATM   16  C7          0      36.330 107.593 -10.678  1.00  0.00     0.026 C 
HETATM   17  C8          0      35.128 108.254 -10.449  1.00  0.00     0.112 C 
HETATM   18  C10         0      33.993 107.518 -10.762  1.00  0.00     0.112 C 
HETATM   19  C12         0      34.095 106.528 -11.733  1.00  0.00     0.028 C 
BRANCH  17  20
HETATM   20  O9          0      35.109 109.602 -10.140  1.00  0.00    -0.357 OA
HETATM   21  H9          0      35.869 110.169 -10.201  1.00  0.00     0.218 HD
ENDBRANCH  17  20
BRANCH  18  22
HETATM   22  O11         0      32.772 108.053 -10.379  1.00  0.00    -0.357 OA
HETATM   23  H11         0      32.279 107.573  -9.723  1.00  0.00     0.218 HD
ENDBRANCH  18  22
ENDBRANCH   4  14
BRANCH   8  24
HETATM   24  O17         0      37.005 100.751 -15.867  1.00  0.00    -0.359 OA
HETATM   25  H17         0      37.476 100.256 -16.527  1.00  0.00     0.218 HD
ENDBRANCH   8  24
TORSDOF 5
ENDMDL
MODEL 9
REMARK VINA RESULT:      -2.9      6.271      7.716
REMARK  5 active torsions:
REMARK  status: ('A' for Active; 'I' for Inactive)
REMARK    1  A    between atoms: C4_4  and  C5_5 
REMARK    2  A    between atoms: C8_8  and  O9_9 
REMARK    3  A    between atoms: C10_11  and  O11_12 
REMARK    4  A    between atoms: C16_18  and  O17_19 
REMARK    5  A    between atoms: C19_22  and  O20_23 
ROOT
HETATM    1  O1          0      37.872 109.611 -14.921  1.00  0.00    -0.286 OA
HETATM    2  C2          0      37.951 109.369 -13.685  1.00  0.00     0.201 C 
HETATM    3  C3          0      39.085 109.640 -12.938  1.00  0.00     0.067 C 
HETATM    4  C4          0      39.182 109.269 -11.602  1.00  0.00     0.103 C 
HETATM    5  O13         0      38.155 108.662 -11.035  1.00  0.00    -0.307 OA
HETATM    6  C14         0      37.070 108.347 -11.708  1.00  0.00     0.107 C 
HETATM    7  C15         0      36.181 107.384 -11.254  1.00  0.00     0.049 C 
HETATM    8  C16         0      35.184 106.876 -12.078  1.00  0.00     0.093 C 
HETATM    9  C18         0      34.796 107.715 -13.116  1.00  0.00     0.048 C 
HETATM   10  C19         0      35.643 108.720 -13.564  1.00  0.00     0.096 C 
HETATM   11  C21         0      36.862 108.897 -12.969  1.00  0.00     0.084 C 
ENDROOT
BRANCH  10  12
HETATM   12  O20         0      35.456 109.248 -14.838  1.00  0.00    -0.359 OA
HETATM   13  H20         0      34.567 109.319 -15.165  1.00  0.00     0.218 HD
ENDBRANCH  10  12
BRANCH   4  14
HETATM   14  C5          0      40.525 109.027 -11.070  1.00  0.00     0.025 C 
HETATM   15  C6          0      40.769 108.176 -10.002  1.00  0.00     0.004 C 
HETATM   16  C7          0      41.916 107.391 -10.053  1.00  0.00     0.026 C 
HETATM   17  C8          0      42.860 107.542 -11.063  1.00  0.00     0.112 C 
HETATM   18  C10         0      42.854 108.786 -11.680  1.00  0.00     0.112 C 
HETATM   19  C12         0      41.669 109.513 -11.689  1.00  0.00     0.028 C 
BRANCH  17  20
HETATM   20  O9          0      43.579 106.456 -11.530  1.00  0.00    -0.357 OA
HETATM   21  H9          0      43.447 105.566 -11.226  1.00  0.00     0.218 HD
ENDBRANCH  17  20
BRANCH  18  22
HETATM   22  O11         0      43.892 109.056 -12.560  1.00  0.00    -0.357 OA
HETATM   23  H11         0      43.685 109.589 -13.319  1.00  0.00     0.218 HD
ENDBRANCH  18  22
ENDBRANCH   4  14
BRANCH   8  24
HETATM   24  O17         0      34.851 105.517 -12.067  1.00  0.00    -0.359 OA
HETATM   25  H17         0      34.446 105.109 -11.311  1.00  0.00     0.218 HD
ENDBRANCH   8  24
TORSDOF 5
ENDMDL
