MODEL 1
REMARK VINA RESULT:      -5.7      0.000      0.000
REMARK  5 active torsions:
REMARK  status: ('A' for Active; 'I' for Inactive)
REMARK    1  A    between atoms: C4_4  and  C5_5 
REMARK    2  A    between atoms: C8_8  and  O9_9 
REMARK    3  A    between atoms: C10_11  and  O11_12 
REMARK    4  A    between atoms: C16_18  and  O17_19 
REMARK    5  A    between atoms: C19_22  and  O20_23 
ROOT
HETATM    1  O1          0      69.160  38.198   6.561  1.00  0.00    -0.286 OA
HETATM    2  C2          0      70.024  39.010   6.132  1.00  0.00     0.201 C 
HETATM    3  C3          0      70.346  40.183   6.793  1.00  0.00     0.067 C 
HETATM    4  C4          0      71.227  41.109   6.246  1.00  0.00     0.103 C 
HETATM    5  O13         0      71.781  40.844   5.076  1.00  0.00    -0.307 OA
HETATM    6  C14         0      71.481  39.764   4.389  1.00  0.00     0.107 C 
HETATM    7  C15         0      71.731  39.670   3.027  1.00  0.00     0.049 C 
HETATM    8  C16         0      71.188  38.644   2.263  1.00  0.00     0.093 C 
HETATM    9  C18         0      70.869  37.491   2.970  1.00  0.00     0.048 C 
HETATM   10  C19         0      70.659  37.541   4.342  1.00  0.00     0.096 C 
HETATM   11  C21         0      70.784  38.731   5.005  1.00  0.00     0.084 C 
ENDROOT
BRANCH  10  12
HETATM   12  O20         0      69.934  36.524   4.956  1.00  0.00    -0.359 OA
HETATM   13  H20         0      70.278  36.155   5.760  1.00  0.00     0.218 HD
ENDBRANCH  10  12
BRANCH   4  14
HETATM   14  C5          0      71.064  42.507   6.648  1.00  0.00     0.025 C 
HETATM   15  C6          0      70.033  43.309   6.180  1.00  0.00     0.004 C 
HETATM   16  C7          0      69.453  44.202   7.076  1.00  0.00     0.026 C 
HETATM   17  C8          0      69.967  44.390   8.354  1.00  0.00     0.112 C 
HETATM   18  C10         0      71.306  44.050   8.497  1.00  0.00     0.112 C 
HETATM   19  C12         0      71.838  43.091   7.642  1.00  0.00     0.028 C 
BRANCH  17  20
HETATM   20  O9          0      69.133  44.687   9.417  1.00  0.00    -0.357 OA
HETATM   21  H9          0      69.235  45.452   9.971  1.00  0.00     0.218 HD
ENDBRANCH  17  20
BRANCH  18  22
HETATM   22  O11         0      71.918  44.392   9.694  1.00  0.00    -0.357 OA
HETATM   23  H11         0      71.546  44.025  10.487  1.00  0.00     0.218 HD
ENDBRANCH  18  22
ENDBRANCH   4  14
BRANCH   8  24
HETATM   24  O17         0      70.696  38.877   0.974  1.00  0.00    -0.359 OA
HETATM   25  H17         0      70.885  38.288   0.254  1.00  0.00     0.218 HD
ENDBRANCH   8  24
TORSDOF 5
ENDMDL
MODEL 2
REMARK VINA RESULT:      -5.5      4.548      8.317
REMARK  5 active torsions:
REMARK  status: ('A' for Active; 'I' for Inactive)
REMARK    1  A    between atoms: C4_4  and  C5_5 
REMARK    2  A    between atoms: C8_8  and  O9_9 
REMARK    3  A    between atoms: C10_11  and  O11_12 
REMARK    4  A    between atoms: C16_18  and  O17_19 
REMARK    5  A    between atoms: C19_22  and  O20_23 
ROOT
HETATM    1  O1          0      66.552  46.001   3.140  1.00  0.00    -0.286 OA
HETATM    2  C2          0      67.196  46.389   4.153  1.00  0.00     0.201 C 
HETATM    3  C3          0      68.105  45.583   4.818  1.00  0.00     0.067 C 
HETATM    4  C4          0      68.725  45.998   5.991  1.00  0.00     0.103 C 
HETATM    5  O13         0      68.449  47.200   6.464  1.00  0.00    -0.307 OA
HETATM    6  C14         0      67.566  47.990   5.893  1.00  0.00     0.107 C 
HETATM    7  C15         0      66.983  49.048   6.575  1.00  0.00     0.049 C 
HETATM    8  C16         0      65.877  49.716   6.062  1.00  0.00     0.093 C 
HETATM    9  C18         0      65.737  49.645   4.681  1.00  0.00     0.048 C 
HETATM   10  C19         0      66.346  48.626   3.962  1.00  0.00     0.096 C 
HETATM   11  C21         0      67.104  47.693   4.615  1.00  0.00     0.084 C 
ENDROOT
BRANCH  10  12
HETATM   12  O20         0      65.866  48.305   2.696  1.00  0.00    -0.359 OA
HETATM   13  H20         0      65.742  47.387   2.486  1.00  0.00     0.218 HD
ENDBRANCH  10  12
BRANCH   4  14
HETATM   14  C5          0      69.159  44.956   6.924  1.00  0.00     0.025 C 
HETATM   15  C6          0      69.177  43.609   6.591  1.00  0.00     0.004 C 
HETATM   16  C7          0      70.235  42.842   7.069  1.00  0.00     0.026 C 
HETATM   17  C8          0      71.171  43.361   7.957  1.00  0.00     0.112 C 
HETATM   18  C10         0      70.726  44.450   8.696  1.00  0.00     0.112 C 
HETATM   19  C12         0      69.726  45.250   8.157  1.00  0.00     0.028 C 
BRANCH  17  20
HETATM   20  O9          0      72.488  42.941   7.924  1.00  0.00    -0.357 OA
HETATM   21  H9          0      72.970  42.775   7.122  1.00  0.00     0.218 HD
ENDBRANCH  17  20
BRANCH  18  22
HETATM   22  O11         0      71.547  44.887   9.726  1.00  0.00    -0.357 OA
HETATM   23  H11         0      71.558  45.821   9.900  1.00  0.00     0.218 HD
ENDBRANCH  18  22
ENDBRANCH   4  14
BRANCH   8  24
HETATM   24  O17         0      64.824  50.125   6.888  1.00  0.00    -0.359 OA
HETATM   25  H17         0      64.037  50.521   6.534  1.00  0.00     0.218 HD
ENDBRANCH   8  24
TORSDOF 5
ENDMDL
MODEL 3
REMARK VINA RESULT:      -5.4      3.804      5.937
REMARK  5 active torsions:
REMARK  status: ('A' for Active; 'I' for Inactive)
REMARK    1  A    between atoms: C4_4  and  C5_5 
REMARK    2  A    between atoms: C8_8  and  O9_9 
REMARK    3  A    between atoms: C10_11  and  O11_12 
REMARK    4  A    between atoms: C16_18  and  O17_19 
REMARK    5  A    between atoms: C19_22  and  O20_23 
ROOT
HETATM    1  O1          0      69.793  42.621   2.950  1.00  0.00    -0.286 OA
HETATM    2  C2          0      69.467  43.246   3.996  1.00  0.00     0.201 C 
HETATM    3  C3          0      68.662  44.373   3.977  1.00  0.00     0.067 C 
HETATM    4  C4          0      68.402  45.102   5.132  1.00  0.00     0.103 C 
HETATM    5  O13         0      68.924  44.690   6.274  1.00  0.00    -0.307 OA
HETATM    6  C14         0      69.725  43.649   6.341  1.00  0.00     0.107 C 
HETATM    7  C15         0      70.577  43.450   7.418  1.00  0.00     0.049 C 
HETATM    8  C16         0      71.592  42.503   7.370  1.00  0.00     0.093 C 
HETATM    9  C18         0      71.379  41.459   6.478  1.00  0.00     0.048 C 
HETATM   10  C19         0      70.498  41.607   5.416  1.00  0.00     0.096 C 
HETATM   11  C21         0      69.821  42.785   5.255  1.00  0.00     0.084 C 
ENDROOT
BRANCH  10  12
HETATM   12  O20         0      70.612  40.765   4.314  1.00  0.00    -0.359 OA
HETATM   13  H20         0      70.415  41.124   3.457  1.00  0.00     0.218 HD
ENDBRANCH  10  12
BRANCH   4  14
HETATM   14  C5          0      68.093  46.524   4.971  1.00  0.00     0.025 C 
HETATM   15  C6          0      68.331  47.216   3.793  1.00  0.00     0.004 C 
HETATM   16  C7          0      67.393  48.166   3.403  1.00  0.00     0.026 C 
HETATM   17  C8          0      66.323  48.514   4.220  1.00  0.00     0.112 C 
HETATM   18  C10         0      66.520  48.262   5.572  1.00  0.00     0.112 C 
HETATM   19  C12         0      67.401  47.249   5.933  1.00  0.00     0.028 C 
BRANCH  17  20
HETATM   20  O9          0      65.103  48.876   3.677  1.00  0.00    -0.357 OA
HETATM   21  H9          0      64.994  49.579   3.047  1.00  0.00     0.218 HD
ENDBRANCH  17  20
BRANCH  18  22
HETATM   22  O11         0      65.568  48.760   6.449  1.00  0.00    -0.357 OA
HETATM   23  H11         0      65.160  49.586   6.218  1.00  0.00     0.218 HD
ENDBRANCH  18  22
ENDBRANCH   4  14
BRANCH   8  24
HETATM   24  O17         0      72.855  42.760   7.914  1.00  0.00    -0.359 OA
HETATM   25  H17         0      73.645  42.712   7.387  1.00  0.00     0.218 HD
ENDBRANCH   8  24
TORSDOF 5
ENDMDL
MODEL 4
REMARK VINA RESULT:      -5.4      6.693     10.202
REMARK  5 active torsions:
REMARK  status: ('A' for Active; 'I' for Inactive)
REMARK    1  A    between atoms: C4_4  and  C5_5 
REMARK    2  A    between atoms: C8_8  and  O9_9 
REMARK    3  A    between atoms: C10_11  and  O11_12 
REMARK    4  A    between atoms: C16_18  and  O17_19 
REMARK    5  A    between atoms: C19_22  and  O20_23 
ROOT
HETATM    1  O1          0      64.414  48.318   3.008  1.00  0.00    -0.286 OA
HETATM    2  C2          0      65.584  47.862   2.889  1.00  0.00     0.201 C 
HETATM    3  C3          0      65.994  47.125   1.791  1.00  0.00     0.067 C 
HETATM    4  C4          0      67.257  46.547   1.732  1.00  0.00     0.103 C 
HETATM    5  O13         0      68.086  46.728   2.745  1.00  0.00    -0.307 OA
HETATM    6  C14         0      67.734  47.387   3.827  1.00  0.00     0.107 C 
HETATM    7  C15         0      68.420  47.246   5.025  1.00  0.00     0.049 C 
HETATM    8  C16         0      67.901  47.738   6.216  1.00  0.00     0.093 C 
HETATM    9  C18         0      67.000  48.786   6.075  1.00  0.00     0.048 C 
HETATM   10  C19         0      66.331  48.985   4.875  1.00  0.00     0.096 C 
HETATM   11  C21         0      66.573  48.152   3.817  1.00  0.00     0.084 C 
ENDROOT
BRANCH  10  12
HETATM   12  O20         0      65.151  49.723   4.868  1.00  0.00    -0.359 OA
HETATM   13  H20         0      64.347  49.279   5.109  1.00  0.00     0.218 HD
ENDBRANCH  10  12
BRANCH   4  14
HETATM   14  C5          0      67.407  45.348   0.905  1.00  0.00     0.025 C 
HETATM   15  C6          0      67.218  44.065   1.397  1.00  0.00     0.004 C 
HETATM   16  C7          0      66.595  43.141   0.565  1.00  0.00     0.026 C 
HETATM   17  C8          0      66.293  43.439  -0.760  1.00  0.00     0.112 C 
HETATM   18  C10         0      67.063  44.452  -1.316  1.00  0.00     0.112 C 
HETATM   19  C12         0      67.603  45.412  -0.469  1.00  0.00     0.028 C 
BRANCH  17  20
HETATM   20  O9          0      65.173  42.903  -1.369  1.00  0.00    -0.357 OA
HETATM   21  H9          0      65.156  42.598  -2.269  1.00  0.00     0.218 HD
ENDBRANCH  17  20
BRANCH  18  22
HETATM   22  O11         0      66.934  44.661  -2.682  1.00  0.00    -0.357 OA
HETATM   23  H11         0      66.050  44.709  -3.028  1.00  0.00     0.218 HD
ENDBRANCH  18  22
ENDBRANCH   4  14
BRANCH   8  24
HETATM   24  O17         0      68.014  47.020   7.412  1.00  0.00    -0.359 OA
HETATM   25  H17         0      67.383  46.352   7.654  1.00  0.00     0.218 HD
ENDBRANCH   8  24
TORSDOF 5
ENDMDL
MODEL 5
REMARK VINA RESULT:      -5.3      1.923      6.534
REMARK  5 active torsions:
REMARK  status: ('A' for Active; 'I' for Inactive)
REMARK    1  A    between atoms: C4_4  and  C5_5 
REMARK    2  A    between atoms: C8_8  and  O9_9 
REMARK    3  A    between atoms: C10_11  and  O11_12 
REMARK    4  A    between atoms: C16_18  and  O17_19 
REMARK    5  A    between atoms: C19_22  and  O20_23 
ROOT
HETATM    1  O1          0      73.004  42.860   6.814  1.00  0.00    -0.286 OA
HETATM    2  C2          0      71.967  42.151   6.696  1.00  0.00     0.201 C 
HETATM    3  C3          0      72.010  40.772   6.585  1.00  0.00     0.067 C 
HETATM    4  C4          0      70.861  40.024   6.353  1.00  0.00     0.103 C 
HETATM    5  O13         0      69.703  40.652   6.258  1.00  0.00    -0.307 OA
HETATM    6  C14         0      69.611  41.962   6.318  1.00  0.00     0.107 C 
HETATM    7  C15         0      68.504  42.641   5.831  1.00  0.00     0.049 C 
HETATM    8  C16         0      68.518  44.020   5.663  1.00  0.00     0.093 C 
HETATM    9  C18         0      69.424  44.700   6.468  1.00  0.00     0.048 C 
HETATM   10  C19         0      70.519  44.040   7.011  1.00  0.00     0.096 C 
HETATM   11  C21         0      70.698  42.706   6.765  1.00  0.00     0.084 C 
ENDROOT
BRANCH  10  12
HETATM   12  O20         0      71.620  44.780   7.429  1.00  0.00    -0.359 OA
HETATM   13  H20         0      72.015  44.558   8.263  1.00  0.00     0.218 HD
ENDBRANCH  10  12
BRANCH   4  14
HETATM   14  C5          0      71.025  38.740   5.669  1.00  0.00     0.025 C 
HETATM   15  C6          0      70.078  37.728   5.731  1.00  0.00     0.004 C 
HETATM   16  C7          0      69.849  36.988   4.576  1.00  0.00     0.026 C 
HETATM   17  C8          0      70.628  37.155   3.436  1.00  0.00     0.112 C 
HETATM   18  C10         0      71.889  37.688   3.668  1.00  0.00     0.112 C 
HETATM   19  C12         0      72.069  38.495   4.786  1.00  0.00     0.028 C 
BRANCH  17  20
HETATM   20  O9          0      70.082  36.995   2.175  1.00  0.00    -0.357 OA
HETATM   21  H9          0      70.497  37.302   1.377  1.00  0.00     0.218 HD
ENDBRANCH  17  20
BRANCH  18  22
HETATM   22  O11         0      72.773  37.701   2.599  1.00  0.00    -0.357 OA
HETATM   23  H11         0      72.611  37.077   1.900  1.00  0.00     0.218 HD
ENDBRANCH  18  22
ENDBRANCH   4  14
BRANCH   8  24
HETATM   24  O17         0      67.925  44.626   4.549  1.00  0.00    -0.359 OA
HETATM   25  H17         0      68.349  44.631   3.699  1.00  0.00     0.218 HD
ENDBRANCH   8  24
TORSDOF 5
ENDMDL
MODEL 6
REMARK VINA RESULT:      -5.3      4.537      8.067
REMARK  5 active torsions:
REMARK  status: ('A' for Active; 'I' for Inactive)
REMARK    1  A    between atoms: C4_4  and  C5_5 
REMARK    2  A    between atoms: C8_8  and  O9_9 
REMARK    3  A    between atoms: C10_11  and  O11_12 
REMARK    4  A    between atoms: C16_18  and  O17_19 
REMARK    5  A    between atoms: C19_22  and  O20_23 
ROOT
HETATM    1  O1          0      68.400  48.901   6.450  1.00  0.00    -0.286 OA
HETATM    2  C2          0      68.115  47.769   5.970  1.00  0.00     0.201 C 
HETATM    3  C3          0      68.760  46.606   6.356  1.00  0.00     0.067 C 
HETATM    4  C4          0      68.498  45.389   5.738  1.00  0.00     0.103 C 
HETATM    5  O13         0      67.596  45.347   4.774  1.00  0.00    -0.307 OA
HETATM    6  C14         0      66.982  46.428   4.344  1.00  0.00     0.107 C 
HETATM    7  C15         0      66.357  46.470   3.106  1.00  0.00     0.049 C 
HETATM    8  C16         0      65.937  47.673   2.550  1.00  0.00     0.093 C 
HETATM    9  C18         0      65.686  48.687   3.466  1.00  0.00     0.048 C 
HETATM   10  C19         0      66.259  48.652   4.731  1.00  0.00     0.096 C 
HETATM   11  C21         0      67.062  47.603   5.084  1.00  0.00     0.084 C 
ENDROOT
BRANCH  10  12
HETATM   12  O20         0      66.368  49.832   5.460  1.00  0.00    -0.359 OA
HETATM   13  H20         0      65.836  49.924   6.241  1.00  0.00     0.218 HD
ENDBRANCH  10  12
BRANCH   4  14
HETATM   14  C5          0      69.569  44.391   5.744  1.00  0.00     0.025 C 
HETATM   15  C6          0      70.214  43.987   6.904  1.00  0.00     0.004 C 
HETATM   16  C7          0      70.551  42.642   7.019  1.00  0.00     0.026 C 
HETATM   17  C8          0      70.375  41.753   5.964  1.00  0.00     0.112 C 
HETATM   18  C10         0      70.339  42.344   4.708  1.00  0.00     0.112 C 
HETATM   19  C12         0      69.917  43.665   4.612  1.00  0.00     0.028 C 
BRANCH  17  20
HETATM   20  O9          0      70.054  40.428   6.199  1.00  0.00    -0.357 OA
HETATM   21  H9          0      70.274  39.718   5.607  1.00  0.00     0.218 HD
ENDBRANCH  17  20
BRANCH  18  22
HETATM   22  O11         0      70.356  41.493   3.612  1.00  0.00    -0.357 OA
HETATM   23  H11         0      70.404  41.898   2.754  1.00  0.00     0.218 HD
ENDBRANCH  18  22
ENDBRANCH   4  14
BRANCH   8  24
HETATM   24  O17         0      66.084  47.935   1.184  1.00  0.00    -0.359 OA
HETATM   25  H17         0      65.342  48.166   0.637  1.00  0.00     0.218 HD
ENDBRANCH   8  24
TORSDOF 5
ENDMDL
MODEL 7
REMARK VINA RESULT:      -5.2      5.410      8.286
REMARK  5 active torsions:
REMARK  status: ('A' for Active; 'I' for Inactive)
REMARK    1  A    between atoms: C4_4  and  C5_5 
REMARK    2  A    between atoms: C8_8  and  O9_9 
REMARK    3  A    between atoms: C10_11  and  O11_12 
REMARK    4  A    between atoms: C16_18  and  O17_19 
REMARK    5  A    between atoms: C19_22  and  O20_23 
ROOT
HETATM    1  O1          0      67.356  47.121   6.047  1.00  0.00    -0.286 OA
HETATM    2  C2          0      67.744  46.420   5.074  1.00  0.00     0.201 C 
HETATM    3  C3          0      67.441  46.728   3.758  1.00  0.00     0.067 C 
HETATM    4  C4          0      67.794  45.883   2.712  1.00  0.00     0.103 C 
HETATM    5  O13         0      68.452  44.771   2.989  1.00  0.00    -0.307 OA
HETATM    6  C14         0      68.733  44.413   4.222  1.00  0.00     0.107 C 
HETATM    7  C15         0      69.050  43.103   4.549  1.00  0.00     0.049 C 
HETATM    8  C16         0      69.094  42.679   5.872  1.00  0.00     0.093 C 
HETATM    9  C18         0      69.335  43.683   6.802  1.00  0.00     0.048 C 
HETATM   10  C19         0      69.073  45.010   6.492  1.00  0.00     0.096 C 
HETATM   11  C21         0      68.589  45.335   5.254  1.00  0.00     0.084 C 
ENDROOT
BRANCH  10  12
HETATM   12  O20         0      68.897  45.928   7.522  1.00  0.00    -0.359 OA
HETATM   13  H20         0      68.846  45.595   8.411  1.00  0.00     0.218 HD
ENDBRANCH  10  12
BRANCH   4  14
HETATM   14  C5          0      66.967  45.931   1.505  1.00  0.00     0.025 C 
HETATM   15  C6          0      66.416  47.106   1.017  1.00  0.00     0.004 C 
HETATM   16  C7          0      66.380  47.278  -0.363  1.00  0.00     0.026 C 
HETATM   17  C8          0      66.756  46.261  -1.234  1.00  0.00     0.112 C 
HETATM   18  C10         0      66.674  44.981  -0.701  1.00  0.00     0.112 C 
HETATM   19  C12         0      66.797  44.830   0.675  1.00  0.00     0.028 C 
BRANCH  17  20
HETATM   20  O9          0      67.357  46.551  -2.446  1.00  0.00    -0.357 OA
HETATM   21  H9          0      67.659  47.418  -2.691  1.00  0.00     0.218 HD
ENDBRANCH  17  20
BRANCH  18  22
HETATM   22  O11         0      66.854  43.922  -1.580  1.00  0.00    -0.357 OA
HETATM   23  H11         0      66.074  43.570  -1.994  1.00  0.00     0.218 HD
ENDBRANCH  18  22
ENDBRANCH   4  14
BRANCH   8  24
HETATM   24  O17         0      68.601  41.426   6.253  1.00  0.00    -0.359 OA
HETATM   25  H17         0      69.154  40.781   6.679  1.00  0.00     0.218 HD
ENDBRANCH   8  24
TORSDOF 5
ENDMDL
MODEL 8
REMARK VINA RESULT:      -5.1      4.015      9.341
REMARK  5 active torsions:
REMARK  status: ('A' for Active; 'I' for Inactive)
REMARK    1  A    between atoms: C4_4  and  C5_5 
REMARK    2  A    between atoms: C8_8  and  O9_9 
REMARK    3  A    between atoms: C10_11  and  O11_12 
REMARK    4  A    between atoms: C16_18  and  O17_19 
REMARK    5  A    between atoms: C19_22  and  O20_23 
ROOT
HETATM    1  O1          0      70.980  40.242   0.931  1.00  0.00    -0.286 OA
HETATM    2  C2          0      71.099  38.997   1.101  1.00  0.00     0.201 C 
HETATM    3  C3          0      71.153  38.098   0.049  1.00  0.00     0.067 C 
HETATM    4  C4          0      71.180  36.725   0.265  1.00  0.00     0.103 C 
HETATM    5  O13         0      71.176  36.278   1.508  1.00  0.00    -0.307 OA
HETATM    6  C14         0      71.089  37.086   2.542  1.00  0.00     0.107 C 
HETATM    7  C15         0      70.686  36.635   3.790  1.00  0.00     0.049 C 
HETATM    8  C16         0      70.351  37.524   4.805  1.00  0.00     0.093 C 
HETATM    9  C18         0      70.929  38.783   4.697  1.00  0.00     0.048 C 
HETATM   10  C19         0      71.386  39.247   3.471  1.00  0.00     0.096 C 
HETATM   11  C21         0      71.281  38.452   2.362  1.00  0.00     0.084 C 
ENDROOT
BRANCH  10  12
HETATM   12  O20         0      71.548  40.616   3.279  1.00  0.00    -0.359 OA
HETATM   13  H20         0      72.075  41.094   3.909  1.00  0.00     0.218 HD
ENDBRANCH  10  12
BRANCH   4  14
HETATM   14  C5          0      70.641  35.870  -0.794  1.00  0.00     0.025 C 
HETATM   15  C6          0      69.390  36.071  -1.360  1.00  0.00     0.004 C 
HETATM   16  C7          0      69.259  35.855  -2.728  1.00  0.00     0.026 C 
HETATM   17  C8          0      70.299  35.328  -3.486  1.00  0.00     0.112 C 
HETATM   18  C10         0      71.229  34.592  -2.763  1.00  0.00     0.112 C 
HETATM   19  C12         0      71.400  34.887  -1.416  1.00  0.00     0.028 C 
BRANCH  17  20
HETATM   20  O9          0      70.476  35.705  -4.805  1.00  0.00    -0.357 OA
HETATM   21  H9          0      70.983  35.204  -5.434  1.00  0.00     0.218 HD
ENDBRANCH  17  20
BRANCH  18  22
HETATM   22  O11         0      72.178  33.889  -3.492  1.00  0.00    -0.357 OA
HETATM   23  H11         0      71.854  33.299  -4.162  1.00  0.00     0.218 HD
ENDBRANCH  18  22
ENDBRANCH   4  14
BRANCH   8  24
HETATM   24  O17         0      69.269  37.282   5.658  1.00  0.00    -0.359 OA
HETATM   25  H17         0      68.739  37.990   6.006  1.00  0.00     0.218 HD
ENDBRANCH   8  24
TORSDOF 5
ENDMDL
MODEL 9
REMARK VINA RESULT:      -5.1      4.613      7.274
REMARK  5 active torsions:
REMARK  status: ('A' for Active; 'I' for Inactive)
REMARK    1  A    between atoms: C4_4  and  C5_5 
REMARK    2  A    between atoms: C8_8  and  O9_9 
REMARK    3  A    between atoms: C10_11  and  O11_12 
REMARK    4  A    between atoms: C16_18  and  O17_19 
REMARK    5  A    between atoms: C19_22  and  O20_23 
ROOT
HETATM    1  O1          0      71.032  46.248   8.578  1.00  0.00    -0.286 OA
HETATM    2  C2          0      70.449  46.368   7.466  1.00  0.00     0.201 C 
HETATM    3  C3          0      70.085  47.594   6.937  1.00  0.00     0.067 C 
HETATM    4  C4          0      69.353  47.691   5.759  1.00  0.00     0.103 C 
HETATM    5  O13         0      69.018  46.581   5.127  1.00  0.00    -0.307 OA
HETATM    6  C14         0      69.305  45.390   5.605  1.00  0.00     0.107 C 
HETATM    7  C15         0      68.634  44.251   5.183  1.00  0.00     0.049 C 
HETATM    8  C16         0      68.758  43.046   5.865  1.00  0.00     0.093 C 
HETATM    9  C18         0      69.930  42.905   6.598  1.00  0.00     0.048 C 
HETATM   10  C19         0      70.652  44.022   6.996  1.00  0.00     0.096 C 
HETATM   11  C21         0      70.216  45.272   6.649  1.00  0.00     0.084 C 
ENDROOT
BRANCH  10  12
HETATM   12  O20         0      71.540  43.913   8.062  1.00  0.00    -0.359 OA
HETATM   13  H20         0      72.356  43.451   7.916  1.00  0.00     0.218 HD
ENDBRANCH  10  12
BRANCH   4  14
HETATM   14  C5          0      68.516  48.880   5.587  1.00  0.00     0.025 C 
HETATM   15  C6          0      68.485  49.614   4.410  1.00  0.00     0.004 C 
HETATM   16  C7          0      67.258  50.124   4.000  1.00  0.00     0.026 C 
HETATM   17  C8          0      66.123  50.023   4.798  1.00  0.00     0.112 C 
HETATM   18  C10         0      66.379  49.864   6.153  1.00  0.00     0.112 C 
HETATM   19  C12         0      67.579  49.274   6.533  1.00  0.00     0.028 C 
BRANCH  17  20
HETATM   20  O9          0      64.868  49.882   4.232  1.00  0.00    -0.357 OA
HETATM   21  H9          0      64.157  50.499   4.363  1.00  0.00     0.218 HD
ENDBRANCH  17  20
BRANCH  18  22
HETATM   22  O11         0      65.293  49.948   7.012  1.00  0.00    -0.357 OA
HETATM   23  H11         0      64.617  50.578   6.790  1.00  0.00     0.218 HD
ENDBRANCH  18  22
ENDBRANCH   4  14
BRANCH   8  24
HETATM   24  O17         0      67.657  42.206   6.067  1.00  0.00    -0.359 OA
HETATM   25  H17         0      67.689  41.282   5.851  1.00  0.00     0.218 HD
ENDBRANCH   8  24
TORSDOF 5
ENDMDL
