MODEL 1
REMARK VINA RESULT:      -5.3      0.000      0.000
REMARK  5 active torsions:
REMARK  status: ('A' for Active; 'I' for Inactive)
REMARK    1  A    between atoms: C4_4  and  C5_5 
REMARK    2  A    between atoms: C8_8  and  O9_9 
REMARK    3  A    between atoms: C10_11  and  O11_12 
REMARK    4  A    between atoms: C16_18  and  O17_19 
REMARK    5  A    between atoms: C19_22  and  O20_23 
ROOT
HETATM    1  O1          0      35.633 111.106  -5.521  1.00  0.00    -0.286 OA
HETATM    2  C2          0      36.503 110.693  -4.706  1.00  0.00     0.201 C 
HETATM    3  C3          0      37.854 110.954  -4.855  1.00  0.00     0.067 C 
HETATM    4  C4          0      38.801 110.401  -4.000  1.00  0.00     0.103 C 
HETATM    5  O13         0      38.390 109.625  -3.013  1.00  0.00    -0.307 OA
HETATM    6  C14         0      37.122 109.315  -2.849  1.00  0.00     0.107 C 
HETATM    7  C15         0      36.729 108.218  -2.097  1.00  0.00     0.049 C 
HETATM    8  C16         0      35.422 107.747  -2.135  1.00  0.00     0.093 C 
HETATM    9  C18         0      34.469 108.690  -2.500  1.00  0.00     0.048 C 
HETATM   10  C19         0      34.835 109.823  -3.213  1.00  0.00     0.096 C 
HETATM   11  C21         0      36.148 110.022  -3.545  1.00  0.00     0.084 C 
ENDROOT
BRANCH  10  12
HETATM   12  O20         0      33.868 110.514  -3.936  1.00  0.00    -0.359 OA
HETATM   13  H20         0      34.139 111.285  -4.420  1.00  0.00     0.218 HD
ENDBRANCH  10  12
BRANCH   4  14
HETATM   14  C5          0      40.152 110.208  -4.532  1.00  0.00     0.025 C 
HETATM   15  C6          0      41.296 110.451  -3.785  1.00  0.00     0.004 C 
HETATM   16  C7          0      42.369 109.580  -3.949  1.00  0.00     0.026 C 
HETATM   17  C8          0      42.358 108.583  -4.918  1.00  0.00     0.112 C 
HETATM   18  C10         0      41.500 108.819  -5.984  1.00  0.00     0.112 C 
HETATM   19  C12         0      40.388 109.625  -5.770  1.00  0.00     0.028 C 
BRANCH  17  20
HETATM   20  O9          0      42.996 107.375  -4.699  1.00  0.00    -0.357 OA
HETATM   21  H9          0      43.468 106.898  -5.372  1.00  0.00     0.218 HD
ENDBRANCH  17  20
BRANCH  18  22
HETATM   22  O11         0      41.588 107.954  -7.065  1.00  0.00    -0.357 OA
HETATM   23  H11         0      41.652 107.027  -6.870  1.00  0.00     0.218 HD
ENDBRANCH  18  22
ENDBRANCH   4  14
BRANCH   8  24
HETATM   24  O17         0      35.141 106.376  -2.141  1.00  0.00    -0.359 OA
HETATM   25  H17         0      35.383 105.814  -1.414  1.00  0.00     0.218 HD
ENDBRANCH   8  24
TORSDOF 5
ENDMDL
MODEL 2
REMARK VINA RESULT:      -5.3      4.936      7.229
REMARK  5 active torsions:
REMARK  status: ('A' for Active; 'I' for Inactive)
REMARK    1  A    between atoms: C4_4  and  C5_5 
REMARK    2  A    between atoms: C8_8  and  O9_9 
REMARK    3  A    between atoms: C10_11  and  O11_12 
REMARK    4  A    between atoms: C16_18  and  O17_19 
REMARK    5  A    between atoms: C19_22  and  O20_23 
ROOT
HETATM    1  O1          0      37.594 115.587  -1.094  1.00  0.00    -0.286 OA
HETATM    2  C2          0      36.622 114.785  -1.029  1.00  0.00     0.201 C 
HETATM    3  C3          0      36.738 113.440  -1.337  1.00  0.00     0.067 C 
HETATM    4  C4          0      35.631 112.599  -1.356  1.00  0.00     0.103 C 
HETATM    5  O13         0      34.447 113.101  -1.053  1.00  0.00    -0.307 OA
HETATM    6  C14         0      34.276 114.378  -0.790  1.00  0.00     0.107 C 
HETATM    7  C15         0      33.028 114.979  -0.868  1.00  0.00     0.049 C 
HETATM    8  C16         0      32.890 116.362  -0.841  1.00  0.00     0.093 C 
HETATM    9  C18         0      33.929 117.044  -0.220  1.00  0.00     0.048 C 
HETATM   10  C19         0      35.179 116.454  -0.084  1.00  0.00     0.096 C 
HETATM   11  C21         0      35.384 115.184  -0.550  1.00  0.00     0.084 C 
ENDROOT
BRANCH  10  12
HETATM   12  O20         0      36.293 117.260   0.125  1.00  0.00    -0.359 OA
HETATM   13  H20         0      36.396 118.028  -0.424  1.00  0.00     0.218 HD
ENDBRANCH  10  12
BRANCH   4  14
HETATM   14  C5          0      35.697 111.426  -2.230  1.00  0.00     0.025 C 
HETATM   15  C6          0      36.651 110.430  -2.082  1.00  0.00     0.004 C 
HETATM   16  C7          0      36.250 109.116  -2.297  1.00  0.00     0.026 C 
HETATM   17  C8          0      34.980 108.809  -2.774  1.00  0.00     0.112 C 
HETATM   18  C10         0      34.359 109.837  -3.471  1.00  0.00     0.112 C 
HETATM   19  C12         0      34.719 111.147  -3.176  1.00  0.00     0.028 C 
BRANCH  17  20
HETATM   20  O9          0      34.337 107.648  -2.384  1.00  0.00    -0.357 OA
HETATM   21  H9          0      34.583 106.781  -2.687  1.00  0.00     0.218 HD
ENDBRANCH  17  20
BRANCH  18  22
HETATM   22  O11         0      33.177 109.527  -4.128  1.00  0.00    -0.357 OA
HETATM   23  H11         0      32.570 108.955  -3.673  1.00  0.00     0.218 HD
ENDBRANCH  18  22
ENDBRANCH   4  14
BRANCH   8  24
HETATM   24  O17         0      31.967 117.018  -1.662  1.00  0.00    -0.359 OA
HETATM   25  H17         0      32.104 117.104  -2.598  1.00  0.00     0.218 HD
ENDBRANCH   8  24
TORSDOF 5
ENDMDL
MODEL 3
REMARK VINA RESULT:      -5.1      5.091      6.925
REMARK  5 active torsions:
REMARK  status: ('A' for Active; 'I' for Inactive)
REMARK    1  A    between atoms: C4_4  and  C5_5 
REMARK    2  A    between atoms: C8_8  and  O9_9 
REMARK    3  A    between atoms: C10_11  and  O11_12 
REMARK    4  A    between atoms: C16_18  and  O17_19 
REMARK    5  A    between atoms: C19_22  and  O20_23 
ROOT
HETATM    1  O1          0      37.420 115.799  -1.059  1.00  0.00    -0.286 OA
HETATM    2  C2          0      36.447 114.997  -1.016  1.00  0.00     0.201 C 
HETATM    3  C3          0      36.570 113.651  -1.317  1.00  0.00     0.067 C 
HETATM    4  C4          0      35.464 112.811  -1.361  1.00  0.00     0.103 C 
HETATM    5  O13         0      34.273 113.313  -1.089  1.00  0.00    -0.307 OA
HETATM    6  C14         0      34.095 114.591  -0.834  1.00  0.00     0.107 C 
HETATM    7  C15         0      32.850 115.192  -0.943  1.00  0.00     0.049 C 
HETATM    8  C16         0      32.711 116.575  -0.924  1.00  0.00     0.093 C 
HETATM    9  C18         0      33.735 117.258  -0.278  1.00  0.00     0.048 C 
HETATM   10  C19         0      34.980 116.668  -0.110  1.00  0.00     0.096 C 
HETATM   11  C21         0      35.197 115.397  -0.568  1.00  0.00     0.084 C 
ENDROOT
BRANCH  10  12
HETATM   12  O20         0      36.089 117.476   0.124  1.00  0.00    -0.359 OA
HETATM   13  H20         0      35.996 118.410  -0.014  1.00  0.00     0.218 HD
ENDBRANCH  10  12
BRANCH   4  14
HETATM   14  C5          0      35.551 111.635  -2.230  1.00  0.00     0.025 C 
HETATM   15  C6          0      34.838 111.522  -3.415  1.00  0.00     0.004 C 
HETATM   16  C7          0      35.473 110.917  -4.495  1.00  0.00     0.026 C 
HETATM   17  C8          0      36.725 110.325  -4.366  1.00  0.00     0.112 C 
HETATM   18  C10         0      37.052 109.935  -3.074  1.00  0.00     0.112 C 
HETATM   19  C12         0      36.466 110.614  -2.011  1.00  0.00     0.028 C 
BRANCH  17  20
HETATM   20  O9          0      37.625 110.335  -5.416  1.00  0.00    -0.357 OA
HETATM   21  H9          0      38.264 111.024  -5.558  1.00  0.00     0.218 HD
ENDBRANCH  17  20
BRANCH  18  22
HETATM   22  O11         0      38.201 109.173  -2.919  1.00  0.00    -0.357 OA
HETATM   23  H11         0      38.083 108.240  -2.780  1.00  0.00     0.218 HD
ENDBRANCH  18  22
ENDBRANCH   4  14
BRANCH   8  24
HETATM   24  O17         0      31.808 117.229  -1.769  1.00  0.00    -0.359 OA
HETATM   25  H17         0      31.229 117.911  -1.449  1.00  0.00     0.218 HD
ENDBRANCH   8  24
TORSDOF 5
ENDMDL
MODEL 4
REMARK VINA RESULT:      -4.7      4.274      5.749
REMARK  5 active torsions:
REMARK  status: ('A' for Active; 'I' for Inactive)
REMARK    1  A    between atoms: C4_4  and  C5_5 
REMARK    2  A    between atoms: C8_8  and  O9_9 
REMARK    3  A    between atoms: C10_11  and  O11_12 
REMARK    4  A    between atoms: C16_18  and  O17_19 
REMARK    5  A    between atoms: C19_22  and  O20_23 
ROOT
HETATM    1  O1          0      40.972 106.885  -9.010  1.00  0.00    -0.286 OA
HETATM    2  C2          0      40.836 107.971  -8.382  1.00  0.00     0.201 C 
HETATM    3  C3          0      41.601 108.298  -7.275  1.00  0.00     0.067 C 
HETATM    4  C4          0      41.361 109.454  -6.540  1.00  0.00     0.103 C 
HETATM    5  O13         0      40.391 110.263  -6.927  1.00  0.00    -0.307 OA
HETATM    6  C14         0      39.612 109.981  -7.948  1.00  0.00     0.107 C 
HETATM    7  C15         0      38.377 110.591  -8.115  1.00  0.00     0.049 C 
HETATM    8  C16         0      37.455 110.113  -9.039  1.00  0.00     0.093 C 
HETATM    9  C18         0      38.002 109.397 -10.097  1.00  0.00     0.048 C 
HETATM   10  C19         0      39.256 108.813  -9.981  1.00  0.00     0.096 C 
HETATM   11  C21         0      39.967 108.958  -8.821  1.00  0.00     0.084 C 
ENDROOT
BRANCH  10  12
HETATM   12  O20         0      39.601 107.768 -10.832  1.00  0.00    -0.359 OA
HETATM   13  H20         0      39.104 106.962 -10.771  1.00  0.00     0.218 HD
ENDBRANCH  10  12
BRANCH   4  14
HETATM   14  C5          0      41.747 109.441  -5.127  1.00  0.00     0.025 C 
HETATM   15  C6          0      41.504 108.361  -4.292  1.00  0.00     0.004 C 
HETATM   16  C7          0      42.481 108.039  -3.355  1.00  0.00     0.026 C 
HETATM   17  C8          0      43.600 108.842  -3.162  1.00  0.00     0.112 C 
HETATM   18  C10         0      43.440 110.163  -3.557  1.00  0.00     0.112 C 
HETATM   19  C12         0      42.517 110.447  -4.557  1.00  0.00     0.028 C 
BRANCH  17  20
HETATM   20  O9          0      44.816 108.288  -2.805  1.00  0.00    -0.357 OA
HETATM   21  H9          0      45.402 107.860  -3.419  1.00  0.00     0.218 HD
ENDBRANCH  17  20
BRANCH  18  22
HETATM   22  O11         0      44.453 111.048  -3.216  1.00  0.00    -0.357 OA
HETATM   23  H11         0      45.027 111.335  -3.916  1.00  0.00     0.218 HD
ENDBRANCH  18  22
ENDBRANCH   4  14
BRANCH   8  24
HETATM   24  O17         0      36.088 110.064  -8.746  1.00  0.00    -0.359 OA
HETATM   25  H17         0      35.771 109.889  -7.868  1.00  0.00     0.218 HD
ENDBRANCH   8  24
TORSDOF 5
ENDMDL
MODEL 5
REMARK VINA RESULT:      -4.7      2.696      6.031
REMARK  5 active torsions:
REMARK  status: ('A' for Active; 'I' for Inactive)
REMARK    1  A    between atoms: C4_4  and  C5_5 
REMARK    2  A    between atoms: C8_8  and  O9_9 
REMARK    3  A    between atoms: C10_11  and  O11_12 
REMARK    4  A    between atoms: C16_18  and  O17_19 
REMARK    5  A    between atoms: C19_22  and  O20_23 
ROOT
HETATM    1  O1          0      36.492 113.406  -5.392  1.00  0.00    -0.286 OA
HETATM    2  C2          0      37.154 112.479  -4.851  1.00  0.00     0.201 C 
HETATM    3  C3          0      36.566 111.326  -4.358  1.00  0.00     0.067 C 
HETATM    4  C4          0      37.305 110.367  -3.674  1.00  0.00     0.103 C 
HETATM    5  O13         0      38.602 110.559  -3.515  1.00  0.00    -0.307 OA
HETATM    6  C14         0      39.203 111.653  -3.930  1.00  0.00     0.107 C 
HETATM    7  C15         0      40.437 112.043  -3.430  1.00  0.00     0.049 C 
HETATM    8  C16         0      40.946 113.313  -3.676  1.00  0.00     0.093 C 
HETATM    9  C18         0      40.456 113.930  -4.821  1.00  0.00     0.048 C 
HETATM   10  C19         0      39.247 113.532  -5.375  1.00  0.00     0.096 C 
HETATM   11  C21         0      38.539 112.513  -4.798  1.00  0.00     0.084 C 
ENDROOT
BRANCH  10  12
HETATM   12  O20         0      38.566 114.404  -6.219  1.00  0.00    -0.359 OA
HETATM   13  H20         0      37.934 114.997  -5.830  1.00  0.00     0.218 HD
ENDBRANCH  10  12
BRANCH   4  14
HETATM   14  C5          0      36.589 109.539  -2.701  1.00  0.00     0.025 C 
HETATM   15  C6          0      35.205 109.502  -2.619  1.00  0.00     0.004 C 
HETATM   16  C7          0      34.608 108.274  -2.350  1.00  0.00     0.026 C 
HETATM   17  C8          0      35.363 107.148  -2.041  1.00  0.00     0.112 C 
HETATM   18  C10         0      36.628 107.419  -1.536  1.00  0.00     0.112 C 
HETATM   19  C12         0      37.237 108.618  -1.889  1.00  0.00     0.028 C 
BRANCH  17  20
HETATM   20  O9          0      34.941 105.886  -2.418  1.00  0.00    -0.357 OA
HETATM   21  H9          0      34.667 105.662  -3.300  1.00  0.00     0.218 HD
ENDBRANCH  17  20
BRANCH  18  22
HETATM   22  O11         0      37.349 106.344  -1.035  1.00  0.00    -0.357 OA
HETATM   23  H11         0      37.279 105.523  -1.508  1.00  0.00     0.218 HD
ENDBRANCH  18  22
ENDBRANCH   4  14
BRANCH   8  24
HETATM   24  O17         0      41.622 114.032  -2.684  1.00  0.00    -0.359 OA
HETATM   25  H17         0      41.190 114.710  -2.178  1.00  0.00     0.218 HD
ENDBRANCH   8  24
TORSDOF 5
ENDMDL
MODEL 6
REMARK VINA RESULT:      -4.4      1.907      6.487
REMARK  5 active torsions:
REMARK  status: ('A' for Active; 'I' for Inactive)
REMARK    1  A    between atoms: C4_4  and  C5_5 
REMARK    2  A    between atoms: C8_8  and  O9_9 
REMARK    3  A    between atoms: C10_11  and  O11_12 
REMARK    4  A    between atoms: C16_18  and  O17_19 
REMARK    5  A    between atoms: C19_22  and  O20_23 
ROOT
HETATM    1  O1          0      42.059 112.306  -2.503  1.00  0.00    -0.286 OA
HETATM    2  C2          0      41.390 111.644  -3.343  1.00  0.00     0.201 C 
HETATM    3  C3          0      40.059 111.905  -3.617  1.00  0.00     0.067 C 
HETATM    4  C4          0      39.318 111.095  -4.471  1.00  0.00     0.103 C 
HETATM    5  O13         0      39.914 110.066  -5.045  1.00  0.00    -0.307 OA
HETATM    6  C14         0      41.166 109.751  -4.791  1.00  0.00     0.107 C 
HETATM    7  C15         0      41.670 108.487  -5.057  1.00  0.00     0.049 C 
HETATM    8  C16         0      42.903 108.082  -4.559  1.00  0.00     0.093 C 
HETATM    9  C18         0      43.788 109.114  -4.272  1.00  0.00     0.048 C 
HETATM   10  C19         0      43.321 110.402  -4.047  1.00  0.00     0.096 C 
HETATM   11  C21         0      41.979 110.660  -4.123  1.00  0.00     0.084 C 
ENDROOT
BRANCH  10  12
HETATM   12  O20         0      44.120 111.303  -3.351  1.00  0.00    -0.359 OA
HETATM   13  H20         0      44.471 112.046  -3.827  1.00  0.00     0.218 HD
ENDBRANCH  10  12
BRANCH   4  14
HETATM   14  C5          0      37.871 111.041  -4.255  1.00  0.00     0.025 C 
HETATM   15  C6          0      36.983 111.896  -4.892  1.00  0.00     0.004 C 
HETATM   16  C7          0      35.764 111.368  -5.304  1.00  0.00     0.026 C 
HETATM   17  C8          0      35.382 110.071  -4.977  1.00  0.00     0.112 C 
HETATM   18  C10         0      36.010 109.548  -3.854  1.00  0.00     0.112 C 
HETATM   19  C12         0      37.266 110.034  -3.513  1.00  0.00     0.028 C 
BRANCH  17  20
HETATM   20  O9          0      34.605 109.321  -5.841  1.00  0.00    -0.357 OA
HETATM   21  H9          0      33.666 109.210  -5.745  1.00  0.00     0.218 HD
ENDBRANCH  17  20
BRANCH  18  22
HETATM   22  O11         0      35.532 108.337  -3.374  1.00  0.00    -0.357 OA
HETATM   23  H11         0      36.174 107.656  -3.209  1.00  0.00     0.218 HD
ENDBRANCH  18  22
ENDBRANCH   4  14
BRANCH   8  24
HETATM   24  O17         0      43.102 106.785  -4.072  1.00  0.00    -0.359 OA
HETATM   25  H17         0      43.973 106.431  -3.936  1.00  0.00     0.218 HD
ENDBRANCH   8  24
TORSDOF 5
ENDMDL
MODEL 7
REMARK VINA RESULT:      -4.4      1.700      2.218
REMARK  5 active torsions:
REMARK  status: ('A' for Active; 'I' for Inactive)
REMARK    1  A    between atoms: C4_4  and  C5_5 
REMARK    2  A    between atoms: C8_8  and  O9_9 
REMARK    3  A    between atoms: C10_11  and  O11_12 
REMARK    4  A    between atoms: C16_18  and  O17_19 
REMARK    5  A    between atoms: C19_22  and  O20_23 
ROOT
HETATM    1  O1          0      37.883 113.236  -5.416  1.00  0.00    -0.286 OA
HETATM    2  C2          0      38.262 112.265  -4.705  1.00  0.00     0.201 C 
HETATM    3  C3          0      39.566 111.800  -4.703  1.00  0.00     0.067 C 
HETATM    4  C4          0      39.934 110.666  -3.989  1.00  0.00     0.103 C 
HETATM    5  O13         0      39.014 110.035  -3.280  1.00  0.00    -0.307 OA
HETATM    6  C14         0      37.754 110.413  -3.277  1.00  0.00     0.107 C 
HETATM    7  C15         0      36.736 109.557  -2.882  1.00  0.00     0.049 C 
HETATM    8  C16         0      35.402 109.866  -3.119  1.00  0.00     0.093 C 
HETATM    9  C18         0      35.128 111.221  -3.255  1.00  0.00     0.048 C 
HETATM   10  C19         0      36.134 112.112  -3.604  1.00  0.00     0.096 C 
HETATM   11  C21         0      37.409 111.655  -3.798  1.00  0.00     0.084 C 
ENDROOT
BRANCH  10  12
HETATM   12  O20         0      35.791 113.343  -4.154  1.00  0.00    -0.359 OA
HETATM   13  H20         0      35.330 113.347  -4.984  1.00  0.00     0.218 HD
ENDBRANCH  10  12
BRANCH   4  14
HETATM   14  C5          0      41.086 109.908  -4.482  1.00  0.00     0.025 C 
HETATM   15  C6          0      42.271 110.513  -4.874  1.00  0.00     0.004 C 
HETATM   16  C7          0      43.461 109.865  -4.556  1.00  0.00     0.026 C 
HETATM   17  C8          0      43.471 108.596  -3.987  1.00  0.00     0.112 C 
HETATM   18  C10         0      42.326 107.847  -4.220  1.00  0.00     0.112 C 
HETATM   19  C12         0      41.132 108.521  -4.452  1.00  0.00     0.028 C 
BRANCH  17  20
HETATM   20  O9          0      44.461 108.228  -3.094  1.00  0.00    -0.357 OA
HETATM   21  H9          0      45.371 108.099  -3.337  1.00  0.00     0.218 HD
ENDBRANCH  17  20
BRANCH  18  22
HETATM   22  O11         0      42.359 106.513  -3.840  1.00  0.00    -0.357 OA
HETATM   23  H11         0      41.677 105.950  -4.188  1.00  0.00     0.218 HD
ENDBRANCH  18  22
ENDBRANCH   4  14
BRANCH   8  24
HETATM   24  O17         0      34.487 108.886  -3.522  1.00  0.00    -0.359 OA
HETATM   25  H17         0      34.180 108.214  -2.924  1.00  0.00     0.218 HD
ENDBRANCH   8  24
TORSDOF 5
ENDMDL
MODEL 8
REMARK VINA RESULT:      -4.4      4.886      9.673
REMARK  5 active torsions:
REMARK  status: ('A' for Active; 'I' for Inactive)
REMARK    1  A    between atoms: C4_4  and  C5_5 
REMARK    2  A    between atoms: C8_8  and  O9_9 
REMARK    3  A    between atoms: C10_11  and  O11_12 
REMARK    4  A    between atoms: C16_18  and  O17_19 
REMARK    5  A    between atoms: C19_22  and  O20_23 
ROOT
HETATM    1  O1          0      46.885 108.317  -0.137  1.00  0.00    -0.286 OA
HETATM    2  C2          0      46.744 108.125  -1.376  1.00  0.00     0.201 C 
HETATM    3  C3          0      45.879 108.873  -2.157  1.00  0.00     0.067 C 
HETATM    4  C4          0      45.666 108.575  -3.499  1.00  0.00     0.103 C 
HETATM    5  O13         0      46.325 107.564  -4.036  1.00  0.00    -0.307 OA
HETATM    6  C14         0      47.129 106.799  -3.331  1.00  0.00     0.107 C 
HETATM    7  C15         0      47.500 105.534  -3.763  1.00  0.00     0.049 C 
HETATM    8  C16         0      48.133 104.637  -2.911  1.00  0.00     0.093 C 
HETATM    9  C18         0      48.825 105.219  -1.856  1.00  0.00     0.048 C 
HETATM   10  C19         0      48.511 106.502  -1.428  1.00  0.00     0.096 C 
HETATM   11  C21         0      47.523 107.206  -2.061  1.00  0.00     0.084 C 
ENDROOT
BRANCH  10  12
HETATM   12  O20         0      48.877 106.900  -0.146  1.00  0.00    -0.359 OA
HETATM   13  H20         0      49.636 106.488   0.249  1.00  0.00     0.218 HD
ENDBRANCH  10  12
BRANCH   4  14
HETATM   14  C5          0      44.377 108.962  -4.074  1.00  0.00     0.025 C 
HETATM   15  C6          0      43.686 108.165  -4.975  1.00  0.00     0.004 C 
HETATM   16  C7          0      42.300 108.117  -4.863  1.00  0.00     0.026 C 
HETATM   17  C8          0      41.612 108.936  -3.974  1.00  0.00     0.112 C 
HETATM   18  C10         0      42.288 110.091  -3.607  1.00  0.00     0.112 C 
HETATM   19  C12         0      43.678 110.084  -3.648  1.00  0.00     0.028 C 
BRANCH  17  20
HETATM   20  O9          0      40.449 108.500  -3.364  1.00  0.00    -0.357 OA
HETATM   21  H9          0      39.595 108.521  -3.780  1.00  0.00     0.218 HD
ENDBRANCH  17  20
BRANCH  18  22
HETATM   22  O11         0      41.576 111.032  -2.876  1.00  0.00    -0.357 OA
HETATM   23  H11         0      40.631 110.937  -2.859  1.00  0.00     0.218 HD
ENDBRANCH  18  22
ENDBRANCH   4  14
BRANCH   8  24
HETATM   24  O17         0      47.816 103.274  -2.920  1.00  0.00    -0.359 OA
HETATM   25  H17         0      48.485 102.607  -3.014  1.00  0.00     0.218 HD
ENDBRANCH   8  24
TORSDOF 5
ENDMDL
MODEL 9
REMARK VINA RESULT:      -4.4      4.423      8.970
REMARK  5 active torsions:
REMARK  status: ('A' for Active; 'I' for Inactive)
REMARK    1  A    between atoms: C4_4  and  C5_5 
REMARK    2  A    between atoms: C8_8  and  O9_9 
REMARK    3  A    between atoms: C10_11  and  O11_12 
REMARK    4  A    between atoms: C16_18  and  O17_19 
REMARK    5  A    between atoms: C19_22  and  O20_23 
ROOT
HETATM    1  O1          0      45.288 110.251  -0.065  1.00  0.00    -0.286 OA
HETATM    2  C2          0      45.325 109.649  -1.173  1.00  0.00     0.201 C 
HETATM    3  C3          0      44.246 109.606  -2.039  1.00  0.00     0.067 C 
HETATM    4  C4          0      44.279 108.850  -3.206  1.00  0.00     0.103 C 
HETATM    5  O13         0      45.378 108.176  -3.495  1.00  0.00    -0.307 OA
HETATM    6  C14         0      46.416 108.153  -2.689  1.00  0.00     0.107 C 
HETATM    7  C15         0      47.385 107.163  -2.773  1.00  0.00     0.049 C 
HETATM    8  C16         0      48.333 106.994  -1.771  1.00  0.00     0.093 C 
HETATM    9  C18         0      48.592 108.127  -1.010  1.00  0.00     0.048 C 
HETATM   10  C19         0      47.664 109.158  -0.941  1.00  0.00     0.096 C 
HETATM   11  C21         0      46.492 109.064  -1.641  1.00  0.00     0.084 C 
ENDROOT
BRANCH  10  12
HETATM   12  O20         0      47.718 110.051   0.124  1.00  0.00    -0.359 OA
HETATM   13  H20         0      48.573 110.301   0.453  1.00  0.00     0.218 HD
ENDBRANCH  10  12
BRANCH   4  14
HETATM   14  C5          0      42.998 108.368  -3.727  1.00  0.00     0.025 C 
HETATM   15  C6          0      42.701 107.019  -3.860  1.00  0.00     0.004 C 
HETATM   16  C7          0      41.403 106.614  -3.565  1.00  0.00     0.026 C 
HETATM   17  C8          0      40.399 107.532  -3.279  1.00  0.00     0.112 C 
HETATM   18  C10         0      40.620 108.808  -3.781  1.00  0.00     0.112 C 
HETATM   19  C12         0      41.932 109.219  -3.986  1.00  0.00     0.028 C 
BRANCH  17  20
HETATM   20  O9          0      39.388 107.222  -2.387  1.00  0.00    -0.357 OA
HETATM   21  H9          0      38.620 106.711  -2.616  1.00  0.00     0.218 HD
ENDBRANCH  17  20
BRANCH  18  22
HETATM   22  O11         0      39.570 109.710  -3.688  1.00  0.00    -0.357 OA
HETATM   23  H11         0      39.458 110.157  -2.857  1.00  0.00     0.218 HD
ENDBRANCH  18  22
ENDBRANCH   4  14
BRANCH   8  24
HETATM   24  O17         0      48.730 105.719  -1.351  1.00  0.00    -0.359 OA
HETATM   25  H17         0      49.645 105.467  -1.319  1.00  0.00     0.218 HD
ENDBRANCH   8  24
TORSDOF 5
ENDMDL
