MODEL 1
REMARK VINA RESULT:      -6.9      0.000      0.000
REMARK  5 active torsions:
REMARK  status: ('A' for Active; 'I' for Inactive)
REMARK    1  A    between atoms: C4_4  and  C5_5 
REMARK    2  A    between atoms: C8_8  and  O9_9 
REMARK    3  A    between atoms: C10_11  and  O11_12 
REMARK    4  A    between atoms: C16_18  and  O17_19 
REMARK    5  A    between atoms: C19_22  and  O20_23 
ROOT
HETATM    1  O1          0      36.372  12.900  20.443  1.00  0.00    -0.286 OA
HETATM    2  C2          0      37.438  12.475  19.918  1.00  0.00     0.201 C 
HETATM    3  C3          0      38.513  12.022  20.664  1.00  0.00     0.067 C 
HETATM    4  C4          0      39.712  11.656  20.064  1.00  0.00     0.103 C 
HETATM    5  O13         0      39.812  11.726  18.749  1.00  0.00    -0.307 OA
HETATM    6  C14         0      38.835  12.184  17.997  1.00  0.00     0.107 C 
HETATM    7  C15         0      39.057  12.633  16.703  1.00  0.00     0.049 C 
HETATM    8  C16         0      38.086  13.346  16.010  1.00  0.00     0.093 C 
HETATM    9  C18         0      36.780  13.121  16.431  1.00  0.00     0.048 C 
HETATM   10  C19         0      36.524  12.628  17.703  1.00  0.00     0.096 C 
HETATM   11  C21         0      37.566  12.345  18.544  1.00  0.00     0.084 C 
ENDROOT
BRANCH  10  12
HETATM   12  O20         0      35.265  12.816  18.265  1.00  0.00    -0.359 OA
HETATM   13  H20         0      35.154  12.612  19.186  1.00  0.00     0.218 HD
ENDBRANCH  10  12
BRANCH   4  14
HETATM   14  C5          0      40.928  11.777  20.871  1.00  0.00     0.025 C 
HETATM   15  C6          0      41.807  10.721  21.069  1.00  0.00     0.004 C 
HETATM   16  C7          0      43.168  11.011  21.086  1.00  0.00     0.026 C 
HETATM   17  C8          0      43.636  12.319  21.043  1.00  0.00     0.112 C 
HETATM   18  C10         0      42.728  13.275  21.480  1.00  0.00     0.112 C 
HETATM   19  C12         0      41.371  12.994  21.372  1.00  0.00     0.028 C 
BRANCH  17  20
HETATM   20  O9          0      44.829  12.625  20.413  1.00  0.00    -0.357 OA
HETATM   21  H9          0      45.586  12.985  20.861  1.00  0.00     0.218 HD
ENDBRANCH  17  20
BRANCH  18  22
HETATM   22  O11         0      43.203  14.569  21.637  1.00  0.00    -0.357 OA
HETATM   23  H11         0      44.022  14.672  22.107  1.00  0.00     0.218 HD
ENDBRANCH  18  22
ENDBRANCH   4  14
BRANCH   8  24
HETATM   24  O17         0      38.421  14.437  15.201  1.00  0.00    -0.359 OA
HETATM   25  H17         0      37.841  14.747  14.516  1.00  0.00     0.218 HD
ENDBRANCH   8  24
TORSDOF 5
ENDMDL
MODEL 2
REMARK VINA RESULT:      -6.8      1.693      6.796
REMARK  5 active torsions:
REMARK  status: ('A' for Active; 'I' for Inactive)
REMARK    1  A    between atoms: C4_4  and  C5_5 
REMARK    2  A    between atoms: C8_8  and  O9_9 
REMARK    3  A    between atoms: C10_11  and  O11_12 
REMARK    4  A    between atoms: C16_18  and  O17_19 
REMARK    5  A    between atoms: C19_22  and  O20_23 
ROOT
HETATM    1  O1          0      42.647  10.308  17.341  1.00  0.00    -0.286 OA
HETATM    2  C2          0      41.929  11.011  18.104  1.00  0.00     0.201 C 
HETATM    3  C3          0      40.616  11.335  17.811  1.00  0.00     0.067 C 
HETATM    4  C4          0      39.880  12.196  18.618  1.00  0.00     0.103 C 
HETATM    5  O13         0      40.451  12.695  19.700  1.00  0.00    -0.307 OA
HETATM    6  C14         0      41.706  12.449  20.005  1.00  0.00     0.107 C 
HETATM    7  C15         0      42.418  13.257  20.879  1.00  0.00     0.049 C 
HETATM    8  C16         0      43.798  13.150  21.001  1.00  0.00     0.093 C 
HETATM    9  C18         0      44.324  11.913  20.647  1.00  0.00     0.048 C 
HETATM   10  C19         0      43.617  11.059  19.811  1.00  0.00     0.096 C 
HETATM   11  C21         0      42.386  11.431  19.345  1.00  0.00     0.084 C 
ENDROOT
BRANCH  10  12
HETATM   12  O20         0      44.300  10.059  19.126  1.00  0.00    -0.359 OA
HETATM   13  H20         0      43.950   9.177  19.160  1.00  0.00     0.218 HD
ENDBRANCH  10  12
BRANCH   4  14
HETATM   14  C5          0      38.797  12.947  17.982  1.00  0.00     0.025 C 
HETATM   15  C6          0      38.940  13.584  16.758  1.00  0.00     0.004 C 
HETATM   16  C7          0      37.859  13.552  15.884  1.00  0.00     0.026 C 
HETATM   17  C8          0      36.630  13.023  16.263  1.00  0.00     0.112 C 
HETATM   18  C10         0      36.403  13.008  17.633  1.00  0.00     0.112 C 
HETATM   19  C12         0      37.501  12.954  18.483  1.00  0.00     0.028 C 
BRANCH  17  20
HETATM   20  O9          0      35.820  12.381  15.343  1.00  0.00    -0.357 OA
HETATM   21  H9          0      36.121  12.080  14.494  1.00  0.00     0.218 HD
ENDBRANCH  17  20
BRANCH  18  22
HETATM   22  O11         0      35.125  12.669  18.055  1.00  0.00    -0.357 OA
HETATM   23  H11         0      34.457  12.591  17.384  1.00  0.00     0.218 HD
ENDBRANCH  18  22
ENDBRANCH   4  14
BRANCH   8  24
HETATM   24  O17         0      44.609  14.282  21.136  1.00  0.00    -0.359 OA
HETATM   25  H17         0      45.310  14.470  20.523  1.00  0.00     0.218 HD
ENDBRANCH   8  24
TORSDOF 5
ENDMDL
MODEL 3
REMARK VINA RESULT:      -6.3      1.319      1.711
REMARK  5 active torsions:
REMARK  status: ('A' for Active; 'I' for Inactive)
REMARK    1  A    between atoms: C4_4  and  C5_5 
REMARK    2  A    between atoms: C8_8  and  O9_9 
REMARK    3  A    between atoms: C10_11  and  O11_12 
REMARK    4  A    between atoms: C16_18  and  O17_19 
REMARK    5  A    between atoms: C19_22  and  O20_23 
ROOT
HETATM    1  O1          0      36.624  13.036  20.104  1.00  0.00    -0.286 OA
HETATM    2  C2          0      37.526  12.454  19.442  1.00  0.00     0.201 C 
HETATM    3  C3          0      38.669  11.934  20.026  1.00  0.00     0.067 C 
HETATM    4  C4          0      39.695  11.389  19.262  1.00  0.00     0.103 C 
HETATM    5  O13         0      39.557  11.354  17.948  1.00  0.00    -0.307 OA
HETATM    6  C14         0      38.511  11.867  17.341  1.00  0.00     0.107 C 
HETATM    7  C15         0      38.535  12.194  15.992  1.00  0.00     0.049 C 
HETATM    8  C16         0      37.530  12.963  15.418  1.00  0.00     0.093 C 
HETATM    9  C18         0      36.309  12.922  16.079  1.00  0.00     0.048 C 
HETATM   10  C19         0      36.242  12.554  17.416  1.00  0.00     0.096 C 
HETATM   11  C21         0      37.387  12.212  18.084  1.00  0.00     0.084 C 
ENDROOT
BRANCH  10  12
HETATM   12  O20         0      35.133  12.925  18.169  1.00  0.00    -0.359 OA
HETATM   13  H20         0      34.687  12.251  18.667  1.00  0.00     0.218 HD
ENDBRANCH  10  12
BRANCH   4  14
HETATM   14  C5          0      41.044  11.426  19.829  1.00  0.00     0.025 C 
HETATM   15  C6          0      41.959  12.424  19.529  1.00  0.00     0.004 C 
HETATM   16  C7          0      42.777  12.880  20.558  1.00  0.00     0.026 C 
HETATM   17  C8          0      42.781  12.273  21.809  1.00  0.00     0.112 C 
HETATM   18  C10         0      42.341  10.956  21.816  1.00  0.00     0.112 C 
HETATM   19  C12         0      41.457  10.549  20.824  1.00  0.00     0.028 C 
BRANCH  17  20
HETATM   20  O9          0      43.005  13.014  22.956  1.00  0.00    -0.357 OA
HETATM   21  H9          0      43.536  13.802  22.980  1.00  0.00     0.218 HD
ENDBRANCH  17  20
BRANCH  18  22
HETATM   22  O11         0      42.502  10.246  22.998  1.00  0.00    -0.357 OA
HETATM   23  H11         0      42.021   9.431  23.079  1.00  0.00     0.218 HD
ENDBRANCH  18  22
ENDBRANCH   4  14
BRANCH   8  24
HETATM   24  O17         0      37.820  13.949  14.467  1.00  0.00    -0.359 OA
HETATM   25  H17         0      37.162  14.262  13.858  1.00  0.00     0.218 HD
ENDBRANCH   8  24
TORSDOF 5
ENDMDL
MODEL 4
REMARK VINA RESULT:      -6.3      1.676      2.168
REMARK  5 active torsions:
REMARK  status: ('A' for Active; 'I' for Inactive)
REMARK    1  A    between atoms: C4_4  and  C5_5 
REMARK    2  A    between atoms: C8_8  and  O9_9 
REMARK    3  A    between atoms: C10_11  and  O11_12 
REMARK    4  A    between atoms: C16_18  and  O17_19 
REMARK    5  A    between atoms: C19_22  and  O20_23 
ROOT
HETATM    1  O1          0      35.537  12.991  18.909  1.00  0.00    -0.286 OA
HETATM    2  C2          0      36.599  12.498  18.439  1.00  0.00     0.201 C 
HETATM    3  C3          0      37.751  12.342  19.191  1.00  0.00     0.067 C 
HETATM    4  C4          0      38.937  11.892  18.623  1.00  0.00     0.103 C 
HETATM    5  O13         0      38.950  11.589  17.337  1.00  0.00    -0.307 OA
HETATM    6  C14         0      37.895  11.755  16.569  1.00  0.00     0.107 C 
HETATM    7  C15         0      38.001  11.827  15.188  1.00  0.00     0.049 C 
HETATM    8  C16         0      36.935  12.253  14.404  1.00  0.00     0.093 C 
HETATM    9  C18         0      35.680  12.080  14.976  1.00  0.00     0.048 C 
HETATM   10  C19         0      35.543  11.957  16.352  1.00  0.00     0.096 C 
HETATM   11  C21         0      36.654  11.989  17.151  1.00  0.00     0.084 C 
ENDROOT
BRANCH  10  12
HETATM   12  O20         0      34.310  12.222  16.939  1.00  0.00    -0.359 OA
HETATM   13  H20         0      34.167  13.087  17.305  1.00  0.00     0.218 HD
ENDBRANCH  10  12
BRANCH   4  14
HETATM   14  C5          0      40.187  12.311  19.261  1.00  0.00     0.025 C 
HETATM   15  C6          0      40.355  12.340  20.638  1.00  0.00     0.004 C 
HETATM   16  C7          0      41.591  11.950  21.144  1.00  0.00     0.026 C 
HETATM   17  C8          0      42.666  11.669  20.308  1.00  0.00     0.112 C 
HETATM   18  C10         0      42.597  12.263  19.056  1.00  0.00     0.112 C 
HETATM   19  C12         0      41.344  12.565  18.536  1.00  0.00     0.028 C 
BRANCH  17  20
HETATM   20  O9          0      43.598  10.705  20.651  1.00  0.00    -0.357 OA
HETATM   21  H9          0      43.617   9.832  20.277  1.00  0.00     0.218 HD
ENDBRANCH  17  20
BRANCH  18  22
HETATM   22  O11         0      43.726  12.172  18.254  1.00  0.00    -0.357 OA
HETATM   23  H11         0      44.314  12.919  18.253  1.00  0.00     0.218 HD
ENDBRANCH  18  22
ENDBRANCH   4  14
BRANCH   8  24
HETATM   24  O17         0      37.131  13.086  13.297  1.00  0.00    -0.359 OA
HETATM   25  H17         0      36.903  12.809  12.417  1.00  0.00     0.218 HD
ENDBRANCH   8  24
TORSDOF 5
ENDMDL
MODEL 5
REMARK VINA RESULT:      -6.2      1.457      2.765
REMARK  5 active torsions:
REMARK  status: ('A' for Active; 'I' for Inactive)
REMARK    1  A    between atoms: C4_4  and  C5_5 
REMARK    2  A    between atoms: C8_8  and  O9_9 
REMARK    3  A    between atoms: C10_11  and  O11_12 
REMARK    4  A    between atoms: C16_18  and  O17_19 
REMARK    5  A    between atoms: C19_22  and  O20_23 
ROOT
HETATM    1  O1          0      39.223  13.050  15.807  1.00  0.00    -0.286 OA
HETATM    2  C2          0      39.155  12.872  17.054  1.00  0.00     0.201 C 
HETATM    3  C3          0      40.269  12.884  17.876  1.00  0.00     0.067 C 
HETATM    4  C4          0      40.178  12.583  19.230  1.00  0.00     0.103 C 
HETATM    5  O13         0      38.992  12.299  19.740  1.00  0.00    -0.307 OA
HETATM    6  C14         0      37.909  12.237  18.997  1.00  0.00     0.107 C 
HETATM    7  C15         0      36.770  11.568  19.420  1.00  0.00     0.049 C 
HETATM    8  C16         0      35.730  11.287  18.542  1.00  0.00     0.093 C 
HETATM    9  C18         0      35.645  12.132  17.442  1.00  0.00     0.048 C 
HETATM   10  C19         0      36.754  12.853  17.020  1.00  0.00     0.096 C 
HETATM   11  C21         0      37.935  12.744  17.702  1.00  0.00     0.084 C 
ENDROOT
BRANCH  10  12
HETATM   12  O20         0      36.796  13.334  15.715  1.00  0.00    -0.359 OA
HETATM   13  H20         0      37.601  13.220  15.224  1.00  0.00     0.218 HD
ENDBRANCH  10  12
BRANCH   4  14
HETATM   14  C5          0      41.372  12.033  19.875  1.00  0.00     0.025 C 
HETATM   15  C6          0      42.427  11.483  19.161  1.00  0.00     0.004 C 
HETATM   16  C7          0      43.716  11.727  19.625  1.00  0.00     0.026 C 
HETATM   17  C8          0      43.945  12.381  20.831  1.00  0.00     0.112 C 
HETATM   18  C10         0      42.894  12.316  21.735  1.00  0.00     0.112 C 
HETATM   19  C12         0      41.605  12.157  21.239  1.00  0.00     0.028 C 
BRANCH  17  20
HETATM   20  O9          0      45.051  13.196  20.996  1.00  0.00    -0.357 OA
HETATM   21  H9          0      45.032  14.140  20.893  1.00  0.00     0.218 HD
ENDBRANCH  17  20
BRANCH  18  22
HETATM   22  O11         0      43.138  12.786  23.018  1.00  0.00    -0.357 OA
HETATM   23  H11         0      42.577  13.485  23.334  1.00  0.00     0.218 HD
ENDBRANCH  18  22
ENDBRANCH   4  14
BRANCH   8  24
HETATM   24  O17         0      35.050  10.064  18.584  1.00  0.00    -0.359 OA
HETATM   25  H17         0      34.260   9.915  18.078  1.00  0.00     0.218 HD
ENDBRANCH   8  24
TORSDOF 5
ENDMDL
MODEL 6
REMARK VINA RESULT:      -5.8      2.282      3.783
REMARK  5 active torsions:
REMARK  status: ('A' for Active; 'I' for Inactive)
REMARK    1  A    between atoms: C4_4  and  C5_5 
REMARK    2  A    between atoms: C8_8  and  O9_9 
REMARK    3  A    between atoms: C10_11  and  O11_12 
REMARK    4  A    between atoms: C16_18  and  O17_19 
REMARK    5  A    between atoms: C19_22  and  O20_23 
ROOT
HETATM    1  O1          0      38.203  11.639  13.822  1.00  0.00    -0.286 OA
HETATM    2  C2          0      38.074  11.955  15.036  1.00  0.00     0.201 C 
HETATM    3  C3          0      39.154  12.149  15.881  1.00  0.00     0.067 C 
HETATM    4  C4          0      38.982  12.395  17.238  1.00  0.00     0.103 C 
HETATM    5  O13         0      37.754  12.464  17.721  1.00  0.00    -0.307 OA
HETATM    6  C14         0      36.695  12.251  16.970  1.00  0.00     0.107 C 
HETATM    7  C15         0      35.463  11.928  17.520  1.00  0.00     0.049 C 
HETATM    8  C16         0      34.422  11.457  16.730  1.00  0.00     0.093 C 
HETATM    9  C18         0      34.486  11.827  15.392  1.00  0.00     0.048 C 
HETATM   10  C19         0      35.695  12.202  14.822  1.00  0.00     0.096 C 
HETATM   11  C21         0      36.829  12.223  15.587  1.00  0.00     0.084 C 
ENDROOT
BRANCH  10  12
HETATM   12  O20         0      35.842  12.144  13.439  1.00  0.00    -0.359 OA
HETATM   13  H20         0      35.160  11.714  12.937  1.00  0.00     0.218 HD
ENDBRANCH  10  12
BRANCH   4  14
HETATM   14  C5          0      40.070  11.998  18.134  1.00  0.00     0.025 C 
HETATM   15  C6          0      40.599  10.715  18.150  1.00  0.00     0.004 C 
HETATM   16  C7          0      41.973  10.587  18.327  1.00  0.00     0.026 C 
HETATM   17  C8          0      42.778  11.685  18.612  1.00  0.00     0.112 C 
HETATM   18  C10         0      42.111  12.759  19.187  1.00  0.00     0.112 C 
HETATM   19  C12         0      40.754  12.911  18.925  1.00  0.00     0.028 C 
BRANCH  17  20
HETATM   20  O9          0      44.081  11.748  18.151  1.00  0.00    -0.357 OA
HETATM   21  H9          0      44.459  11.117  17.550  1.00  0.00     0.218 HD
ENDBRANCH  17  20
BRANCH  18  22
HETATM   22  O11         0      42.892  13.802  19.663  1.00  0.00    -0.357 OA
HETATM   23  H11         0      43.777  13.587  19.935  1.00  0.00     0.218 HD
ENDBRANCH  18  22
ENDBRANCH   4  14
BRANCH   8  24
HETATM   24  O17         0      33.580  10.429  17.169  1.00  0.00    -0.359 OA
HETATM   25  H17         0      32.674  10.373  16.891  1.00  0.00     0.218 HD
ENDBRANCH   8  24
TORSDOF 5
ENDMDL
MODEL 7
REMARK VINA RESULT:      -5.6      2.110      6.148
REMARK  5 active torsions:
REMARK  status: ('A' for Active; 'I' for Inactive)
REMARK    1  A    between atoms: C4_4  and  C5_5 
REMARK    2  A    between atoms: C8_8  and  O9_9 
REMARK    3  A    between atoms: C10_11  and  O11_12 
REMARK    4  A    between atoms: C16_18  and  O17_19 
REMARK    5  A    between atoms: C19_22  and  O20_23 
ROOT
HETATM    1  O1          0      40.417  13.576  17.440  1.00  0.00    -0.286 OA
HETATM    2  C2          0      40.164  12.788  18.392  1.00  0.00     0.201 C 
HETATM    3  C3          0      38.907  12.248  18.606  1.00  0.00     0.067 C 
HETATM    4  C4          0      38.630  11.465  19.721  1.00  0.00     0.103 C 
HETATM    5  O13         0      39.603  11.219  20.581  1.00  0.00    -0.307 OA
HETATM    6  C14         0      40.804  11.737  20.445  1.00  0.00     0.107 C 
HETATM    7  C15         0      41.689  11.821  21.510  1.00  0.00     0.049 C 
HETATM    8  C16         0      42.844  12.590  21.431  1.00  0.00     0.093 C 
HETATM    9  C18         0      43.318  12.805  20.142  1.00  0.00     0.048 C 
HETATM   10  C19         0      42.471  12.683  19.049  1.00  0.00     0.096 C 
HETATM   11  C21         0      41.162  12.333  19.240  1.00  0.00     0.084 C 
ENDROOT
BRANCH  10  12
HETATM   12  O20         0      42.811  13.305  17.852  1.00  0.00    -0.359 OA
HETATM   13  H20         0      42.296  14.055  17.577  1.00  0.00     0.218 HD
ENDBRANCH  10  12
BRANCH   4  14
HETATM   14  C5          0      37.246  11.442  20.197  1.00  0.00     0.025 C 
HETATM   15  C6          0      36.548  10.265  20.425  1.00  0.00     0.004 C 
HETATM   16  C7          0      35.696  10.224  21.524  1.00  0.00     0.026 C 
HETATM   17  C8          0      35.442  11.354  22.293  1.00  0.00     0.112 C 
HETATM   18  C10         0      35.658  12.560  21.640  1.00  0.00     0.112 C 
HETATM   19  C12         0      36.579  12.592  20.600  1.00  0.00     0.028 C 
BRANCH  17  20
HETATM   20  O9          0      35.204  11.249  23.652  1.00  0.00    -0.357 OA
HETATM   21  H9          0      35.882  11.075  24.295  1.00  0.00     0.218 HD
ENDBRANCH  17  20
BRANCH  18  22
HETATM   22  O11         0      35.242  13.712  22.293  1.00  0.00    -0.357 OA
HETATM   23  H11         0      35.057  13.636  23.222  1.00  0.00     0.218 HD
ENDBRANCH  18  22
ENDBRANCH   4  14
BRANCH   8  24
HETATM   24  O17         0      43.286  13.356  22.515  1.00  0.00    -0.359 OA
HETATM   25  H17         0      44.208  13.433  22.728  1.00  0.00     0.218 HD
ENDBRANCH   8  24
TORSDOF 5
ENDMDL
MODEL 8
REMARK VINA RESULT:      -5.6      1.838      6.644
REMARK  5 active torsions:
REMARK  status: ('A' for Active; 'I' for Inactive)
REMARK    1  A    between atoms: C4_4  and  C5_5 
REMARK    2  A    between atoms: C8_8  and  O9_9 
REMARK    3  A    between atoms: C10_11  and  O11_12 
REMARK    4  A    between atoms: C16_18  and  O17_19 
REMARK    5  A    between atoms: C19_22  and  O20_23 
ROOT
HETATM    1  O1          0      42.289  14.377  19.194  1.00  0.00    -0.286 OA
HETATM    2  C2          0      41.745  13.255  19.004  1.00  0.00     0.201 C 
HETATM    3  C3          0      40.703  13.067  18.112  1.00  0.00     0.067 C 
HETATM    4  C4          0      40.054  11.843  17.997  1.00  0.00     0.103 C 
HETATM    5  O13         0      40.462  10.835  18.747  1.00  0.00    -0.307 OA
HETATM    6  C14         0      41.421  10.969  19.636  1.00  0.00     0.107 C 
HETATM    7  C15         0      41.581  10.069  20.680  1.00  0.00     0.049 C 
HETATM    8  C16         0      42.422  10.348  21.751  1.00  0.00     0.093 C 
HETATM    9  C18         0      43.442  11.250  21.477  1.00  0.00     0.048 C 
HETATM   10  C19         0      43.335  12.134  20.412  1.00  0.00     0.096 C 
HETATM   11  C21         0      42.223  12.105  19.615  1.00  0.00     0.084 C 
ENDROOT
BRANCH  10  12
HETATM   12  O20         0      44.113  13.288  20.404  1.00  0.00    -0.359 OA
HETATM   13  H20         0      43.971  13.925  21.093  1.00  0.00     0.218 HD
ENDBRANCH  10  12
BRANCH   4  14
HETATM   14  C5          0      38.663  11.863  17.538  1.00  0.00     0.025 C 
HETATM   15  C6          0      38.115  10.858  16.755  1.00  0.00     0.004 C 
HETATM   16  C7          0      36.800  10.485  17.012  1.00  0.00     0.026 C 
HETATM   17  C8          0      36.011  11.177  17.924  1.00  0.00     0.112 C 
HETATM   18  C10         0      36.409  12.486  18.161  1.00  0.00     0.112 C 
HETATM   19  C12         0      37.748  12.811  17.978  1.00  0.00     0.028 C 
BRANCH  17  20
HETATM   20  O9          0      35.050  10.519  18.672  1.00  0.00    -0.357 OA
HETATM   21  H9          0      34.746   9.639  18.484  1.00  0.00     0.218 HD
ENDBRANCH  17  20
BRANCH  18  22
HETATM   22  O11         0      35.554  13.277  18.914  1.00  0.00    -0.357 OA
HETATM   23  H11         0      34.661  12.967  19.018  1.00  0.00     0.218 HD
ENDBRANCH  18  22
ENDBRANCH   4  14
BRANCH   8  24
HETATM   24  O17         0      42.066  10.015  23.063  1.00  0.00    -0.359 OA
HETATM   25  H17         0      41.404  10.503  23.539  1.00  0.00     0.218 HD
ENDBRANCH   8  24
TORSDOF 5
ENDMDL
MODEL 9
REMARK VINA RESULT:      -5.6      1.864      6.641
REMARK  5 active torsions:
REMARK  status: ('A' for Active; 'I' for Inactive)
REMARK    1  A    between atoms: C4_4  and  C5_5 
REMARK    2  A    between atoms: C8_8  and  O9_9 
REMARK    3  A    between atoms: C10_11  and  O11_12 
REMARK    4  A    between atoms: C16_18  and  O17_19 
REMARK    5  A    between atoms: C19_22  and  O20_23 
ROOT
HETATM    1  O1          0      40.752  12.792  21.670  1.00  0.00    -0.286 OA
HETATM    2  C2          0      40.975  12.649  20.436  1.00  0.00     0.201 C 
HETATM    3  C3          0      39.971  12.687  19.483  1.00  0.00     0.067 C 
HETATM    4  C4          0      40.229  12.424  18.143  1.00  0.00     0.103 C 
HETATM    5  O13         0      41.469  12.152  17.776  1.00  0.00    -0.307 OA
HETATM    6  C14         0      42.452  12.067  18.646  1.00  0.00     0.107 C 
HETATM    7  C15         0      43.636  11.407  18.348  1.00  0.00     0.049 C 
HETATM    8  C16         0      44.559  11.098  19.340  1.00  0.00     0.093 C 
HETATM    9  C18         0      44.506  11.912  20.465  1.00  0.00     0.048 C 
HETATM   10  C19         0      43.352  12.624  20.767  1.00  0.00     0.096 C 
HETATM   11  C21         0      42.265  12.536  19.941  1.00  0.00     0.084 C 
ENDROOT
BRANCH  10  12
HETATM   12  O20         0      43.148  13.067  22.070  1.00  0.00    -0.359 OA
HETATM   13  H20         0      42.304  13.445  22.284  1.00  0.00     0.218 HD
ENDBRANCH  10  12
BRANCH   4  14
HETATM   14  C5          0      39.125  11.896  17.339  1.00  0.00     0.025 C 
HETATM   15  C6          0      37.994  11.321  17.901  1.00  0.00     0.004 C 
HETATM   16  C7          0      36.770  11.580  17.293  1.00  0.00     0.026 C 
HETATM   17  C8          0      36.685  12.274  16.091  1.00  0.00     0.112 C 
HETATM   18  C10         0      37.839  12.241  15.319  1.00  0.00     0.112 C 
HETATM   19  C12         0      39.058  12.066  15.962  1.00  0.00     0.028 C 
BRANCH  17  20
HETATM   20  O9          0      35.603  13.093  15.820  1.00  0.00    -0.357 OA
HETATM   21  H9          0      35.682  13.997  15.537  1.00  0.00     0.218 HD
ENDBRANCH  17  20
BRANCH  18  22
HETATM   22  O11         0      37.749  12.754  14.033  1.00  0.00    -0.357 OA
HETATM   23  H11         0      38.340  12.391  13.383  1.00  0.00     0.218 HD
ENDBRANCH  18  22
ENDBRANCH   4  14
BRANCH   8  24
HETATM   24  O17         0      45.240   9.876  19.347  1.00  0.00    -0.359 OA
HETATM   25  H17         0      45.683   9.546  18.574  1.00  0.00     0.218 HD
ENDBRANCH   8  24
TORSDOF 5
ENDMDL
