MODEL 1
REMARK VINA RESULT:      -8.3      0.000      0.000
REMARK  5 active torsions:
REMARK  status: ('A' for Active; 'I' for Inactive)
REMARK    1  A    between atoms: C4_4  and  C5_5 
REMARK    2  A    between atoms: C8_8  and  O9_9 
REMARK    3  A    between atoms: C10_11  and  O11_12 
REMARK    4  A    between atoms: C16_18  and  O17_19 
REMARK    5  A    between atoms: C19_22  and  O20_23 
ROOT
HETATM    1  O1          0      33.666  60.081 -13.818  1.00  0.00    -0.286 OA
HETATM    2  C2          0      33.343  60.596 -12.713  1.00  0.00     0.201 C 
HETATM    3  C3          0      32.030  60.685 -12.282  1.00  0.00     0.067 C 
HETATM    4  C4          0      31.692  61.349 -11.108  1.00  0.00     0.103 C 
HETATM    5  O13         0      32.657  61.887 -10.383  1.00  0.00    -0.307 OA
HETATM    6  C14         0      33.915  61.864 -10.765  1.00  0.00     0.107 C 
HETATM    7  C15         0      34.853  62.743 -10.244  1.00  0.00     0.049 C 
HETATM    8  C16         0      36.107  62.888 -10.826  1.00  0.00     0.093 C 
HETATM    9  C18         0      36.545  61.791 -11.559  1.00  0.00     0.048 C 
HETATM   10  C19         0      35.636  60.867 -12.055  1.00  0.00     0.096 C 
HETATM   11  C21         0      34.300  61.027 -11.807  1.00  0.00     0.084 C 
ENDROOT
BRANCH  10  12
HETATM   12  O20         0      36.009  60.050 -13.118  1.00  0.00    -0.359 OA
HETATM   13  H20         0      35.521  59.246 -13.254  1.00  0.00     0.218 HD
ENDBRANCH  10  12
BRANCH   4  14
HETATM   14  C5          0      30.346  61.919 -11.025  1.00  0.00     0.025 C 
HETATM   15  C6          0      30.089  63.270 -11.203  1.00  0.00     0.004 C 
HETATM   16  C7          0      28.929  63.621 -11.887  1.00  0.00     0.026 C 
HETATM   17  C8          0      27.988  62.669 -12.264  1.00  0.00     0.112 C 
HETATM   18  C10         0      28.014  61.500 -11.514  1.00  0.00     0.112 C 
HETATM   19  C12         0      29.209  61.129 -10.910  1.00  0.00     0.028 C 
BRANCH  17  20
HETATM   20  O9          0      27.253  62.820 -13.426  1.00  0.00    -0.357 OA
HETATM   21  H9          0      27.172  63.641 -13.896  1.00  0.00     0.218 HD
ENDBRANCH  17  20
BRANCH  18  22
HETATM   22  O11         0      26.980  60.598 -11.720  1.00  0.00    -0.357 OA
HETATM   23  H11         0      26.099  60.905 -11.537  1.00  0.00     0.218 HD
ENDBRANCH  18  22
ENDBRANCH   4  14
BRANCH   8  24
HETATM   24  O17         0      36.714  64.143 -10.947  1.00  0.00    -0.359 OA
HETATM   25  H17         0      37.125  64.423 -11.756  1.00  0.00     0.218 HD
ENDBRANCH   8  24
TORSDOF 5
ENDMDL
MODEL 2
REMARK VINA RESULT:      -7.7      2.665      6.842
REMARK  5 active torsions:
REMARK  status: ('A' for Active; 'I' for Inactive)
REMARK    1  A    between atoms: C4_4  and  C5_5 
REMARK    2  A    between atoms: C8_8  and  O9_9 
REMARK    3  A    between atoms: C10_11  and  O11_12 
REMARK    4  A    between atoms: C16_18  and  O17_19 
REMARK    5  A    between atoms: C19_22  and  O20_23 
ROOT
HETATM    1  O1          0      30.436  64.411 -11.502  1.00  0.00    -0.286 OA
HETATM    2  C2          0      30.276  63.160 -11.485  1.00  0.00     0.201 C 
HETATM    3  C3          0      31.335  62.269 -11.451  1.00  0.00     0.067 C 
HETATM    4  C4          0      31.135  60.896 -11.536  1.00  0.00     0.103 C 
HETATM    5  O13         0      29.899  60.439 -11.631  1.00  0.00    -0.307 OA
HETATM    6  C14         0      28.861  61.243 -11.705  1.00  0.00     0.107 C 
HETATM    7  C15         0      27.637  60.813 -12.197  1.00  0.00     0.049 C 
HETATM    8  C16         0      26.627  61.715 -12.510  1.00  0.00     0.093 C 
HETATM    9  C18         0      26.694  62.928 -11.834  1.00  0.00     0.048 C 
HETATM   10  C19         0      27.892  63.367 -11.289  1.00  0.00     0.096 C 
HETATM   11  C21         0      29.014  62.592 -11.402  1.00  0.00     0.084 C 
ENDROOT
BRANCH  10  12
HETATM   12  O20         0      28.060  64.721 -11.015  1.00  0.00    -0.359 OA
HETATM   13  H20         0      27.752  65.346 -11.660  1.00  0.00     0.218 HD
ENDBRANCH  10  12
BRANCH   4  14
HETATM   14  C5          0      32.227  60.093 -12.090  1.00  0.00     0.025 C 
HETATM   15  C6          0      32.457  58.777 -11.716  1.00  0.00     0.004 C 
HETATM   16  C7          0      32.862  57.887 -12.706  1.00  0.00     0.026 C 
HETATM   17  C8          0      33.158  58.315 -13.995  1.00  0.00     0.112 C 
HETATM   18  C10         0      33.509  59.655 -14.094  1.00  0.00     0.112 C 
HETATM   19  C12         0      33.021  60.538 -13.139  1.00  0.00     0.028 C 
BRANCH  17  20
HETATM   20  O9          0      32.905  57.504 -15.087  1.00  0.00    -0.357 OA
HETATM   21  H9          0      33.032  56.562 -15.086  1.00  0.00     0.218 HD
ENDBRANCH  17  20
BRANCH  18  22
HETATM   22  O11         0      33.995  60.088 -15.320  1.00  0.00    -0.357 OA
HETATM   23  H11         0      33.977  59.462 -16.035  1.00  0.00     0.218 HD
ENDBRANCH  18  22
ENDBRANCH   4  14
BRANCH   8  24
HETATM   24  O17         0      25.826  61.548 -13.645  1.00  0.00    -0.359 OA
HETATM   25  H17         0      24.958  61.928 -13.703  1.00  0.00     0.218 HD
ENDBRANCH   8  24
TORSDOF 5
ENDMDL
MODEL 3
REMARK VINA RESULT:      -7.4      2.944      4.113
REMARK  5 active torsions:
REMARK  status: ('A' for Active; 'I' for Inactive)
REMARK    1  A    between atoms: C4_4  and  C5_5 
REMARK    2  A    between atoms: C8_8  and  O9_9 
REMARK    3  A    between atoms: C10_11  and  O11_12 
REMARK    4  A    between atoms: C16_18  and  O17_19 
REMARK    5  A    between atoms: C19_22  and  O20_23 
ROOT
HETATM    1  O1          0      32.919  62.880 -12.063  1.00  0.00    -0.286 OA
HETATM    2  C2          0      31.983  63.473 -11.459  1.00  0.00     0.201 C 
HETATM    3  C3          0      30.674  63.022 -11.477  1.00  0.00     0.067 C 
HETATM    4  C4          0      29.645  63.750 -10.890  1.00  0.00     0.103 C 
HETATM    5  O13         0      29.937  64.888 -10.286  1.00  0.00    -0.307 OA
HETATM    6  C14         0      31.157  65.380 -10.273  1.00  0.00     0.107 C 
HETATM    7  C15         0      31.402  66.720 -10.010  1.00  0.00     0.049 C 
HETATM    8  C16         0      32.649  67.285 -10.245  1.00  0.00     0.093 C 
HETATM    9  C18         0      33.712  66.390 -10.229  1.00  0.00     0.048 C 
HETATM   10  C19         0      33.496  65.035 -10.443  1.00  0.00     0.096 C 
HETATM   11  C21         0      32.225  64.575 -10.654  1.00  0.00     0.084 C 
ENDROOT
BRANCH  10  12
HETATM   12  O20         0      34.557  64.235 -10.855  1.00  0.00    -0.359 OA
HETATM   13  H20         0      34.356  63.374 -11.201  1.00  0.00     0.218 HD
ENDBRANCH  10  12
BRANCH   4  14
HETATM   14  C5          0      28.299  63.567 -11.437  1.00  0.00     0.025 C 
HETATM   15  C6          0      27.990  62.575 -12.356  1.00  0.00     0.004 C 
HETATM   16  C7          0      26.759  61.940 -12.229  1.00  0.00     0.026 C 
HETATM   17  C8          0      25.810  62.365 -11.305  1.00  0.00     0.112 C 
HETATM   18  C10         0      25.942  63.689 -10.907  1.00  0.00     0.112 C 
HETATM   19  C12         0      27.201  64.274 -10.964  1.00  0.00     0.028 C 
BRANCH  17  20
HETATM   20  O9          0      24.958  61.461 -10.696  1.00  0.00    -0.357 OA
HETATM   21  H9          0      25.195  60.943  -9.935  1.00  0.00     0.218 HD
ENDBRANCH  17  20
BRANCH  18  22
HETATM   22  O11         0      24.917  64.218 -10.136  1.00  0.00    -0.357 OA
HETATM   23  H11         0      24.771  65.155 -10.199  1.00  0.00     0.218 HD
ENDBRANCH  18  22
ENDBRANCH   4  14
BRANCH   8  24
HETATM   24  O17         0      32.777  68.570 -10.785  1.00  0.00    -0.359 OA
HETATM   25  H17         0      33.609  69.029 -10.789  1.00  0.00     0.218 HD
ENDBRANCH   8  24
TORSDOF 5
ENDMDL
MODEL 4
REMARK VINA RESULT:      -7.3      4.918      6.824
REMARK  5 active torsions:
REMARK  status: ('A' for Active; 'I' for Inactive)
REMARK    1  A    between atoms: C4_4  and  C5_5 
REMARK    2  A    between atoms: C8_8  and  O9_9 
REMARK    3  A    between atoms: C10_11  and  O11_12 
REMARK    4  A    between atoms: C16_18  and  O17_19 
REMARK    5  A    between atoms: C19_22  and  O20_23 
ROOT
HETATM    1  O1          0      30.949  57.147 -17.648  1.00  0.00    -0.286 OA
HETATM    2  C2          0      32.043  57.308 -17.040  1.00  0.00     0.201 C 
HETATM    3  C3          0      32.125  57.435 -15.664  1.00  0.00     0.067 C 
HETATM    4  C4          0      33.330  57.714 -15.029  1.00  0.00     0.103 C 
HETATM    5  O13         0      34.421  57.840 -15.764  1.00  0.00    -0.307 OA
HETATM    6  C14         0      34.392  57.766 -17.077  1.00  0.00     0.107 C 
HETATM    7  C15         0      35.414  58.281 -17.860  1.00  0.00     0.049 C 
HETATM    8  C16         0      35.265  58.431 -19.234  1.00  0.00     0.093 C 
HETATM    9  C18         0      34.327  57.587 -19.818  1.00  0.00     0.048 C 
HETATM   10  C19         0      33.318  57.017 -19.053  1.00  0.00     0.096 C 
HETATM   11  C21         0      33.256  57.274 -17.711  1.00  0.00     0.084 C 
ENDROOT
BRANCH  10  12
HETATM   12  O20         0      32.167  56.553 -19.683  1.00  0.00    -0.359 OA
HETATM   13  H20         0      31.385  57.089 -19.632  1.00  0.00     0.218 HD
ENDBRANCH  10  12
BRANCH   4  14
HETATM   14  C5          0      33.263  58.409 -13.742  1.00  0.00     0.025 C 
HETATM   15  C6          0      33.521  59.765 -13.606  1.00  0.00     0.004 C 
HETATM   16  C7          0      32.735  60.484 -12.710  1.00  0.00     0.026 C 
HETATM   17  C8          0      31.814  59.854 -11.880  1.00  0.00     0.112 C 
HETATM   18  C10         0      32.075  58.512 -11.637  1.00  0.00     0.112 C 
HETATM   19  C12         0      32.791  57.796 -12.589  1.00  0.00     0.028 C 
BRANCH  17  20
HETATM   20  O9          0      30.636  60.485 -11.521  1.00  0.00    -0.357 OA
HETATM   21  H9          0      30.426  61.382 -11.752  1.00  0.00     0.218 HD
ENDBRANCH  17  20
BRANCH  18  22
HETATM   22  O11         0      31.301  57.887 -10.670  1.00  0.00    -0.357 OA
HETATM   23  H11         0      30.403  58.184 -10.579  1.00  0.00     0.218 HD
ENDBRANCH  18  22
ENDBRANCH   4  14
BRANCH   8  24
HETATM   24  O17         0      35.760  59.555 -19.903  1.00  0.00    -0.359 OA
HETATM   25  H17         0      35.236  60.339 -20.018  1.00  0.00     0.218 HD
ENDBRANCH   8  24
TORSDOF 5
ENDMDL
MODEL 5
REMARK VINA RESULT:      -7.0      3.054      4.380
REMARK  5 active torsions:
REMARK  status: ('A' for Active; 'I' for Inactive)
REMARK    1  A    between atoms: C4_4  and  C5_5 
REMARK    2  A    between atoms: C8_8  and  O9_9 
REMARK    3  A    between atoms: C10_11  and  O11_12 
REMARK    4  A    between atoms: C16_18  and  O17_19 
REMARK    5  A    between atoms: C19_22  and  O20_23 
ROOT
HETATM    1  O1          0      32.044  62.496 -12.263  1.00  0.00    -0.286 OA
HETATM    2  C2          0      31.094  62.953 -11.570  1.00  0.00     0.201 C 
HETATM    3  C3          0      29.888  62.291 -11.421  1.00  0.00     0.067 C 
HETATM    4  C4          0      28.822  62.864 -10.737  1.00  0.00     0.103 C 
HETATM    5  O13         0      28.981  64.061 -10.202  1.00  0.00    -0.307 OA
HETATM    6  C14         0      30.093  64.749 -10.345  1.00  0.00     0.107 C 
HETATM    7  C15         0      30.134  66.121 -10.148  1.00  0.00     0.049 C 
HETATM    8  C16         0      31.233  66.875 -10.543  1.00  0.00     0.093 C 
HETATM    9  C18         0      32.428  66.170 -10.629  1.00  0.00     0.048 C 
HETATM   10  C19         0      32.423  64.790 -10.780  1.00  0.00     0.096 C 
HETATM   11  C21         0      31.233  64.116 -10.828  1.00  0.00     0.084 C 
ENDROOT
BRANCH  10  12
HETATM   12  O20         0      33.552  64.158 -11.293  1.00  0.00    -0.359 OA
HETATM   13  H20         0      34.009  64.578 -12.011  1.00  0.00     0.218 HD
ENDBRANCH  10  12
BRANCH   4  14
HETATM   14  C5          0      27.474  62.435 -11.116  1.00  0.00     0.025 C 
HETATM   15  C6          0      26.403  62.454 -10.234  1.00  0.00     0.004 C 
HETATM   16  C7          0      25.161  62.828 -10.737  1.00  0.00     0.026 C 
HETATM   17  C8          0      24.960  63.047 -12.095  1.00  0.00     0.112 C 
HETATM   18  C10         0      25.869  62.408 -12.927  1.00  0.00     0.112 C 
HETATM   19  C12         0      27.134  62.121 -12.425  1.00  0.00     0.028 C 
BRANCH  17  20
HETATM   20  O9          0      24.054  63.997 -12.534  1.00  0.00    -0.357 OA
HETATM   21  H9          0      23.186  63.788 -12.859  1.00  0.00     0.218 HD
ENDBRANCH  17  20
BRANCH  18  22
HETATM   22  O11         0      25.605  62.436 -14.288  1.00  0.00    -0.357 OA
HETATM   23  H11         0      26.349  62.356 -14.873  1.00  0.00     0.218 HD
ENDBRANCH  18  22
ENDBRANCH   4  14
BRANCH   8  24
HETATM   24  O17         0      31.080  68.137 -11.128  1.00  0.00    -0.359 OA
HETATM   25  H17         0      31.824  68.702 -11.297  1.00  0.00     0.218 HD
ENDBRANCH   8  24
TORSDOF 5
ENDMDL
MODEL 6
REMARK VINA RESULT:      -6.7     10.504     12.583
REMARK  5 active torsions:
REMARK  status: ('A' for Active; 'I' for Inactive)
REMARK    1  A    between atoms: C4_4  and  C5_5 
REMARK    2  A    between atoms: C8_8  and  O9_9 
REMARK    3  A    between atoms: C10_11  and  O11_12 
REMARK    4  A    between atoms: C16_18  and  O17_19 
REMARK    5  A    between atoms: C19_22  and  O20_23 
ROOT
HETATM    1  O1          0      37.517  55.578 -22.969  1.00  0.00    -0.286 OA
HETATM    2  C2          0      36.742  54.885 -22.255  1.00  0.00     0.201 C 
HETATM    3  C3          0      35.797  55.444 -21.412  1.00  0.00     0.067 C 
HETATM    4  C4          0      35.025  54.661 -20.561  1.00  0.00     0.103 C 
HETATM    5  O13         0      35.192  53.350 -20.579  1.00  0.00    -0.307 OA
HETATM    6  C14         0      36.101  52.771 -21.333  1.00  0.00     0.107 C 
HETATM    7  C15         0      36.554  51.486 -21.075  1.00  0.00     0.049 C 
HETATM    8  C16         0      37.682  50.977 -21.707  1.00  0.00     0.093 C 
HETATM    9  C18         0      37.987  51.567 -22.928  1.00  0.00     0.048 C 
HETATM   10  C19         0      37.511  52.834 -23.238  1.00  0.00     0.096 C 
HETATM   11  C21         0      36.722  53.501 -22.341  1.00  0.00     0.084 C 
ENDROOT
BRANCH  10  12
HETATM   12  O20         0      38.151  53.578 -24.224  1.00  0.00    -0.359 OA
HETATM   13  H20         0      37.683  54.313 -24.601  1.00  0.00     0.218 HD
ENDBRANCH  10  12
BRANCH   4  14
HETATM   14  C5          0      34.530  55.291 -19.336  1.00  0.00     0.025 C 
HETATM   15  C6          0      35.371  55.739 -18.327  1.00  0.00     0.004 C 
HETATM   16  C7          0      35.031  56.925 -17.684  1.00  0.00     0.026 C 
HETATM   17  C8          0      33.829  57.575 -17.940  1.00  0.00     0.112 C 
HETATM   18  C10         0      32.825  56.760 -18.446  1.00  0.00     0.112 C 
HETATM   19  C12         0      33.193  55.625 -19.159  1.00  0.00     0.028 C 
BRANCH  17  20
HETATM   20  O9          0      33.744  58.955 -17.885  1.00  0.00    -0.357 OA
HETATM   21  H9          0      33.934  59.465 -17.106  1.00  0.00     0.218 HD
ENDBRANCH  17  20
BRANCH  18  22
HETATM   22  O11         0      31.556  57.312 -18.541  1.00  0.00    -0.357 OA
HETATM   23  H11         0      30.828  56.706 -18.616  1.00  0.00     0.218 HD
ENDBRANCH  18  22
ENDBRANCH   4  14
BRANCH   8  24
HETATM   24  O17         0      38.612  50.190 -21.017  1.00  0.00    -0.359 OA
HETATM   25  H17         0      39.079  49.482 -21.444  1.00  0.00     0.218 HD
ENDBRANCH   8  24
TORSDOF 5
ENDMDL
MODEL 7
REMARK VINA RESULT:      -6.7      9.353     11.129
REMARK  5 active torsions:
REMARK  status: ('A' for Active; 'I' for Inactive)
REMARK    1  A    between atoms: C4_4  and  C5_5 
REMARK    2  A    between atoms: C8_8  and  O9_9 
REMARK    3  A    between atoms: C10_11  and  O11_12 
REMARK    4  A    between atoms: C16_18  and  O17_19 
REMARK    5  A    between atoms: C19_22  and  O20_23 
ROOT
HETATM    1  O1          0      38.319  59.329 -17.135  1.00  0.00    -0.286 OA
HETATM    2  C2          0      37.559  58.964 -18.074  1.00  0.00     0.201 C 
HETATM    3  C3          0      36.831  57.787 -18.036  1.00  0.00     0.067 C 
HETATM    4  C4          0      36.082  57.357 -19.126  1.00  0.00     0.103 C 
HETATM    5  O13         0      36.055  58.108 -20.213  1.00  0.00    -0.307 OA
HETATM    6  C14         0      36.758  59.215 -20.315  1.00  0.00     0.107 C 
HETATM    7  C15         0      37.053  59.781 -21.547  1.00  0.00     0.049 C 
HETATM    8  C16         0      37.998  60.793 -21.668  1.00  0.00     0.093 C 
HETATM    9  C18         0      38.210  61.539 -20.515  1.00  0.00     0.048 C 
HETATM   10  C19         0      37.882  61.021 -19.269  1.00  0.00     0.096 C 
HETATM   11  C21         0      37.330  59.772 -19.177  1.00  0.00     0.084 C 
ENDROOT
BRANCH  10  12
HETATM   12  O20         0      38.478  61.556 -18.131  1.00  0.00    -0.359 OA
HETATM   13  H20         0      37.945  61.648 -17.351  1.00  0.00     0.218 HD
ENDBRANCH  10  12
BRANCH   4  14
HETATM   14  C5          0      35.858  55.917 -19.258  1.00  0.00     0.025 C 
HETATM   15  C6          0      34.807  55.259 -18.635  1.00  0.00     0.004 C 
HETATM   16  C7          0      34.176  54.239 -19.340  1.00  0.00     0.026 C 
HETATM   17  C8          0      34.655  53.797 -20.568  1.00  0.00     0.112 C 
HETATM   18  C10         0      36.003  54.049 -20.790  1.00  0.00     0.112 C 
HETATM   19  C12         0      36.589  55.127 -20.137  1.00  0.00     0.028 C 
BRANCH  17  20
HETATM   20  O9          0      33.788  53.342 -21.546  1.00  0.00    -0.357 OA
HETATM   21  H9          0      34.073  52.958 -22.367  1.00  0.00     0.218 HD
ENDBRANCH  17  20
BRANCH  18  22
HETATM   22  O11         0      36.575  53.466 -21.911  1.00  0.00    -0.357 OA
HETATM   23  H11         0      36.074  52.786 -22.346  1.00  0.00     0.218 HD
ENDBRANCH  18  22
ENDBRANCH   4  14
BRANCH   8  24
HETATM   24  O17         0      38.892  60.831 -22.743  1.00  0.00    -0.359 OA
HETATM   25  H17         0      38.764  60.297 -23.518  1.00  0.00     0.218 HD
ENDBRANCH   8  24
TORSDOF 5
ENDMDL
MODEL 8
REMARK VINA RESULT:      -6.7      6.962      9.297
REMARK  5 active torsions:
REMARK  status: ('A' for Active; 'I' for Inactive)
REMARK    1  A    between atoms: C4_4  and  C5_5 
REMARK    2  A    between atoms: C8_8  and  O9_9 
REMARK    3  A    between atoms: C10_11  and  O11_12 
REMARK    4  A    between atoms: C16_18  and  O17_19 
REMARK    5  A    between atoms: C19_22  and  O20_23 
ROOT
HETATM    1  O1          0      38.717  57.389 -17.579  1.00  0.00    -0.286 OA
HETATM    2  C2          0      37.543  57.381 -18.041  1.00  0.00     0.201 C 
HETATM    3  C3          0      36.504  58.089 -17.462  1.00  0.00     0.067 C 
HETATM    4  C4          0      35.199  57.981 -17.930  1.00  0.00     0.103 C 
HETATM    5  O13         0      34.959  57.198 -18.967  1.00  0.00    -0.307 OA
HETATM    6  C14         0      35.903  56.475 -19.530  1.00  0.00     0.107 C 
HETATM    7  C15         0      35.606  55.379 -20.327  1.00  0.00     0.049 C 
HETATM    8  C16         0      36.592  54.475 -20.707  1.00  0.00     0.093 C 
HETATM    9  C18         0      37.884  54.986 -20.717  1.00  0.00     0.048 C 
HETATM   10  C19         0      38.204  56.111 -19.968  1.00  0.00     0.096 C 
HETATM   11  C21         0      37.236  56.731 -19.227  1.00  0.00     0.084 C 
ENDROOT
BRANCH  10  12
HETATM   12  O20         0      39.534  56.351 -19.636  1.00  0.00    -0.359 OA
HETATM   13  H20         0      40.137  56.560 -20.339  1.00  0.00     0.218 HD
ENDBRANCH  10  12
BRANCH   4  14
HETATM   14  C5          0      34.121  58.233 -16.973  1.00  0.00     0.025 C 
HETATM   15  C6          0      33.432  57.214 -16.331  1.00  0.00     0.004 C 
HETATM   16  C7          0      33.081  57.411 -15.000  1.00  0.00     0.026 C 
HETATM   17  C8          0      33.287  58.631 -14.364  1.00  0.00     0.112 C 
HETATM   18  C10         0      33.373  59.723 -15.219  1.00  0.00     0.112 C 
HETATM   19  C12         0      33.809  59.509 -16.521  1.00  0.00     0.028 C 
BRANCH  17  20
HETATM   20  O9          0      33.589  58.686 -13.016  1.00  0.00    -0.357 OA
HETATM   21  H9          0      33.223  59.327 -12.418  1.00  0.00     0.218 HD
ENDBRANCH  17  20
BRANCH  18  22
HETATM   22  O11         0      33.389  60.980 -14.632  1.00  0.00    -0.357 OA
HETATM   23  H11         0      32.877  61.091 -13.839  1.00  0.00     0.218 HD
ENDBRANCH  18  22
ENDBRANCH   4  14
BRANCH   8  24
HETATM   24  O17         0      36.345  53.098 -20.741  1.00  0.00    -0.359 OA
HETATM   25  H17         0      36.654  52.554 -21.455  1.00  0.00     0.218 HD
ENDBRANCH   8  24
TORSDOF 5
ENDMDL
MODEL 9
REMARK VINA RESULT:      -6.6     10.831     13.644
REMARK  5 active torsions:
REMARK  status: ('A' for Active; 'I' for Inactive)
REMARK    1  A    between atoms: C4_4  and  C5_5 
REMARK    2  A    between atoms: C8_8  and  O9_9 
REMARK    3  A    between atoms: C10_11  and  O11_12 
REMARK    4  A    between atoms: C16_18  and  O17_19 
REMARK    5  A    between atoms: C19_22  and  O20_23 
ROOT
HETATM    1  O1          0      34.257  57.306 -22.431  1.00  0.00    -0.286 OA
HETATM    2  C2          0      35.118  56.586 -21.853  1.00  0.00     0.201 C 
HETATM    3  C3          0      35.701  55.485 -22.456  1.00  0.00     0.067 C 
HETATM    4  C4          0      36.569  54.650 -21.762  1.00  0.00     0.103 C 
HETATM    5  O13         0      36.854  54.934 -20.504  1.00  0.00    -0.307 OA
HETATM    6  C14         0      36.299  55.946 -19.873  1.00  0.00     0.107 C 
HETATM    7  C15         0      36.272  56.017 -18.488  1.00  0.00     0.049 C 
HETATM    8  C16         0      35.472  56.943 -17.828  1.00  0.00     0.093 C 
HETATM    9  C18         0      35.153  58.075 -18.568  1.00  0.00     0.048 C 
HETATM   10  C19         0      35.215  58.053 -19.955  1.00  0.00     0.096 C 
HETATM   11  C21         0      35.609  56.911 -20.598  1.00  0.00     0.084 C 
ENDROOT
BRANCH  10  12
HETATM   12  O20         0      34.500  58.998 -20.683  1.00  0.00    -0.359 OA
HETATM   13  H20         0      33.600  58.797 -20.912  1.00  0.00     0.218 HD
ENDBRANCH  10  12
BRANCH   4  14
HETATM   14  C5          0      36.659  53.258 -22.208  1.00  0.00     0.025 C 
HETATM   15  C6          0      36.629  52.893 -23.546  1.00  0.00     0.004 C 
HETATM   16  C7          0      37.459  51.851 -23.949  1.00  0.00     0.026 C 
HETATM   17  C8          0      38.192  51.107 -23.031  1.00  0.00     0.112 C 
HETATM   18  C10         0      37.686  51.118 -21.738  1.00  0.00     0.112 C 
HETATM   19  C12         0      36.931  52.213 -21.334  1.00  0.00     0.028 C 
BRANCH  17  20
HETATM   20  O9          0      39.431  50.590 -23.367  1.00  0.00    -0.357 OA
HETATM   21  H9          0      39.699  49.697 -23.182  1.00  0.00     0.218 HD
ENDBRANCH  17  20
BRANCH  18  22
HETATM   22  O11         0      38.267  50.246 -20.829  1.00  0.00    -0.357 OA
HETATM   23  H11         0      38.718  49.489 -21.186  1.00  0.00     0.218 HD
ENDBRANCH  18  22
ENDBRANCH   4  14
BRANCH   8  24
HETATM   24  O17         0      34.776  56.606 -16.662  1.00  0.00    -0.359 OA
HETATM   25  H17         0      35.038  55.872 -16.119  1.00  0.00     0.218 HD
ENDBRANCH   8  24
TORSDOF 5
ENDMDL
