MODEL 1
REMARK VINA RESULT:      -3.2      0.000      0.000
REMARK  5 active torsions:
REMARK  status: ('A' for Active; 'I' for Inactive)
REMARK    1  A    between atoms: C4_4  and  C5_5 
REMARK    2  A    between atoms: C8_8  and  O9_9 
REMARK    3  A    between atoms: C10_11  and  O11_12 
REMARK    4  A    between atoms: C16_18  and  O17_19 
REMARK    5  A    between atoms: C19_22  and  O20_23 
ROOT
HETATM    1  O1          0      25.770  62.760  20.777  1.00  0.00    -0.286 OA
HETATM    2  C2          0      26.000  63.074  21.977  1.00  0.00     0.201 C 
HETATM    3  C3          0      25.859  64.365  22.455  1.00  0.00     0.067 C 
HETATM    4  C4          0      26.218  64.704  23.755  1.00  0.00     0.103 C 
HETATM    5  O13         0      26.684  63.759  24.551  1.00  0.00    -0.307 OA
HETATM    6  C14         0      26.873  62.525  24.137  1.00  0.00     0.107 C 
HETATM    7  C15         0      27.712  61.648  24.809  1.00  0.00     0.049 C 
HETATM    8  C16         0      28.106  60.445  24.236  1.00  0.00     0.093 C 
HETATM    9  C18         0      27.243  59.944  23.270  1.00  0.00     0.048 C 
HETATM   10  C19         0      26.357  60.786  22.610  1.00  0.00     0.096 C 
HETATM   11  C21         0      26.322  62.117  22.927  1.00  0.00     0.084 C 
ENDROOT
BRANCH  10  12
HETATM   12  O20         0      25.830  60.393  21.384  1.00  0.00    -0.359 OA
HETATM   13  H20         0      26.319  59.760  20.871  1.00  0.00     0.218 HD
ENDBRANCH  10  12
BRANCH   4  14
HETATM   14  C5          0      26.615  66.092  24.000  1.00  0.00     0.025 C 
HETATM   15  C6          0      25.825  66.986  24.709  1.00  0.00     0.004 C 
HETATM   16  C7          0      26.469  67.879  25.560  1.00  0.00     0.026 C 
HETATM   17  C8          0      27.856  67.973  25.605  1.00  0.00     0.112 C 
HETATM   18  C10         0      28.504  67.531  24.460  1.00  0.00     0.112 C 
HETATM   19  C12         0      27.875  66.574  23.672  1.00  0.00     0.028 C 
BRANCH  17  20
HETATM   20  O9          0      28.507  68.284  26.785  1.00  0.00    -0.357 OA
HETATM   21  H9          0      28.403  67.792  27.591  1.00  0.00     0.218 HD
ENDBRANCH  17  20
BRANCH  18  22
HETATM   22  O11         0      29.867  67.777  24.375  1.00  0.00    -0.357 OA
HETATM   23  H11         0      30.398  67.520  25.121  1.00  0.00     0.218 HD
ENDBRANCH  18  22
ENDBRANCH   4  14
BRANCH   8  24
HETATM   24  O17         0      29.413  59.965  24.375  1.00  0.00    -0.359 OA
HETATM   25  H17         0      30.157  60.429  24.009  1.00  0.00     0.218 HD
ENDBRANCH   8  24
TORSDOF 5
ENDMDL
MODEL 2
REMARK VINA RESULT:      -3.0      3.462      6.948
REMARK  5 active torsions:
REMARK  status: ('A' for Active; 'I' for Inactive)
REMARK    1  A    between atoms: C4_4  and  C5_5 
REMARK    2  A    between atoms: C8_8  and  O9_9 
REMARK    3  A    between atoms: C10_11  and  O11_12 
REMARK    4  A    between atoms: C16_18  and  O17_19 
REMARK    5  A    between atoms: C19_22  and  O20_23 
ROOT
HETATM    1  O1          0      27.857  65.881  21.575  1.00  0.00    -0.286 OA
HETATM    2  C2          0      26.732  65.615  22.081  1.00  0.00     0.201 C 
HETATM    3  C3          0      25.783  64.841  21.436  1.00  0.00     0.067 C 
HETATM    4  C4          0      24.514  64.648  21.971  1.00  0.00     0.103 C 
HETATM    5  O13         0      24.224  65.205  23.134  1.00  0.00    -0.307 OA
HETATM    6  C14         0      25.076  65.979  23.770  1.00  0.00     0.107 C 
HETATM    7  C15         0      24.663  66.869  24.751  1.00  0.00     0.049 C 
HETATM    8  C16         0      25.514  67.855  25.235  1.00  0.00     0.093 C 
HETATM    9  C18         0      26.869  67.577  25.104  1.00  0.00     0.048 C 
HETATM   10  C19         0      27.313  66.658  24.164  1.00  0.00     0.096 C 
HETATM   11  C21         0      26.408  66.007  23.371  1.00  0.00     0.084 C 
ENDROOT
BRANCH  10  12
HETATM   12  O20         0      28.637  66.704  23.740  1.00  0.00    -0.359 OA
HETATM   13  H20         0      28.937  67.490  23.301  1.00  0.00     0.218 HD
ENDBRANCH  10  12
BRANCH   4  14
HETATM   14  C5          0      23.426  64.372  21.031  1.00  0.00     0.025 C 
HETATM   15  C6          0      22.998  63.086  20.734  1.00  0.00     0.004 C 
HETATM   16  C7          0      21.632  62.885  20.561  1.00  0.00     0.026 C 
HETATM   17  C8          0      20.734  63.947  20.551  1.00  0.00     0.112 C 
HETATM   18  C10         0      21.292  65.175  20.221  1.00  0.00     0.112 C 
HETATM   19  C12         0      22.642  65.378  20.483  1.00  0.00     0.028 C 
BRANCH  17  20
HETATM   20  O9          0      19.449  63.794  21.041  1.00  0.00    -0.357 OA
HETATM   21  H9          0      18.729  64.374  20.825  1.00  0.00     0.218 HD
ENDBRANCH  17  20
BRANCH  18  22
HETATM   22  O11         0      20.413  66.228  20.012  1.00  0.00    -0.357 OA
HETATM   23  H11         0      19.997  66.600  20.781  1.00  0.00     0.218 HD
ENDBRANCH  18  22
ENDBRANCH   4  14
BRANCH   8  24
HETATM   24  O17         0      25.051  69.146  25.511  1.00  0.00    -0.359 OA
HETATM   25  H17         0      24.936  69.793  24.825  1.00  0.00     0.218 HD
ENDBRANCH   8  24
TORSDOF 5
ENDMDL
MODEL 3
REMARK VINA RESULT:      -2.9      2.363      5.526
REMARK  5 active torsions:
REMARK  status: ('A' for Active; 'I' for Inactive)
REMARK    1  A    between atoms: C4_4  and  C5_5 
REMARK    2  A    between atoms: C8_8  and  O9_9 
REMARK    3  A    between atoms: C10_11  and  O11_12 
REMARK    4  A    between atoms: C16_18  and  O17_19 
REMARK    5  A    between atoms: C19_22  and  O20_23 
ROOT
HETATM    1  O1          0      27.976  67.438  26.091  1.00  0.00    -0.286 OA
HETATM    2  C2          0      27.943  66.487  25.263  1.00  0.00     0.201 C 
HETATM    3  C3          0      27.367  66.602  24.010  1.00  0.00     0.067 C 
HETATM    4  C4          0      27.253  65.510  23.157  1.00  0.00     0.103 C 
HETATM    5  O13         0      27.728  64.343  23.553  1.00  0.00    -0.307 OA
HETATM    6  C14         0      28.251  64.170  24.747  1.00  0.00     0.107 C 
HETATM    7  C15         0      28.378  62.910  25.314  1.00  0.00     0.049 C 
HETATM    8  C16         0      28.689  62.752  26.659  1.00  0.00     0.093 C 
HETATM    9  C18         0      29.364  63.821  27.236  1.00  0.00     0.048 C 
HETATM   10  C19         0      29.296  65.086  26.668  1.00  0.00     0.096 C 
HETATM   11  C21         0      28.573  65.279  25.522  1.00  0.00     0.084 C 
ENDROOT
BRANCH  10  12
HETATM   12  O20         0      29.587  66.199  27.450  1.00  0.00    -0.359 OA
HETATM   13  H20         0      29.293  67.048  27.144  1.00  0.00     0.218 HD
ENDBRANCH  10  12
BRANCH   4  14
HETATM   14  C5          0      26.161  65.533  22.182  1.00  0.00     0.025 C 
HETATM   15  C6          0      26.374  65.623  20.815  1.00  0.00     0.004 C 
HETATM   16  C7          0      25.542  64.881  19.982  1.00  0.00     0.026 C 
HETATM   17  C8          0      24.450  64.179  20.480  1.00  0.00     0.112 C 
HETATM   18  C10         0      23.962  64.650  21.692  1.00  0.00     0.112 C 
HETATM   19  C12         0      24.837  65.314  22.543  1.00  0.00     0.028 C 
BRANCH  17  20
HETATM   20  O9          0      24.047  62.990  19.899  1.00  0.00    -0.357 OA
HETATM   21  H9          0      23.479  62.940  19.139  1.00  0.00     0.218 HD
ENDBRANCH  17  20
BRANCH  18  22
HETATM   22  O11         0      22.764  64.110  22.139  1.00  0.00    -0.357 OA
HETATM   23  H11         0      22.151  64.708  22.551  1.00  0.00     0.218 HD
ENDBRANCH  18  22
ENDBRANCH   4  14
BRANCH   8  24
HETATM   24  O17         0      28.078  61.762  27.437  1.00  0.00    -0.359 OA
HETATM   25  H17         0      28.311  60.845  27.351  1.00  0.00     0.218 HD
ENDBRANCH   8  24
TORSDOF 5
ENDMDL
MODEL 4
REMARK VINA RESULT:      -2.9      1.843      2.585
REMARK  5 active torsions:
REMARK  status: ('A' for Active; 'I' for Inactive)
REMARK    1  A    between atoms: C4_4  and  C5_5 
REMARK    2  A    between atoms: C8_8  and  O9_9 
REMARK    3  A    between atoms: C10_11  and  O11_12 
REMARK    4  A    between atoms: C16_18  and  O17_19 
REMARK    5  A    between atoms: C19_22  and  O20_23 
ROOT
HETATM    1  O1          0      22.381  64.800  22.819  1.00  0.00    -0.286 OA
HETATM    2  C2          0      23.573  64.666  23.210  1.00  0.00     0.201 C 
HETATM    3  C3          0      24.249  65.653  23.908  1.00  0.00     0.067 C 
HETATM    4  C4          0      25.593  65.521  24.238  1.00  0.00     0.103 C 
HETATM    5  O13         0      26.226  64.415  23.891  1.00  0.00    -0.307 OA
HETATM    6  C14         0      25.642  63.464  23.195  1.00  0.00     0.107 C 
HETATM    7  C15         0      26.374  62.515  22.496  1.00  0.00     0.049 C 
HETATM    8  C16         0      25.769  61.678  21.567  1.00  0.00     0.093 C 
HETATM    9  C18         0      24.409  61.470  21.763  1.00  0.00     0.048 C 
HETATM   10  C19         0      23.655  62.375  22.498  1.00  0.00     0.096 C 
HETATM   11  C21         0      24.260  63.472  23.048  1.00  0.00     0.084 C 
ENDROOT
BRANCH  10  12
HETATM   12  O20         0      22.275  62.407  22.328  1.00  0.00    -0.359 OA
HETATM   13  H20         0      21.919  62.077  21.512  1.00  0.00     0.218 HD
ENDBRANCH  10  12
BRANCH   4  14
HETATM   14  C5          0      26.366  66.754  24.403  1.00  0.00     0.025 C 
HETATM   15  C6          0      25.899  67.843  25.125  1.00  0.00     0.004 C 
HETATM   16  C7          0      26.819  68.545  25.898  1.00  0.00     0.026 C 
HETATM   17  C8          0      28.179  68.261  25.851  1.00  0.00     0.112 C 
HETATM   18  C10         0      28.601  67.636  24.686  1.00  0.00     0.112 C 
HETATM   19  C12         0      27.683  66.869  23.977  1.00  0.00     0.028 C 
BRANCH  17  20
HETATM   20  O9          0      28.973  68.407  26.975  1.00  0.00    -0.357 OA
HETATM   21  H9          0      29.129  69.239  27.406  1.00  0.00     0.218 HD
ENDBRANCH  17  20
BRANCH  18  22
HETATM   22  O11         0      29.970  67.500  24.505  1.00  0.00    -0.357 OA
HETATM   23  H11         0      30.257  67.009  23.744  1.00  0.00     0.218 HD
ENDBRANCH  18  22
ENDBRANCH   4  14
BRANCH   8  24
HETATM   24  O17         0      26.396  61.355  20.358  1.00  0.00    -0.359 OA
HETATM   25  H17         0      26.759  62.024  19.790  1.00  0.00     0.218 HD
ENDBRANCH   8  24
TORSDOF 5
ENDMDL
MODEL 5
REMARK VINA RESULT:      -2.9      2.514      7.051
REMARK  5 active torsions:
REMARK  status: ('A' for Active; 'I' for Inactive)
REMARK    1  A    between atoms: C4_4  and  C5_5 
REMARK    2  A    between atoms: C8_8  and  O9_9 
REMARK    3  A    between atoms: C10_11  and  O11_12 
REMARK    4  A    between atoms: C16_18  and  O17_19 
REMARK    5  A    between atoms: C19_22  and  O20_23 
ROOT
HETATM    1  O1          0      29.137  68.047  24.351  1.00  0.00    -0.286 OA
HETATM    2  C2          0      28.062  67.418  24.557  1.00  0.00     0.201 C 
HETATM    3  C3          0      27.621  66.396  23.734  1.00  0.00     0.067 C 
HETATM    4  C4          0      26.385  65.789  23.924  1.00  0.00     0.103 C 
HETATM    5  O13         0      25.629  66.192  24.930  1.00  0.00    -0.307 OA
HETATM    6  C14         0      25.983  67.183  25.718  1.00  0.00     0.107 C 
HETATM    7  C15         0      25.059  67.864  26.496  1.00  0.00     0.049 C 
HETATM    8  C16         0      25.386  69.060  27.125  1.00  0.00     0.093 C 
HETATM    9  C18         0      26.741  69.239  27.376  1.00  0.00     0.048 C 
HETATM   10  C19         0      27.692  68.537  26.648  1.00  0.00     0.096 C 
HETATM   11  C21         0      27.293  67.650  25.687  1.00  0.00     0.084 C 
ENDROOT
BRANCH  10  12
HETATM   12  O20         0      28.996  69.021  26.589  1.00  0.00    -0.359 OA
HETATM   13  H20         0      29.640  68.507  26.117  1.00  0.00     0.218 HD
ENDBRANCH  10  12
BRANCH   4  14
HETATM   14  C5          0      25.740  65.200  22.749  1.00  0.00     0.025 C 
HETATM   15  C6          0      26.003  65.626  21.455  1.00  0.00     0.004 C 
HETATM   16  C7          0      26.062  64.657  20.458  1.00  0.00     0.026 C 
HETATM   17  C8          0      25.739  63.328  20.711  1.00  0.00     0.112 C 
HETATM   18  C10         0      24.909  63.133  21.807  1.00  0.00     0.112 C 
HETATM   19  C12         0      24.932  64.074  22.830  1.00  0.00     0.028 C 
BRANCH  17  20
HETATM   20  O9          0      26.380  62.302  20.040  1.00  0.00    -0.357 OA
HETATM   21  H9          0      26.121  61.390  20.100  1.00  0.00     0.218 HD
ENDBRANCH  17  20
BRANCH  18  22
HETATM   22  O11         0      24.404  61.853  21.992  1.00  0.00    -0.357 OA
HETATM   23  H11         0      24.370  61.530  22.885  1.00  0.00     0.218 HD
ENDBRANCH  18  22
ENDBRANCH   4  14
BRANCH   8  24
HETATM   24  O17         0      24.479  70.124  27.185  1.00  0.00    -0.359 OA
HETATM   25  H17         0      23.541  69.980  27.201  1.00  0.00     0.218 HD
ENDBRANCH   8  24
TORSDOF 5
ENDMDL
MODEL 6
REMARK VINA RESULT:      -2.8      1.903      3.425
REMARK  5 active torsions:
REMARK  status: ('A' for Active; 'I' for Inactive)
REMARK    1  A    between atoms: C4_4  and  C5_5 
REMARK    2  A    between atoms: C8_8  and  O9_9 
REMARK    3  A    between atoms: C10_11  and  O11_12 
REMARK    4  A    between atoms: C16_18  and  O17_19 
REMARK    5  A    between atoms: C19_22  and  O20_23 
ROOT
HETATM    1  O1          0      26.158  62.449  24.549  1.00  0.00    -0.286 OA
HETATM    2  C2          0      26.339  63.487  23.856  1.00  0.00     0.201 C 
HETATM    3  C3          0      27.027  64.593  24.328  1.00  0.00     0.067 C 
HETATM    4  C4          0      27.124  65.763  23.583  1.00  0.00     0.103 C 
HETATM    5  O13         0      26.560  65.803  22.388  1.00  0.00    -0.307 OA
HETATM    6  C14         0      25.865  64.796  21.909  1.00  0.00     0.107 C 
HETATM    7  C15         0      24.958  64.961  20.872  1.00  0.00     0.049 C 
HETATM    8  C16         0      24.048  63.963  20.543  1.00  0.00     0.093 C 
HETATM    9  C18         0      24.432  62.677  20.904  1.00  0.00     0.048 C 
HETATM   10  C19         0      25.372  62.476  21.905  1.00  0.00     0.096 C 
HETATM   11  C21         0      25.939  63.554  22.530  1.00  0.00     0.084 C 
ENDROOT
BRANCH  10  12
HETATM   12  O20         0      25.427  61.245  22.550  1.00  0.00    -0.359 OA
HETATM   13  H20         0      24.679  60.982  23.073  1.00  0.00     0.218 HD
ENDBRANCH  10  12
BRANCH   4  14
HETATM   14  C5          0      27.301  67.014  24.321  1.00  0.00     0.025 C 
HETATM   15  C6          0      26.257  67.660  24.969  1.00  0.00     0.004 C 
HETATM   16  C7          0      26.531  68.259  26.194  1.00  0.00     0.026 C 
HETATM   17  C8          0      27.825  68.333  26.697  1.00  0.00     0.112 C 
HETATM   18  C10         0      28.826  68.248  25.738  1.00  0.00     0.112 C 
HETATM   19  C12         0      28.552  67.569  24.556  1.00  0.00     0.028 C 
BRANCH  17  20
HETATM   20  O9          0      28.061  68.278  28.059  1.00  0.00    -0.357 OA
HETATM   21  H9          0      28.807  68.686  28.483  1.00  0.00     0.218 HD
ENDBRANCH  17  20
BRANCH  18  22
HETATM   22  O11         0      30.123  68.504  26.159  1.00  0.00    -0.357 OA
HETATM   23  H11         0      30.254  69.269  26.708  1.00  0.00     0.218 HD
ENDBRANCH  18  22
ENDBRANCH   4  14
BRANCH   8  24
HETATM   24  O17         0      22.728  64.266  20.193  1.00  0.00    -0.359 OA
HETATM   25  H17         0      22.457  64.346  19.286  1.00  0.00     0.218 HD
ENDBRANCH   8  24
TORSDOF 5
ENDMDL
MODEL 7
REMARK VINA RESULT:      -2.8      1.964      2.854
REMARK  5 active torsions:
REMARK  status: ('A' for Active; 'I' for Inactive)
REMARK    1  A    between atoms: C4_4  and  C5_5 
REMARK    2  A    between atoms: C8_8  and  O9_9 
REMARK    3  A    between atoms: C10_11  and  O11_12 
REMARK    4  A    between atoms: C16_18  and  O17_19 
REMARK    5  A    between atoms: C19_22  and  O20_23 
ROOT
HETATM    1  O1          0      23.872  62.549  25.651  1.00  0.00    -0.286 OA
HETATM    2  C2          0      24.767  62.948  24.857  1.00  0.00     0.201 C 
HETATM    3  C3          0      25.536  64.074  25.097  1.00  0.00     0.067 C 
HETATM    4  C4          0      26.444  64.550  24.158  1.00  0.00     0.103 C 
HETATM    5  O13         0      26.584  63.893  23.020  1.00  0.00    -0.307 OA
HETATM    6  C14         0      25.852  62.840  22.726  1.00  0.00     0.107 C 
HETATM    7  C15         0      25.701  62.396  21.421  1.00  0.00     0.049 C 
HETATM    8  C16         0      24.737  61.453  21.086  1.00  0.00     0.093 C 
HETATM    9  C18         0      24.337  60.627  22.130  1.00  0.00     0.048 C 
HETATM   10  C19         0      24.516  61.020  23.449  1.00  0.00     0.096 C 
HETATM   11  C21         0      25.107  62.223  23.725  1.00  0.00     0.084 C 
ENDROOT
BRANCH  10  12
HETATM   12  O20         0      23.748  60.426  24.446  1.00  0.00    -0.359 OA
HETATM   13  H20         0      22.860  60.737  24.568  1.00  0.00     0.218 HD
ENDBRANCH  10  12
BRANCH   4  14
HETATM   14  C5          0      26.749  65.982  24.186  1.00  0.00     0.025 C 
HETATM   15  C6          0      25.877  66.926  24.710  1.00  0.00     0.004 C 
HETATM   16  C7          0      26.428  67.984  25.426  1.00  0.00     0.026 C 
HETATM   17  C8          0      27.803  68.174  25.505  1.00  0.00     0.112 C 
HETATM   18  C10         0      28.529  67.595  24.473  1.00  0.00     0.112 C 
HETATM   19  C12         0      27.993  66.485  23.830  1.00  0.00     0.028 C 
BRANCH  17  20
HETATM   20  O9          0      28.380  68.712  26.642  1.00  0.00    -0.357 OA
HETATM   21  H9          0      28.157  68.442  27.526  1.00  0.00     0.218 HD
ENDBRANCH  17  20
BRANCH  18  22
HETATM   22  O11         0      29.878  67.911  24.399  1.00  0.00    -0.357 OA
HETATM   23  H11         0      30.431  67.603  25.108  1.00  0.00     0.218 HD
ENDBRANCH  18  22
ENDBRANCH   4  14
BRANCH   8  24
HETATM   24  O17         0      23.996  61.556  19.904  1.00  0.00    -0.359 OA
HETATM   25  H17         0      23.543  60.808  19.532  1.00  0.00     0.218 HD
ENDBRANCH   8  24
TORSDOF 5
ENDMDL
MODEL 8
REMARK VINA RESULT:      -2.7      2.473      6.644
REMARK  5 active torsions:
REMARK  status: ('A' for Active; 'I' for Inactive)
REMARK    1  A    between atoms: C4_4  and  C5_5 
REMARK    2  A    between atoms: C8_8  and  O9_9 
REMARK    3  A    between atoms: C10_11  and  O11_12 
REMARK    4  A    between atoms: C16_18  and  O17_19 
REMARK    5  A    between atoms: C19_22  and  O20_23 
ROOT
HETATM    1  O1          0      23.325  65.051  24.726  1.00  0.00    -0.286 OA
HETATM    2  C2          0      24.139  65.004  23.763  1.00  0.00     0.201 C 
HETATM    3  C3          0      23.957  64.179  22.666  1.00  0.00     0.067 C 
HETATM    4  C4          0      24.919  64.071  21.669  1.00  0.00     0.103 C 
HETATM    5  O13         0      26.021  64.793  21.769  1.00  0.00    -0.307 OA
HETATM    6  C14         0      26.260  65.563  22.807  1.00  0.00     0.107 C 
HETATM    7  C15         0      27.542  65.997  23.116  1.00  0.00     0.049 C 
HETATM    8  C16         0      27.827  66.590  24.340  1.00  0.00     0.093 C 
HETATM    9  C18         0      26.743  67.189  24.970  1.00  0.00     0.048 C 
HETATM   10  C19         0      25.445  66.812  24.650  1.00  0.00     0.096 C 
HETATM   11  C21         0      25.232  65.855  23.697  1.00  0.00     0.084 C 
ENDROOT
BRANCH  10  12
HETATM   12  O20         0      24.419  67.074  25.553  1.00  0.00    -0.359 OA
HETATM   13  H20         0      23.570  67.315  25.204  1.00  0.00     0.218 HD
ENDBRANCH  10  12
BRANCH   4  14
HETATM   14  C5          0      24.964  62.817  20.914  1.00  0.00     0.025 C 
HETATM   15  C6          0      25.925  62.554  19.949  1.00  0.00     0.004 C 
HETATM   16  C7          0      26.426  61.258  19.875  1.00  0.00     0.026 C 
HETATM   17  C8          0      25.896  60.226  20.641  1.00  0.00     0.112 C 
HETATM   18  C10         0      24.590  60.431  21.066  1.00  0.00     0.112 C 
HETATM   19  C12         0      24.141  61.739  21.214  1.00  0.00     0.028 C 
BRANCH  17  20
HETATM   20  O9          0      26.700  59.198  21.100  1.00  0.00    -0.357 OA
HETATM   21  H9          0      26.706  58.894  22.000  1.00  0.00     0.218 HD
ENDBRANCH  17  20
BRANCH  18  22
HETATM   22  O11         0      23.949  59.359  21.670  1.00  0.00    -0.357 OA
HETATM   23  H11         0      23.670  59.476  22.571  1.00  0.00     0.218 HD
ENDBRANCH  18  22
ENDBRANCH   4  14
BRANCH   8  24
HETATM   24  O17         0      29.014  66.309  25.027  1.00  0.00    -0.359 OA
HETATM   25  H17         0      29.010  66.022  25.933  1.00  0.00     0.218 HD
ENDBRANCH   8  24
TORSDOF 5
ENDMDL
MODEL 9
REMARK VINA RESULT:      -2.7      1.625      6.806
REMARK  5 active torsions:
REMARK  status: ('A' for Active; 'I' for Inactive)
REMARK    1  A    between atoms: C4_4  and  C5_5 
REMARK    2  A    between atoms: C8_8  and  O9_9 
REMARK    3  A    between atoms: C10_11  and  O11_12 
REMARK    4  A    between atoms: C16_18  and  O17_19 
REMARK    5  A    between atoms: C19_22  and  O20_23 
ROOT
HETATM    1  O1          0      25.916  64.205  27.157  1.00  0.00    -0.286 OA
HETATM    2  C2          0      26.163  64.143  25.921  1.00  0.00     0.201 C 
HETATM    3  C3          0      26.078  62.967  25.196  1.00  0.00     0.067 C 
HETATM    4  C4          0      26.454  62.906  23.859  1.00  0.00     0.103 C 
HETATM    5  O13         0      26.883  64.008  23.270  1.00  0.00    -0.307 OA
HETATM    6  C14         0      27.019  65.142  23.922  1.00  0.00     0.107 C 
HETATM    7  C15         0      27.822  66.168  23.445  1.00  0.00     0.049 C 
HETATM    8  C16         0      28.164  67.249  24.247  1.00  0.00     0.093 C 
HETATM    9  C18         0      27.277  67.514  25.284  1.00  0.00     0.048 C 
HETATM   10  C19         0      26.426  66.524  25.755  1.00  0.00     0.096 C 
HETATM   11  C21         0      26.448  65.281  25.182  1.00  0.00     0.084 C 
ENDROOT
BRANCH  10  12
HETATM   12  O20         0      25.879  66.646  27.028  1.00  0.00    -0.359 OA
HETATM   13  H20         0      26.261  67.285  27.618  1.00  0.00     0.218 HD
ENDBRANCH  10  12
BRANCH   4  14
HETATM   14  C5          0      26.910  61.611  23.350  1.00  0.00     0.025 C 
HETATM   15  C6          0      27.827  60.818  24.025  1.00  0.00     0.004 C 
HETATM   16  C7          0      27.628  59.442  24.002  1.00  0.00     0.026 C 
HETATM   17  C8          0      26.631  58.861  23.226  1.00  0.00     0.112 C 
HETATM   18  C10         0      26.214  59.630  22.148  1.00  0.00     0.112 C 
HETATM   19  C12         0      26.346  61.011  22.231  1.00  0.00     0.028 C 
BRANCH  17  20
HETATM   20  O9          0      25.985  57.712  23.646  1.00  0.00    -0.357 OA
HETATM   21  H9          0      25.242  57.711  24.238  1.00  0.00     0.218 HD
ENDBRANCH  17  20
BRANCH  18  22
HETATM   22  O11         0      25.362  59.024  21.235  1.00  0.00    -0.357 OA
HETATM   23  H11         0      24.577  59.503  20.996  1.00  0.00     0.218 HD
ENDBRANCH  18  22
ENDBRANCH   4  14
BRANCH   8  24
HETATM   24  O17         0      29.450  67.800  24.221  1.00  0.00    -0.359 OA
HETATM   25  H17         0      30.010  67.723  23.457  1.00  0.00     0.218 HD
ENDBRANCH   8  24
TORSDOF 5
ENDMDL
