MODEL 1
REMARK VINA RESULT:      -5.6      0.000      0.000
REMARK  5 active torsions:
REMARK  status: ('A' for Active; 'I' for Inactive)
REMARK    1  A    between atoms: C4_4  and  C5_5 
REMARK    2  A    between atoms: C8_8  and  O9_9 
REMARK    3  A    between atoms: C10_11  and  O11_12 
REMARK    4  A    between atoms: C16_18  and  O17_19 
REMARK    5  A    between atoms: C19_22  and  O20_23 
ROOT
HETATM    1  O1          0      45.232   6.228  -6.901  1.00  0.00    -0.286 OA
HETATM    2  C2          0      44.775   6.639  -5.799  1.00  0.00     0.201 C 
HETATM    3  C3          0      44.303   7.927  -5.616  1.00  0.00     0.067 C 
HETATM    4  C4          0      43.901   8.385  -4.367  1.00  0.00     0.103 C 
HETATM    5  O13         0      43.955   7.556  -3.339  1.00  0.00    -0.307 OA
HETATM    6  C14         0      44.430   6.335  -3.451  1.00  0.00     0.107 C 
HETATM    7  C15         0      44.859   5.614  -2.346  1.00  0.00     0.049 C 
HETATM    8  C16         0      45.589   4.440  -2.489  1.00  0.00     0.093 C 
HETATM    9  C18         0      45.402   3.776  -3.696  1.00  0.00     0.048 C 
HETATM   10  C19         0      44.928   4.457  -4.809  1.00  0.00     0.096 C 
HETATM   11  C21         0      44.628   5.788  -4.714  1.00  0.00     0.084 C 
ENDROOT
BRANCH  10  12
HETATM   12  O20         0      45.153   3.928  -6.076  1.00  0.00    -0.359 OA
HETATM   13  H20         0      45.563   3.073  -6.136  1.00  0.00     0.218 HD
ENDBRANCH  10  12
BRANCH   4  14
HETATM   14  C5          0      43.999   9.824  -4.117  1.00  0.00     0.025 C 
HETATM   15  C6          0      43.975  10.370  -2.841  1.00  0.00     0.004 C 
HETATM   16  C7          0      44.811  11.452  -2.587  1.00  0.00     0.026 C 
HETATM   17  C8          0      45.547  12.058  -3.599  1.00  0.00     0.112 C 
HETATM   18  C10         0      45.038  11.873  -4.878  1.00  0.00     0.112 C 
HETATM   19  C12         0      44.276  10.738  -5.126  1.00  0.00     0.028 C 
BRANCH  17  20
HETATM   20  O9          0      46.790  12.609  -3.339  1.00  0.00    -0.357 OA
HETATM   21  H9          0      47.560  12.450  -3.874  1.00  0.00     0.218 HD
ENDBRANCH  17  20
BRANCH  18  22
HETATM   22  O11         0      45.622  12.608  -5.899  1.00  0.00    -0.357 OA
HETATM   23  H11         0      46.092  13.395  -5.648  1.00  0.00     0.218 HD
ENDBRANCH  18  22
ENDBRANCH   4  14
BRANCH   8  24
HETATM   24  O17         0      46.664   4.141  -1.644  1.00  0.00    -0.359 OA
HETATM   25  H17         0      47.190   4.824  -1.246  1.00  0.00     0.218 HD
ENDBRANCH   8  24
TORSDOF 5
ENDMDL
MODEL 2
REMARK VINA RESULT:      -5.5      9.929     12.434
REMARK  5 active torsions:
REMARK  status: ('A' for Active; 'I' for Inactive)
REMARK    1  A    between atoms: C4_4  and  C5_5 
REMARK    2  A    between atoms: C8_8  and  O9_9 
REMARK    3  A    between atoms: C10_11  and  O11_12 
REMARK    4  A    between atoms: C16_18  and  O17_19 
REMARK    5  A    between atoms: C19_22  and  O20_23 
ROOT
HETATM    1  O1          0      50.003  14.791   5.627  1.00  0.00    -0.286 OA
HETATM    2  C2          0      48.769  14.772   5.362  1.00  0.00     0.201 C 
HETATM    3  C3          0      48.273  14.988   4.088  1.00  0.00     0.067 C 
HETATM    4  C4          0      46.907  15.063   3.841  1.00  0.00     0.103 C 
HETATM    5  O13         0      46.070  14.903   4.851  1.00  0.00    -0.307 OA
HETATM    6  C14         0      46.489  14.733   6.086  1.00  0.00     0.107 C 
HETATM    7  C15         0      45.662  14.963   7.176  1.00  0.00     0.049 C 
HETATM    8  C16         0      46.173  15.031   8.467  1.00  0.00     0.093 C 
HETATM    9  C18         0      47.371  14.354   8.660  1.00  0.00     0.048 C 
HETATM   10  C19         0      48.200  14.066   7.585  1.00  0.00     0.096 C 
HETATM   11  C21         0      47.827  14.436   6.322  1.00  0.00     0.084 C 
ENDROOT
BRANCH  10  12
HETATM   12  O20         0      49.546  13.801   7.816  1.00  0.00    -0.359 OA
HETATM   13  H20         0      49.841  13.746   8.717  1.00  0.00     0.218 HD
ENDBRANCH  10  12
BRANCH   4  14
HETATM   14  C5          0      46.477  15.857   2.688  1.00  0.00     0.025 C 
HETATM   15  C6          0      45.975  17.145   2.807  1.00  0.00     0.004 C 
HETATM   16  C7          0      46.335  18.069   1.832  1.00  0.00     0.026 C 
HETATM   17  C8          0      47.057  17.695   0.704  1.00  0.00     0.112 C 
HETATM   18  C10         0      46.956  16.352   0.369  1.00  0.00     0.112 C 
HETATM   19  C12         0      46.679  15.439   1.379  1.00  0.00     0.028 C 
BRANCH  17  20
HETATM   20  O9          0      47.958  18.567   0.118  1.00  0.00    -0.357 OA
HETATM   21  H9          0      48.523  18.333  -0.609  1.00  0.00     0.218 HD
ENDBRANCH  17  20
BRANCH  18  22
HETATM   22  O11         0      47.500  15.964  -0.847  1.00  0.00    -0.357 OA
HETATM   23  H11         0      48.443  16.035  -0.939  1.00  0.00     0.218 HD
ENDBRANCH  18  22
ENDBRANCH   4  14
BRANCH   8  24
HETATM   24  O17         0      45.702  15.973   9.389  1.00  0.00    -0.359 OA
HETATM   25  H17         0      44.774  16.125   9.517  1.00  0.00     0.218 HD
ENDBRANCH   8  24
TORSDOF 5
ENDMDL
MODEL 3
REMARK VINA RESULT:      -5.4      7.864     12.028
REMARK  5 active torsions:
REMARK  status: ('A' for Active; 'I' for Inactive)
REMARK    1  A    between atoms: C4_4  and  C5_5 
REMARK    2  A    between atoms: C8_8  and  O9_9 
REMARK    3  A    between atoms: C10_11  and  O11_12 
REMARK    4  A    between atoms: C16_18  and  O17_19 
REMARK    5  A    between atoms: C19_22  and  O20_23 
ROOT
HETATM    1  O1          0      45.550  18.918   2.940  1.00  0.00    -0.286 OA
HETATM    2  C2          0      46.213  17.851   3.061  1.00  0.00     0.201 C 
HETATM    3  C3          0      46.531  17.040   1.985  1.00  0.00     0.067 C 
HETATM    4  C4          0      47.173  15.818   2.158  1.00  0.00     0.103 C 
HETATM    5  O13         0      47.500  15.441   3.382  1.00  0.00    -0.307 OA
HETATM    6  C14         0      47.187  16.155   4.440  1.00  0.00     0.107 C 
HETATM    7  C15         0      47.159  15.603   5.713  1.00  0.00     0.049 C 
HETATM    8  C16         0      46.588  16.282   6.782  1.00  0.00     0.093 C 
HETATM    9  C18         0      46.551  17.665   6.647  1.00  0.00     0.048 C 
HETATM   10  C19         0      46.624  18.253   5.391  1.00  0.00     0.096 C 
HETATM   11  C21         0      46.750  17.466   4.279  1.00  0.00     0.084 C 
ENDROOT
BRANCH  10  12
HETATM   12  O20         0      46.158  19.553   5.221  1.00  0.00    -0.359 OA
HETATM   13  H20         0      46.338  19.986   4.396  1.00  0.00     0.218 HD
ENDBRANCH  10  12
BRANCH   4  14
HETATM   14  C5          0      46.942  14.790   1.142  1.00  0.00     0.025 C 
HETATM   15  C6          0      45.724  14.142   0.991  1.00  0.00     0.004 C 
HETATM   16  C7          0      45.300  13.860  -0.304  1.00  0.00     0.026 C 
HETATM   17  C8          0      46.116  14.092  -1.406  1.00  0.00     0.112 C 
HETATM   18  C10         0      47.476  14.127  -1.123  1.00  0.00     0.112 C 
HETATM   19  C12         0      47.875  14.495   0.156  1.00  0.00     0.028 C 
BRANCH  17  20
HETATM   20  O9          0      45.575  14.465  -2.623  1.00  0.00    -0.357 OA
HETATM   21  H9          0      45.485  15.368  -2.907  1.00  0.00     0.218 HD
ENDBRANCH  17  20
BRANCH  18  22
HETATM   22  O11         0      48.342  14.166  -2.207  1.00  0.00    -0.357 OA
HETATM   23  H11         0      48.285  13.450  -2.828  1.00  0.00     0.218 HD
ENDBRANCH  18  22
ENDBRANCH   4  14
BRANCH   8  24
HETATM   24  O17         0      45.819  15.616   7.742  1.00  0.00    -0.359 OA
HETATM   25  H17         0      46.152  14.861   8.213  1.00  0.00     0.218 HD
ENDBRANCH   8  24
TORSDOF 5
ENDMDL
MODEL 4
REMARK VINA RESULT:      -5.3      7.234     11.573
REMARK  5 active torsions:
REMARK  status: ('A' for Active; 'I' for Inactive)
REMARK    1  A    between atoms: C4_4  and  C5_5 
REMARK    2  A    between atoms: C8_8  and  O9_9 
REMARK    3  A    between atoms: C10_11  and  O11_12 
REMARK    4  A    between atoms: C16_18  and  O17_19 
REMARK    5  A    between atoms: C19_22  and  O20_23 
ROOT
HETATM    1  O1          0      48.226  14.634   5.474  1.00  0.00    -0.286 OA
HETATM    2  C2          0      47.425  14.827   4.519  1.00  0.00     0.201 C 
HETATM    3  C3          0      47.308  13.957   3.449  1.00  0.00     0.067 C 
HETATM    4  C4          0      46.492  14.244   2.361  1.00  0.00     0.103 C 
HETATM    5  O13         0      45.800  15.370   2.367  1.00  0.00    -0.307 OA
HETATM    6  C14         0      45.902  16.249   3.340  1.00  0.00     0.107 C 
HETATM    7  C15         0      45.512  17.570   3.176  1.00  0.00     0.049 C 
HETATM    8  C16         0      45.854  18.544   4.106  1.00  0.00     0.093 C 
HETATM    9  C18         0      46.104  18.070   5.388  1.00  0.00     0.048 C 
HETATM   10  C19         0      46.452  16.742   5.593  1.00  0.00     0.096 C 
HETATM   11  C21         0      46.532  15.888   4.527  1.00  0.00     0.084 C 
ENDROOT
BRANCH  10  12
HETATM   12  O20         0      47.110  16.384   6.766  1.00  0.00    -0.359 OA
HETATM   13  H20         0      46.622  16.423   7.580  1.00  0.00     0.218 HD
ENDBRANCH  10  12
BRANCH   4  14
HETATM   14  C5          0      46.856  13.648   1.075  1.00  0.00     0.025 C 
HETATM   15  C6          0      46.344  12.435   0.637  1.00  0.00     0.004 C 
HETATM   16  C7          0      46.043  12.314  -0.716  1.00  0.00     0.026 C 
HETATM   17  C8          0      46.365  13.313  -1.628  1.00  0.00     0.112 C 
HETATM   18  C10         0      47.398  14.151  -1.229  1.00  0.00     0.112 C 
HETATM   19  C12         0      47.623  14.321   0.132  1.00  0.00     0.028 C 
BRANCH  17  20
HETATM   20  O9          0      45.562  13.555  -2.728  1.00  0.00    -0.357 OA
HETATM   21  H9          0      45.519  12.983  -3.486  1.00  0.00     0.218 HD
ENDBRANCH  17  20
BRANCH  18  22
HETATM   22  O11         0      47.885  15.042  -2.174  1.00  0.00    -0.357 OA
HETATM   23  H11         0      48.590  14.735  -2.733  1.00  0.00     0.218 HD
ENDBRANCH  18  22
ENDBRANCH   4  14
BRANCH   8  24
HETATM   24  O17         0      46.242  19.828   3.708  1.00  0.00    -0.359 OA
HETATM   25  H17         0      46.660  19.986   2.869  1.00  0.00     0.218 HD
ENDBRANCH   8  24
TORSDOF 5
ENDMDL
MODEL 5
REMARK VINA RESULT:      -5.0      9.037     12.178
REMARK  5 active torsions:
REMARK  status: ('A' for Active; 'I' for Inactive)
REMARK    1  A    between atoms: C4_4  and  C5_5 
REMARK    2  A    between atoms: C8_8  and  O9_9 
REMARK    3  A    between atoms: C10_11  and  O11_12 
REMARK    4  A    between atoms: C16_18  and  O17_19 
REMARK    5  A    between atoms: C19_22  and  O20_23 
ROOT
HETATM    1  O1          0      44.875  14.595   6.605  1.00  0.00    -0.286 OA
HETATM    2  C2          0      46.040  14.680   6.129  1.00  0.00     0.201 C 
HETATM    3  C3          0      46.288  14.960   4.796  1.00  0.00     0.067 C 
HETATM    4  C4          0      47.577  14.947   4.275  1.00  0.00     0.103 C 
HETATM    5  O13         0      48.586  14.680   5.086  1.00  0.00    -0.307 OA
HETATM    6  C14         0      48.403  14.371   6.351  1.00  0.00     0.107 C 
HETATM    7  C15         0      49.375  13.714   7.091  1.00  0.00     0.049 C 
HETATM    8  C16         0      49.088  13.167   8.336  1.00  0.00     0.093 C 
HETATM    9  C18         0      48.016  13.750   9.000  1.00  0.00     0.048 C 
HETATM   10  C19         0      47.049  14.455   8.296  1.00  0.00     0.096 C 
HETATM   11  C21         0      47.162  14.592   6.939  1.00  0.00     0.084 C 
ENDROOT
BRANCH  10  12
HETATM   12  O20         0      45.796  14.649   8.869  1.00  0.00    -0.359 OA
HETATM   13  H20         0      45.510  15.542   9.023  1.00  0.00     0.218 HD
ENDBRANCH  10  12
BRANCH   4  14
HETATM   14  C5          0      47.721  14.648   2.849  1.00  0.00     0.025 C 
HETATM   15  C6          0      47.416  13.409   2.306  1.00  0.00     0.004 C 
HETATM   16  C7          0      46.808  13.385   1.055  1.00  0.00     0.026 C 
HETATM   17  C8          0      46.630  14.545   0.308  1.00  0.00     0.112 C 
HETATM   18  C10         0      47.501  15.578   0.627  1.00  0.00     0.112 C 
HETATM   19  C12         0      48.028  15.626   1.912  1.00  0.00     0.028 C 
BRANCH  17  20
HETATM   20  O9          0      45.532  14.693  -0.520  1.00  0.00    -0.357 OA
HETATM   21  H9          0      44.745  14.164  -0.453  1.00  0.00     0.218 HD
ENDBRANCH  17  20
BRANCH  18  22
HETATM   22  O11         0      47.494  16.686  -0.210  1.00  0.00    -0.357 OA
HETATM   23  H11         0      48.189  17.322  -0.087  1.00  0.00     0.218 HD
ENDBRANCH  18  22
ENDBRANCH   4  14
BRANCH   8  24
HETATM   24  O17         0      49.611  11.930   8.727  1.00  0.00    -0.359 OA
HETATM   25  H17         0      49.064  11.156   8.793  1.00  0.00     0.218 HD
ENDBRANCH   8  24
TORSDOF 5
ENDMDL
MODEL 6
REMARK VINA RESULT:      -5.0      6.606      9.457
REMARK  5 active torsions:
REMARK  status: ('A' for Active; 'I' for Inactive)
REMARK    1  A    between atoms: C4_4  and  C5_5 
REMARK    2  A    between atoms: C8_8  and  O9_9 
REMARK    3  A    between atoms: C10_11  and  O11_12 
REMARK    4  A    between atoms: C16_18  and  O17_19 
REMARK    5  A    between atoms: C19_22  and  O20_23 
ROOT
HETATM    1  O1          0      43.570  16.233  -0.750  1.00  0.00    -0.286 OA
HETATM    2  C2          0      44.796  16.330  -1.029  1.00  0.00     0.201 C 
HETATM    3  C3          0      45.367  17.497  -1.508  1.00  0.00     0.067 C 
HETATM    4  C4          0      46.698  17.547  -1.905  1.00  0.00     0.103 C 
HETATM    5  O13         0      47.434  16.455  -1.800  1.00  0.00    -0.307 OA
HETATM    6  C14         0      46.932  15.311  -1.387  1.00  0.00     0.107 C 
HETATM    7  C15         0      47.560  14.102  -1.647  1.00  0.00     0.049 C 
HETATM    8  C16         0      46.910  12.892  -1.437  1.00  0.00     0.093 C 
HETATM    9  C18         0      45.884  12.931  -0.501  1.00  0.00     0.048 C 
HETATM   10  C19         0      45.265  14.133  -0.183  1.00  0.00     0.096 C 
HETATM   11  C21         0      45.680  15.290  -0.783  1.00  0.00     0.084 C 
ENDROOT
BRANCH  10  12
HETATM   12  O20         0      43.998  14.114   0.392  1.00  0.00    -0.359 OA
HETATM   13  H20         0      43.636  14.936   0.700  1.00  0.00     0.218 HD
ENDBRANCH  10  12
BRANCH   4  14
HETATM   14  C5          0      47.059  18.545  -2.914  1.00  0.00     0.025 C 
HETATM   15  C6          0      48.130  19.414  -2.763  1.00  0.00     0.004 C 
HETATM   16  C7          0      48.887  19.706  -3.892  1.00  0.00     0.026 C 
HETATM   17  C8          0      48.516  19.258  -5.155  1.00  0.00     0.112 C 
HETATM   18  C10         0      47.165  18.968  -5.294  1.00  0.00     0.112 C 
HETATM   19  C12         0      46.450  18.597  -4.161  1.00  0.00     0.028 C 
BRANCH  17  20
HETATM   20  O9          0      49.472  18.937  -6.103  1.00  0.00    -0.357 OA
HETATM   21  H9          0      50.368  19.251  -6.076  1.00  0.00     0.218 HD
ENDBRANCH  17  20
BRANCH  18  22
HETATM   22  O11         0      46.708  18.700  -6.576  1.00  0.00    -0.357 OA
HETATM   23  H11         0      46.666  17.787  -6.836  1.00  0.00     0.218 HD
ENDBRANCH  18  22
ENDBRANCH   4  14
BRANCH   8  24
HETATM   24  O17         0      47.049  11.824  -2.332  1.00  0.00    -0.359 OA
HETATM   25  H17         0      47.793  11.235  -2.294  1.00  0.00     0.218 HD
ENDBRANCH   8  24
TORSDOF 5
ENDMDL
MODEL 7
REMARK VINA RESULT:      -4.9     11.664     14.500
REMARK  5 active torsions:
REMARK  status: ('A' for Active; 'I' for Inactive)
REMARK    1  A    between atoms: C4_4  and  C5_5 
REMARK    2  A    between atoms: C8_8  and  O9_9 
REMARK    3  A    between atoms: C10_11  and  O11_12 
REMARK    4  A    between atoms: C16_18  and  O17_19 
REMARK    5  A    between atoms: C19_22  and  O20_23 
ROOT
HETATM    1  O1          0      45.192  14.563   3.882  1.00  0.00    -0.286 OA
HETATM    2  C2          0      45.929  15.027   4.795  1.00  0.00     0.201 C 
HETATM    3  C3          0      46.407  14.254   5.839  1.00  0.00     0.067 C 
HETATM    4  C4          0      47.132  14.812   6.887  1.00  0.00     0.103 C 
HETATM    5  O13         0      47.383  16.109   6.865  1.00  0.00    -0.307 OA
HETATM    6  C14         0      46.921  16.894   5.917  1.00  0.00     0.107 C 
HETATM    7  C15         0      46.831  18.268   6.086  1.00  0.00     0.049 C 
HETATM    8  C16         0      46.115  19.059   5.195  1.00  0.00     0.093 C 
HETATM    9  C18         0      45.973  18.526   3.920  1.00  0.00     0.048 C 
HETATM   10  C19         0      46.103  17.160   3.708  1.00  0.00     0.096 C 
HETATM   11  C21         0      46.390  16.334   4.760  1.00  0.00     0.084 C 
ENDROOT
BRANCH  10  12
HETATM   12  O20         0      45.545  16.593   2.566  1.00  0.00    -0.359 OA
HETATM   13  H20         0      45.148  15.734   2.644  1.00  0.00     0.218 HD
ENDBRANCH  10  12
BRANCH   4  14
HETATM   14  C5          0      47.077  14.126   8.179  1.00  0.00     0.025 C 
HETATM   15  C6          0      45.883  13.804   8.809  1.00  0.00     0.004 C 
HETATM   16  C7          0      45.816  12.586   9.479  1.00  0.00     0.026 C 
HETATM   17  C8          0      46.935  11.775   9.632  1.00  0.00     0.112 C 
HETATM   18  C10         0      48.150  12.442   9.545  1.00  0.00     0.112 C 
HETATM   19  C12         0      48.209  13.613   8.798  1.00  0.00     0.028 C 
BRANCH  17  20
HETATM   20  O9          0      46.814  10.397   9.654  1.00  0.00    -0.357 OA
HETATM   21  H9          0      47.545   9.801   9.534  1.00  0.00     0.218 HD
ENDBRANCH  17  20
BRANCH  18  22
HETATM   22  O11         0      49.288  11.720   9.877  1.00  0.00    -0.357 OA
HETATM   23  H11         0      49.610  11.104   9.230  1.00  0.00     0.218 HD
ENDBRANCH  18  22
ENDBRANCH   4  14
BRANCH   8  24
HETATM   24  O17         0      45.324  20.125   5.639  1.00  0.00    -0.359 OA
HETATM   25  H17         0      45.070  20.833   5.060  1.00  0.00     0.218 HD
ENDBRANCH   8  24
TORSDOF 5
ENDMDL
MODEL 8
REMARK VINA RESULT:      -4.8     11.549     13.511
REMARK  5 active torsions:
REMARK  status: ('A' for Active; 'I' for Inactive)
REMARK    1  A    between atoms: C4_4  and  C5_5 
REMARK    2  A    between atoms: C8_8  and  O9_9 
REMARK    3  A    between atoms: C10_11  and  O11_12 
REMARK    4  A    between atoms: C16_18  and  O17_19 
REMARK    5  A    between atoms: C19_22  and  O20_23 
ROOT
HETATM    1  O1          0      43.596  19.578   2.315  1.00  0.00    -0.286 OA
HETATM    2  C2          0      44.506  18.712   2.425  1.00  0.00     0.201 C 
HETATM    3  C3          0      44.839  18.121   3.632  1.00  0.00     0.067 C 
HETATM    4  C4          0      45.913  17.246   3.743  1.00  0.00     0.103 C 
HETATM    5  O13         0      46.615  16.962   2.660  1.00  0.00    -0.307 OA
HETATM    6  C14         0      46.365  17.523   1.497  1.00  0.00     0.107 C 
HETATM    7  C15         0      47.308  17.549   0.480  1.00  0.00     0.049 C 
HETATM    8  C16         0      47.139  18.355  -0.640  1.00  0.00     0.093 C 
HETATM    9  C18         0      45.822  18.683  -0.934  1.00  0.00     0.048 C 
HETATM   10  C19         0      44.843  18.623   0.049  1.00  0.00     0.096 C 
HETATM   11  C21         0      45.176  18.221   1.314  1.00  0.00     0.084 C 
ENDROOT
BRANCH  10  12
HETATM   12  O20         0      43.666  19.346  -0.117  1.00  0.00    -0.359 OA
HETATM   13  H20         0      43.144  19.530   0.654  1.00  0.00     0.218 HD
ENDBRANCH  10  12
BRANCH   4  14
HETATM   14  C5          0      46.564  17.146   5.050  1.00  0.00     0.025 C 
HETATM   15  C6          0      46.571  18.187   5.967  1.00  0.00     0.004 C 
HETATM   16  C7          0      46.435  17.861   7.313  1.00  0.00     0.026 C 
HETATM   17  C8          0      46.428  16.540   7.747  1.00  0.00     0.112 C 
HETATM   18  C10         0      47.045  15.644   6.884  1.00  0.00     0.112 C 
HETATM   19  C12         0      47.092  15.955   5.531  1.00  0.00     0.028 C 
BRANCH  17  20
HETATM   20  O9          0      45.674  16.157   8.842  1.00  0.00    -0.357 OA
HETATM   21  H9          0      46.038  15.738   9.613  1.00  0.00     0.218 HD
ENDBRANCH  17  20
BRANCH  18  22
HETATM   22  O11         0      47.233  14.350   7.351  1.00  0.00    -0.357 OA
HETATM   23  H11         0      46.887  14.150   8.213  1.00  0.00     0.218 HD
ENDBRANCH  18  22
ENDBRANCH   4  14
BRANCH   8  24
HETATM   24  O17         0      48.215  19.047  -1.209  1.00  0.00    -0.359 OA
HETATM   25  H17         0      48.489  18.893  -2.105  1.00  0.00     0.218 HD
ENDBRANCH   8  24
TORSDOF 5
ENDMDL
MODEL 9
REMARK VINA RESULT:      -4.8      7.282     10.776
REMARK  5 active torsions:
REMARK  status: ('A' for Active; 'I' for Inactive)
REMARK    1  A    between atoms: C4_4  and  C5_5 
REMARK    2  A    between atoms: C8_8  and  O9_9 
REMARK    3  A    between atoms: C10_11  and  O11_12 
REMARK    4  A    between atoms: C16_18  and  O17_19 
REMARK    5  A    between atoms: C19_22  and  O20_23 
ROOT
HETATM    1  O1          0      44.215  13.418   4.892  1.00  0.00    -0.286 OA
HETATM    2  C2          0      45.244  13.866   4.316  1.00  0.00     0.201 C 
HETATM    3  C3          0      45.412  13.824   2.942  1.00  0.00     0.067 C 
HETATM    4  C4          0      46.598  14.230   2.341  1.00  0.00     0.103 C 
HETATM    5  O13         0      47.575  14.684   3.106  1.00  0.00    -0.307 OA
HETATM    6  C14         0      47.481  14.710   4.418  1.00  0.00     0.107 C 
HETATM    7  C15         0      48.603  14.797   5.229  1.00  0.00     0.049 C 
HETATM    8  C16         0      48.523  14.569   6.598  1.00  0.00     0.093 C 
HETATM    9  C18         0      47.269  14.783   7.156  1.00  0.00     0.048 C 
HETATM   10  C19         0      46.129  14.750   6.365  1.00  0.00     0.096 C 
HETATM   11  C21         0      46.242  14.521   5.021  1.00  0.00     0.084 C 
ENDROOT
BRANCH  10  12
HETATM   12  O20         0      44.892  14.529   6.962  1.00  0.00    -0.359 OA
HETATM   13  H20         0      44.262  13.992   6.497  1.00  0.00     0.218 HD
ENDBRANCH  10  12
BRANCH   4  14
HETATM   14  C5          0      46.937  13.625   1.051  1.00  0.00     0.025 C 
HETATM   15  C6          0      46.396  12.422   0.620  1.00  0.00     0.004 C 
HETATM   16  C7          0      46.080  12.306  -0.730  1.00  0.00     0.026 C 
HETATM   17  C8          0      46.411  13.298  -1.645  1.00  0.00     0.112 C 
HETATM   18  C10         0      47.465  14.115  -1.258  1.00  0.00     0.112 C 
HETATM   19  C12         0      47.707  14.282   0.100  1.00  0.00     0.028 C 
BRANCH  17  20
HETATM   20  O9          0      45.602  13.554  -2.738  1.00  0.00    -0.357 OA
HETATM   21  H9          0      45.390  12.907  -3.401  1.00  0.00     0.218 HD
ENDBRANCH  17  20
BRANCH  18  22
HETATM   22  O11         0      47.959  14.996  -2.210  1.00  0.00    -0.357 OA
HETATM   23  H11         0      48.862  14.874  -2.481  1.00  0.00     0.218 HD
ENDBRANCH  18  22
ENDBRANCH   4  14
BRANCH   8  24
HETATM   24  O17         0      49.520  13.862   7.279  1.00  0.00    -0.359 OA
HETATM   25  H17         0      49.864  14.161   8.112  1.00  0.00     0.218 HD
ENDBRANCH   8  24
TORSDOF 5
ENDMDL
