MODEL 1
REMARK VINA RESULT:      -8.1      0.000      0.000
REMARK  5 active torsions:
REMARK  status: ('A' for Active; 'I' for Inactive)
REMARK    1  A    between atoms: C4_4  and  C5_5 
REMARK    2  A    between atoms: C8_8  and  O9_9 
REMARK    3  A    between atoms: C10_11  and  O11_12 
REMARK    4  A    between atoms: C16_18  and  O17_19 
REMARK    5  A    between atoms: C19_22  and  O20_23 
ROOT
HETATM    1  O1          0      20.326  75.018  -3.341  1.00  0.00    -0.286 OA
HETATM    2  C2          0      20.285  76.212  -3.747  1.00  0.00     0.201 C 
HETATM    3  C3          0      21.256  76.758  -4.569  1.00  0.00     0.067 C 
HETATM    4  C4          0      21.241  78.104  -4.918  1.00  0.00     0.103 C 
HETATM    5  O13         0      20.262  78.867  -4.465  1.00  0.00    -0.307 OA
HETATM    6  C14         0      19.338  78.407  -3.651  1.00  0.00     0.107 C 
HETATM    7  C15         0      18.566  79.254  -2.868  1.00  0.00     0.049 C 
HETATM    8  C16         0      17.778  78.763  -1.834  1.00  0.00     0.093 C 
HETATM    9  C18         0      17.395  77.434  -1.969  1.00  0.00     0.048 C 
HETATM   10  C19         0      18.117  76.570  -2.781  1.00  0.00     0.096 C 
HETATM   11  C21         0      19.205  77.035  -3.468  1.00  0.00     0.084 C 
ENDROOT
BRANCH  10  12
HETATM   12  O20         0      18.010  75.198  -2.579  1.00  0.00    -0.359 OA
HETATM   13  H20         0      17.160  74.794  -2.705  1.00  0.00     0.218 HD
ENDBRANCH  10  12
BRANCH   4  14
HETATM   14  C5          0      22.527  78.725  -5.242  1.00  0.00     0.025 C 
HETATM   15  C6          0      23.029  79.818  -4.552  1.00  0.00     0.004 C 
HETATM   16  C7          0      24.399  79.854  -4.309  1.00  0.00     0.026 C 
HETATM   17  C8          0      25.260  78.905  -4.850  1.00  0.00     0.112 C 
HETATM   18  C10         0      24.783  78.272  -5.990  1.00  0.00     0.112 C 
HETATM   19  C12         0      23.407  78.176  -6.165  1.00  0.00     0.028 C 
BRANCH  17  20
HETATM   20  O9          0      26.391  78.501  -4.163  1.00  0.00    -0.357 OA
HETATM   21  H9          0      27.277  78.651  -4.471  1.00  0.00     0.218 HD
ENDBRANCH  17  20
BRANCH  18  22
HETATM   22  O11         0      25.673  77.458  -6.676  1.00  0.00    -0.357 OA
HETATM   23  H11         0      26.201  76.864  -6.156  1.00  0.00     0.218 HD
ENDBRANCH  18  22
ENDBRANCH   4  14
BRANCH   8  24
HETATM   24  O17         0      17.671  79.439  -0.614  1.00  0.00    -0.359 OA
HETATM   25  H17         0      17.349  79.009   0.169  1.00  0.00     0.218 HD
ENDBRANCH   8  24
TORSDOF 5
ENDMDL
MODEL 2
REMARK VINA RESULT:      -8.0     15.586     18.243
REMARK  5 active torsions:
REMARK  status: ('A' for Active; 'I' for Inactive)
REMARK    1  A    between atoms: C4_4  and  C5_5 
REMARK    2  A    between atoms: C8_8  and  O9_9 
REMARK    3  A    between atoms: C10_11  and  O11_12 
REMARK    4  A    between atoms: C16_18  and  O17_19 
REMARK    5  A    between atoms: C19_22  and  O20_23 
ROOT
HETATM    1  O1          0      27.355  65.274 -10.260  1.00  0.00    -0.286 OA
HETATM    2  C2          0      26.739  64.303 -10.777  1.00  0.00     0.201 C 
HETATM    3  C3          0      25.357  64.208 -10.783  1.00  0.00     0.067 C 
HETATM    4  C4          0      24.706  63.079 -11.268  1.00  0.00     0.103 C 
HETATM    5  O13         0      25.432  62.087 -11.752  1.00  0.00    -0.307 OA
HETATM    6  C14         0      26.747  62.110 -11.736  1.00  0.00     0.107 C 
HETATM    7  C15         0      27.500  60.951 -11.859  1.00  0.00     0.049 C 
HETATM    8  C16         0      28.863  60.944 -11.589  1.00  0.00     0.093 C 
HETATM    9  C18         0      29.494  62.175 -11.722  1.00  0.00     0.048 C 
HETATM   10  C19         0      28.764  63.354 -11.650  1.00  0.00     0.096 C 
HETATM   11  C21         0      27.409  63.302 -11.465  1.00  0.00     0.084 C 
ENDROOT
BRANCH  10  12
HETATM   12  O20         0      29.419  64.543 -11.347  1.00  0.00    -0.359 OA
HETATM   13  H20         0      28.899  65.268 -11.024  1.00  0.00     0.218 HD
ENDBRANCH  10  12
BRANCH   4  14
HETATM   14  C5          0      23.383  62.781 -10.718  1.00  0.00     0.025 C 
HETATM   15  C6          0      23.181  61.856  -9.704  1.00  0.00     0.004 C 
HETATM   16  C7          0      22.227  62.158  -8.736  1.00  0.00     0.026 C 
HETATM   17  C8          0      21.407  63.276  -8.845  1.00  0.00     0.112 C 
HETATM   18  C10         0      21.244  63.752 -10.139  1.00  0.00     0.112 C 
HETATM   19  C12         0      22.252  63.509 -11.064  1.00  0.00     0.028 C 
BRANCH  17  20
HETATM   20  O9          0      20.983  63.956  -7.717  1.00  0.00    -0.357 OA
HETATM   21  H9          0      21.510  64.058  -6.932  1.00  0.00     0.218 HD
ENDBRANCH  17  20
BRANCH  18  22
HETATM   22  O11         0      20.291  64.744 -10.328  1.00  0.00    -0.357 OA
HETATM   23  H11         0      20.425  65.334 -11.061  1.00  0.00     0.218 HD
ENDBRANCH  18  22
ENDBRANCH   4  14
BRANCH   8  24
HETATM   24  O17         0      29.468  59.876 -10.917  1.00  0.00    -0.359 OA
HETATM   25  H17         0      30.098  60.017 -10.221  1.00  0.00     0.218 HD
ENDBRANCH   8  24
TORSDOF 5
ENDMDL
MODEL 3
REMARK VINA RESULT:      -7.8     14.365     16.895
REMARK  5 active torsions:
REMARK  status: ('A' for Active; 'I' for Inactive)
REMARK    1  A    between atoms: C4_4  and  C5_5 
REMARK    2  A    between atoms: C8_8  and  O9_9 
REMARK    3  A    between atoms: C10_11  and  O11_12 
REMARK    4  A    between atoms: C16_18  and  O17_19 
REMARK    5  A    between atoms: C19_22  and  O20_23 
ROOT
HETATM    1  O1          0      25.948  61.759 -12.483  1.00  0.00    -0.286 OA
HETATM    2  C2          0      25.714  62.421 -11.435  1.00  0.00     0.201 C 
HETATM    3  C3          0      24.500  62.368 -10.770  1.00  0.00     0.067 C 
HETATM    4  C4          0      24.233  63.184  -9.677  1.00  0.00     0.103 C 
HETATM    5  O13         0      25.173  64.013  -9.258  1.00  0.00    -0.307 OA
HETATM    6  C14         0      26.328  64.129  -9.876  1.00  0.00     0.107 C 
HETATM    7  C15         0      27.139  65.242  -9.705  1.00  0.00     0.049 C 
HETATM    8  C16         0      28.223  65.480 -10.542  1.00  0.00     0.093 C 
HETATM    9  C18         0      28.748  64.350 -11.158  1.00  0.00     0.048 C 
HETATM   10  C19         0      27.979  63.204 -11.304  1.00  0.00     0.096 C 
HETATM   11  C21         0      26.699  63.180 -10.822  1.00  0.00     0.084 C 
ENDROOT
BRANCH  10  12
HETATM   12  O20         0      28.330  62.268 -12.272  1.00  0.00    -0.359 OA
HETATM   13  H20         0      28.939  62.535 -12.949  1.00  0.00     0.218 HD
ENDBRANCH  10  12
BRANCH   4  14
HETATM   14  C5          0      22.831  63.521  -9.420  1.00  0.00     0.025 C 
HETATM   15  C6          0      22.408  64.137  -8.251  1.00  0.00     0.004 C 
HETATM   16  C7          0      21.403  65.093  -8.354  1.00  0.00     0.026 C 
HETATM   17  C8          0      20.746  65.335  -9.556  1.00  0.00     0.112 C 
HETATM   18  C10         0      20.781  64.280 -10.458  1.00  0.00     0.112 C 
HETATM   19  C12         0      21.844  63.386 -10.387  1.00  0.00     0.028 C 
BRANCH  17  20
HETATM   20  O9          0      20.293  66.603  -9.874  1.00  0.00    -0.357 OA
HETATM   21  H9          0      19.548  66.771 -10.439  1.00  0.00     0.218 HD
ENDBRANCH  17  20
BRANCH  18  22
HETATM   22  O11         0      19.987  64.393 -11.589  1.00  0.00    -0.357 OA
HETATM   23  H11         0      19.046  64.406 -11.455  1.00  0.00     0.218 HD
ENDBRANCH  18  22
ENDBRANCH   4  14
BRANCH   8  24
HETATM   24  O17         0      28.532  66.771 -10.986  1.00  0.00    -0.359 OA
HETATM   25  H17         0      28.910  66.927 -11.843  1.00  0.00     0.218 HD
ENDBRANCH   8  24
TORSDOF 5
ENDMDL
MODEL 4
REMARK VINA RESULT:      -7.4     12.645     14.733
REMARK  5 active torsions:
REMARK  status: ('A' for Active; 'I' for Inactive)
REMARK    1  A    between atoms: C4_4  and  C5_5 
REMARK    2  A    between atoms: C8_8  and  O9_9 
REMARK    3  A    between atoms: C10_11  and  O11_12 
REMARK    4  A    between atoms: C16_18  and  O17_19 
REMARK    5  A    between atoms: C19_22  and  O20_23 
ROOT
HETATM    1  O1          0      19.856  65.575  -8.653  1.00  0.00    -0.286 OA
HETATM    2  C2          0      20.857  64.914  -8.263  1.00  0.00     0.201 C 
HETATM    3  C3          0      21.258  64.869  -6.939  1.00  0.00     0.067 C 
HETATM    4  C4          0      22.423  64.217  -6.552  1.00  0.00     0.103 C 
HETATM    5  O13         0      23.148  63.611  -7.475  1.00  0.00    -0.307 OA
HETATM    6  C14         0      22.833  63.655  -8.751  1.00  0.00     0.107 C 
HETATM    7  C15         0      23.764  63.383  -9.744  1.00  0.00     0.049 C 
HETATM    8  C16         0      23.503  63.675 -11.077  1.00  0.00     0.093 C 
HETATM    9  C18         0      22.155  63.730 -11.413  1.00  0.00     0.048 C 
HETATM   10  C19         0      21.194  63.953 -10.438  1.00  0.00     0.096 C 
HETATM   11  C21         0      21.573  64.104  -9.132  1.00  0.00     0.084 C 
ENDROOT
BRANCH  10  12
HETATM   12  O20         0      19.943  64.434 -10.813  1.00  0.00    -0.359 OA
HETATM   13  H20         0      19.195  64.194 -10.279  1.00  0.00     0.218 HD
ENDBRANCH  10  12
BRANCH   4  14
HETATM   14  C5          0      23.086  64.695  -5.337  1.00  0.00     0.025 C 
HETATM   15  C6          0      23.570  63.839  -4.358  1.00  0.00     0.004 C 
HETATM   16  C7          0      24.772  64.176  -3.744  1.00  0.00     0.026 C 
HETATM   17  C8          0      25.405  65.388  -3.995  1.00  0.00     0.112 C 
HETATM   18  C10         0      24.567  66.394  -4.458  1.00  0.00     0.112 C 
HETATM   19  C12         0      23.414  66.030  -5.144  1.00  0.00     0.028 C 
BRANCH  17  20
HETATM   20  O9          0      26.785  65.484  -3.979  1.00  0.00    -0.357 OA
HETATM   21  H9          0      27.261  66.186  -3.551  1.00  0.00     0.218 HD
ENDBRANCH  17  20
BRANCH  18  22
HETATM   22  O11         0      25.106  67.670  -4.544  1.00  0.00    -0.357 OA
HETATM   23  H11         0      24.766  68.322  -3.943  1.00  0.00     0.218 HD
ENDBRANCH  18  22
ENDBRANCH   4  14
BRANCH   8  24
HETATM   24  O17         0      24.492  64.199 -11.916  1.00  0.00    -0.359 OA
HETATM   25  H17         0      25.337  64.474 -11.580  1.00  0.00     0.218 HD
ENDBRANCH   8  24
TORSDOF 5
ENDMDL
MODEL 5
REMARK VINA RESULT:      -7.4     11.656     13.413
REMARK  5 active torsions:
REMARK  status: ('A' for Active; 'I' for Inactive)
REMARK    1  A    between atoms: C4_4  and  C5_5 
REMARK    2  A    between atoms: C8_8  and  O9_9 
REMARK    3  A    between atoms: C10_11  and  O11_12 
REMARK    4  A    between atoms: C16_18  and  O17_19 
REMARK    5  A    between atoms: C19_22  and  O20_23 
ROOT
HETATM    1  O1          0      25.031  68.271  -4.991  1.00  0.00    -0.286 OA
HETATM    2  C2          0      24.544  67.109  -4.924  1.00  0.00     0.201 C 
HETATM    3  C3          0      23.735  66.576  -5.913  1.00  0.00     0.067 C 
HETATM    4  C4          0      23.127  65.334  -5.768  1.00  0.00     0.103 C 
HETATM    5  O13         0      23.351  64.644  -4.663  1.00  0.00    -0.307 OA
HETATM    6  C14         0      24.081  65.119  -3.678  1.00  0.00     0.107 C 
HETATM    7  C15         0      23.996  64.605  -2.392  1.00  0.00     0.049 C 
HETATM    8  C16         0      24.568  65.265  -1.312  1.00  0.00     0.093 C 
HETATM    9  C18         0      25.626  66.108  -1.632  1.00  0.00     0.048 C 
HETATM   10  C19         0      25.767  66.604  -2.921  1.00  0.00     0.096 C 
HETATM   11  C21         0      24.868  66.246  -3.888  1.00  0.00     0.084 C 
ENDROOT
BRANCH  10  12
HETATM   12  O20         0      26.528  67.750  -3.130  1.00  0.00    -0.359 OA
HETATM   13  H20         0      26.842  68.221  -2.367  1.00  0.00     0.218 HD
ENDBRANCH  10  12
BRANCH   4  14
HETATM   14  C5          0      21.879  65.109  -6.499  1.00  0.00     0.025 C 
HETATM   15  C6          0      20.657  64.934  -5.866  1.00  0.00     0.004 C 
HETATM   16  C7          0      19.537  65.506  -6.459  1.00  0.00     0.026 C 
HETATM   17  C8          0      19.603  66.117  -7.707  1.00  0.00     0.112 C 
HETATM   18  C10         0      20.657  65.692  -8.504  1.00  0.00     0.112 C 
HETATM   19  C12         0      21.800  65.203  -7.883  1.00  0.00     0.028 C 
BRANCH  17  20
HETATM   20  O9          0      18.799  67.201  -8.009  1.00  0.00    -0.357 OA
HETATM   21  H9          0      19.109  68.099  -8.027  1.00  0.00     0.218 HD
ENDBRANCH  17  20
BRANCH  18  22
HETATM   22  O11         0      20.662  66.125  -9.822  1.00  0.00    -0.357 OA
HETATM   23  H11         0      20.295  66.985  -9.994  1.00  0.00     0.218 HD
ENDBRANCH  18  22
ENDBRANCH   4  14
BRANCH   8  24
HETATM   24  O17         0      23.920  65.335  -0.073  1.00  0.00    -0.359 OA
HETATM   25  H17         0      24.193  65.949   0.598  1.00  0.00     0.218 HD
ENDBRANCH   8  24
TORSDOF 5
ENDMDL
MODEL 6
REMARK VINA RESULT:      -7.4     15.332     16.820
REMARK  5 active torsions:
REMARK  status: ('A' for Active; 'I' for Inactive)
REMARK    1  A    between atoms: C4_4  and  C5_5 
REMARK    2  A    between atoms: C8_8  and  O9_9 
REMARK    3  A    between atoms: C10_11  and  O11_12 
REMARK    4  A    between atoms: C16_18  and  O17_19 
REMARK    5  A    between atoms: C19_22  and  O20_23 
ROOT
HETATM    1  O1          0      24.021  64.063  -6.918  1.00  0.00    -0.286 OA
HETATM    2  C2          0      23.932  63.553  -8.069  1.00  0.00     0.201 C 
HETATM    3  C3          0      24.995  62.926  -8.696  1.00  0.00     0.067 C 
HETATM    4  C4          0      24.899  62.464 -10.004  1.00  0.00     0.103 C 
HETATM    5  O13         0      23.756  62.615 -10.649  1.00  0.00    -0.307 OA
HETATM    6  C14         0      22.728  63.236 -10.113  1.00  0.00     0.107 C 
HETATM    7  C15         0      21.696  63.746 -10.888  1.00  0.00     0.049 C 
HETATM    8  C16         0      20.753  64.614 -10.354  1.00  0.00     0.093 C 
HETATM    9  C18         0      20.577  64.516  -8.979  1.00  0.00     0.048 C 
HETATM   10  C19         0      21.570  63.968  -8.178  1.00  0.00     0.096 C 
HETATM   11  C21         0      22.724  63.506  -8.749  1.00  0.00     0.084 C 
ENDROOT
BRANCH  10  12
HETATM   12  O20         0      21.587  64.263  -6.818  1.00  0.00    -0.359 OA
HETATM   13  H20         0      20.766  64.216  -6.342  1.00  0.00     0.218 HD
ENDBRANCH  10  12
BRANCH   4  14
HETATM   14  C5          0      26.139  62.384 -10.779  1.00  0.00     0.025 C 
HETATM   15  C6          0      27.335  62.938 -10.343  1.00  0.00     0.004 C 
HETATM   16  C7          0      28.504  62.228 -10.598  1.00  0.00     0.026 C 
HETATM   17  C8          0      28.503  61.075 -11.376  1.00  0.00     0.112 C 
HETATM   18  C10         0      27.433  60.970 -12.255  1.00  0.00     0.112 C 
HETATM   19  C12         0      26.248  61.621 -11.934  1.00  0.00     0.028 C 
BRANCH  17  20
HETATM   20  O9          0      29.388  60.044 -11.116  1.00  0.00    -0.357 OA
HETATM   21  H9          0      29.706  59.827 -10.248  1.00  0.00     0.218 HD
ENDBRANCH  17  20
BRANCH  18  22
HETATM   22  O11         0      27.482  59.940 -13.183  1.00  0.00    -0.357 OA
HETATM   23  H11         0      27.853  60.145 -14.034  1.00  0.00     0.218 HD
ENDBRANCH  18  22
ENDBRANCH   4  14
BRANCH   8  24
HETATM   24  O17         0      20.279  65.713 -11.079  1.00  0.00    -0.359 OA
HETATM   25  H17         0      19.600  65.622 -11.737  1.00  0.00     0.218 HD
ENDBRANCH   8  24
TORSDOF 5
ENDMDL
MODEL 7
REMARK VINA RESULT:      -7.3     11.944     13.786
REMARK  5 active torsions:
REMARK  status: ('A' for Active; 'I' for Inactive)
REMARK    1  A    between atoms: C4_4  and  C5_5 
REMARK    2  A    between atoms: C8_8  and  O9_9 
REMARK    3  A    between atoms: C10_11  and  O11_12 
REMARK    4  A    between atoms: C16_18  and  O17_19 
REMARK    5  A    between atoms: C19_22  and  O20_23 
ROOT
HETATM    1  O1          0      21.197  67.739  -7.792  1.00  0.00    -0.286 OA
HETATM    2  C2          0      21.521  66.604  -7.347  1.00  0.00     0.201 C 
HETATM    3  C3          0      22.034  66.415  -6.075  1.00  0.00     0.067 C 
HETATM    4  C4          0      22.479  65.170  -5.647  1.00  0.00     0.103 C 
HETATM    5  O13         0      22.386  64.143  -6.474  1.00  0.00    -0.307 OA
HETATM    6  C14         0      21.941  64.275  -7.704  1.00  0.00     0.107 C 
HETATM    7  C15         0      22.208  63.329  -8.683  1.00  0.00     0.049 C 
HETATM    8  C16         0      21.960  63.589 -10.025  1.00  0.00     0.093 C 
HETATM    9  C18         0      20.989  64.553 -10.267  1.00  0.00     0.048 C 
HETATM   10  C19         0      20.664  65.487  -9.292  1.00  0.00     0.096 C 
HETATM   11  C21         0      21.293  65.447  -8.077  1.00  0.00     0.084 C 
ENDROOT
BRANCH  10  12
HETATM   12  O20         0      20.044  66.675  -9.667  1.00  0.00    -0.359 OA
HETATM   13  H20         0      19.693  66.735 -10.548  1.00  0.00     0.218 HD
ENDBRANCH  10  12
BRANCH   4  14
HETATM   14  C5          0      23.512  65.148  -4.610  1.00  0.00     0.025 C 
HETATM   15  C6          0      24.818  64.750  -4.857  1.00  0.00     0.004 C 
HETATM   16  C7          0      25.837  65.446  -4.215  1.00  0.00     0.026 C 
HETATM   17  C8          0      25.565  66.416  -3.256  1.00  0.00     0.112 C 
HETATM   18  C10         0      24.328  66.291  -2.639  1.00  0.00     0.112 C 
HETATM   19  C12         0      23.302  65.666  -3.338  1.00  0.00     0.028 C 
BRANCH  17  20
HETATM   20  O9          0      26.389  67.518  -3.109  1.00  0.00    -0.357 OA
HETATM   21  H9          0      27.305  67.530  -3.361  1.00  0.00     0.218 HD
ENDBRANCH  17  20
BRANCH  18  22
HETATM   22  O11         0      24.083  67.113  -1.548  1.00  0.00    -0.357 OA
HETATM   23  H11         0      23.394  66.843  -0.952  1.00  0.00     0.218 HD
ENDBRANCH  18  22
ENDBRANCH   4  14
BRANCH   8  24
HETATM   24  O17         0      22.845  63.171 -11.025  1.00  0.00    -0.359 OA
HETATM   25  H17         0      22.682  63.350 -11.943  1.00  0.00     0.218 HD
ENDBRANCH   8  24
TORSDOF 5
ENDMDL
MODEL 8
REMARK VINA RESULT:      -7.2      3.722      6.397
REMARK  5 active torsions:
REMARK  status: ('A' for Active; 'I' for Inactive)
REMARK    1  A    between atoms: C4_4  and  C5_5 
REMARK    2  A    between atoms: C8_8  and  O9_9 
REMARK    3  A    between atoms: C10_11  and  O11_12 
REMARK    4  A    between atoms: C16_18  and  O17_19 
REMARK    5  A    between atoms: C19_22  and  O20_23 
ROOT
HETATM    1  O1          0      22.245  75.213  -4.877  1.00  0.00    -0.286 OA
HETATM    2  C2          0      21.931  75.504  -3.690  1.00  0.00     0.201 C 
HETATM    3  C3          0      22.085  74.621  -2.635  1.00  0.00     0.067 C 
HETATM    4  C4          0      21.637  74.928  -1.356  1.00  0.00     0.103 C 
HETATM    5  O13         0      21.069  76.103  -1.147  1.00  0.00    -0.307 OA
HETATM    6  C14         0      20.865  76.963  -2.121  1.00  0.00     0.107 C 
HETATM    7  C15         0      19.940  77.991  -2.006  1.00  0.00     0.049 C 
HETATM    8  C16         0      19.545  78.733  -3.113  1.00  0.00     0.093 C 
HETATM    9  C18         0      20.462  78.765  -4.156  1.00  0.00     0.048 C 
HETATM   10  C19         0      21.432  77.778  -4.274  1.00  0.00     0.096 C 
HETATM   11  C21         0      21.495  76.774  -3.346  1.00  0.00     0.084 C 
ENDROOT
BRANCH  10  12
HETATM   12  O20         0      22.040  77.566  -5.507  1.00  0.00    -0.359 OA
HETATM   13  H20         0      21.630  77.944  -6.276  1.00  0.00     0.218 HD
ENDBRANCH  10  12
BRANCH   4  14
HETATM   14  C5          0      21.278  73.808  -0.484  1.00  0.00     0.025 C 
HETATM   15  C6          0      20.005  73.642   0.042  1.00  0.00     0.004 C 
HETATM   16  C7          0      19.506  72.346   0.125  1.00  0.00     0.026 C 
HETATM   17  C8          0      20.293  71.240  -0.177  1.00  0.00     0.112 C 
HETATM   18  C10         0      21.660  71.455  -0.069  1.00  0.00     0.112 C 
HETATM   19  C12         0      22.142  72.748  -0.241  1.00  0.00     0.028 C 
BRANCH  17  20
HETATM   20  O9          0      19.736  70.106  -0.741  1.00  0.00    -0.357 OA
HETATM   21  H9          0      20.151  69.252  -0.727  1.00  0.00     0.218 HD
ENDBRANCH  17  20
BRANCH  18  22
HETATM   22  O11         0      22.482  70.342  -0.174  1.00  0.00    -0.357 OA
HETATM   23  H11         0      22.721  69.906   0.636  1.00  0.00     0.218 HD
ENDBRANCH  18  22
ENDBRANCH   4  14
BRANCH   8  24
HETATM   24  O17         0      18.212  79.120  -3.293  1.00  0.00    -0.359 OA
HETATM   25  H17         0      17.597  78.582  -3.777  1.00  0.00     0.218 HD
ENDBRANCH   8  24
TORSDOF 5
ENDMDL
MODEL 9
REMARK VINA RESULT:      -7.2     12.508     15.023
REMARK  5 active torsions:
REMARK  status: ('A' for Active; 'I' for Inactive)
REMARK    1  A    between atoms: C4_4  and  C5_5 
REMARK    2  A    between atoms: C8_8  and  O9_9 
REMARK    3  A    between atoms: C10_11  and  O11_12 
REMARK    4  A    between atoms: C16_18  and  O17_19 
REMARK    5  A    between atoms: C19_22  and  O20_23 
ROOT
HETATM    1  O1          0      20.110  66.584  -8.939  1.00  0.00    -0.286 OA
HETATM    2  C2          0      20.295  65.478  -8.360  1.00  0.00     0.201 C 
HETATM    3  C3          0      20.053  65.287  -7.011  1.00  0.00     0.067 C 
HETATM    4  C4          0      20.363  64.089  -6.378  1.00  0.00     0.103 C 
HETATM    5  O13         0      20.883  63.108  -7.094  1.00  0.00    -0.307 OA
HETATM    6  C14         0      21.168  63.250  -8.370  1.00  0.00     0.107 C 
HETATM    7  C15         0      22.056  62.404  -9.019  1.00  0.00     0.049 C 
HETATM    8  C16         0      22.547  62.706 -10.284  1.00  0.00     0.093 C 
HETATM    9  C18         0      21.739  63.545 -11.042  1.00  0.00     0.048 C 
HETATM   10  C19         0      20.807  64.370 -10.428  1.00  0.00     0.096 C 
HETATM   11  C21         0      20.670  64.345  -9.067  1.00  0.00     0.084 C 
ENDROOT
BRANCH  10  12
HETATM   12  O20         0      20.331  65.485 -11.111  1.00  0.00    -0.359 OA
HETATM   13  H20         0      20.427  66.335 -10.698  1.00  0.00     0.218 HD
ENDBRANCH  10  12
BRANCH   4  14
HETATM   14  C5          0      20.653  64.145  -4.944  1.00  0.00     0.025 C 
HETATM   15  C6          0      21.431  63.195  -4.296  1.00  0.00     0.004 C 
HETATM   16  C7          0      22.295  63.639  -3.301  1.00  0.00     0.026 C 
HETATM   17  C8          0      22.292  64.961  -2.869  1.00  0.00     0.112 C 
HETATM   18  C10         0      21.104  65.643  -3.099  1.00  0.00     0.112 C 
HETATM   19  C12         0      20.300  65.231  -4.154  1.00  0.00     0.028 C 
BRANCH  17  20
HETATM   20  O9          0      23.459  65.571  -2.446  1.00  0.00    -0.357 OA
HETATM   21  H9          0      24.329  65.255  -2.663  1.00  0.00     0.218 HD
ENDBRANCH  17  20
BRANCH  18  22
HETATM   22  O11         0      20.979  66.899  -2.522  1.00  0.00    -0.357 OA
HETATM   23  H11         0      21.546  67.585  -2.857  1.00  0.00     0.218 HD
ENDBRANCH  18  22
ENDBRANCH   4  14
BRANCH   8  24
HETATM   24  O17         0      23.882  62.466 -10.624  1.00  0.00    -0.359 OA
HETATM   25  H17         0      24.119  61.873 -11.328  1.00  0.00     0.218 HD
ENDBRANCH   8  24
TORSDOF 5
ENDMDL
