MODEL 1
REMARK VINA RESULT:      -5.3      0.000      0.000
REMARK  5 active torsions:
REMARK  status: ('A' for Active; 'I' for Inactive)
REMARK    1  A    between atoms: C4_4  and  C5_5 
REMARK    2  A    between atoms: C8_8  and  O9_9 
REMARK    3  A    between atoms: C10_11  and  O11_12 
REMARK    4  A    between atoms: C16_18  and  O17_19 
REMARK    5  A    between atoms: C19_22  and  O20_23 
ROOT
HETATM    1  O1          0      57.437  76.086 -36.919  1.00  0.00    -0.286 OA
HETATM    2  C2          0      58.624  75.681 -37.058  1.00  0.00     0.201 C 
HETATM    3  C3          0      59.090  74.512 -36.482  1.00  0.00     0.067 C 
HETATM    4  C4          0      60.427  74.141 -36.565  1.00  0.00     0.103 C 
HETATM    5  O13         0      61.262  74.921 -37.229  1.00  0.00    -0.307 OA
HETATM    6  C14         0      60.879  76.060 -37.763  1.00  0.00     0.107 C 
HETATM    7  C15         0      61.789  77.052 -38.098  1.00  0.00     0.049 C 
HETATM    8  C16         0      61.370  78.338 -38.419  1.00  0.00     0.093 C 
HETATM    9  C18         0      60.068  78.429 -38.895  1.00  0.00     0.048 C 
HETATM   10  C19         0      59.144  77.431 -38.617  1.00  0.00     0.096 C 
HETATM   11  C21         0      59.522  76.341 -37.883  1.00  0.00     0.084 C 
ENDROOT
BRANCH  10  12
HETATM   12  O20         0      57.785  77.718 -38.706  1.00  0.00    -0.359 OA
HETATM   13  H20         0      57.236  77.125 -39.205  1.00  0.00     0.218 HD
ENDBRANCH  10  12
BRANCH   4  14
HETATM   14  C5          0      60.955  73.294 -35.494  1.00  0.00     0.025 C 
HETATM   15  C6          0      62.158  73.554 -34.854  1.00  0.00     0.004 C 
HETATM   16  C7          0      62.225  73.315 -33.485  1.00  0.00     0.026 C 
HETATM   17  C8          0      61.176  72.712 -32.798  1.00  0.00     0.112 C 
HETATM   18  C10         0      60.334  71.940 -33.587  1.00  0.00     0.112 C 
HETATM   19  C12         0      60.221  72.255 -34.936  1.00  0.00     0.028 C 
BRANCH  17  20
HETATM   20  O9          0      60.904  73.047 -31.484  1.00  0.00    -0.357 OA
HETATM   21  H9          0      60.029  73.212 -31.151  1.00  0.00     0.218 HD
ENDBRANCH  17  20
BRANCH  18  22
HETATM   22  O11         0      59.388  71.168 -32.928  1.00  0.00    -0.357 OA
HETATM   23  H11         0      59.417  71.170 -31.978  1.00  0.00     0.218 HD
ENDBRANCH  18  22
ENDBRANCH   4  14
BRANCH   8  24
HETATM   24  O17         0      62.074  79.465 -37.979  1.00  0.00    -0.359 OA
HETATM   25  H17         0      63.022  79.470 -37.919  1.00  0.00     0.218 HD
ENDBRANCH   8  24
TORSDOF 5
ENDMDL
MODEL 2
REMARK VINA RESULT:      -5.2     11.877     15.182
REMARK  5 active torsions:
REMARK  status: ('A' for Active; 'I' for Inactive)
REMARK    1  A    between atoms: C4_4  and  C5_5 
REMARK    2  A    between atoms: C8_8  and  O9_9 
REMARK    3  A    between atoms: C10_11  and  O11_12 
REMARK    4  A    between atoms: C16_18  and  O17_19 
REMARK    5  A    between atoms: C19_22  and  O20_23 
ROOT
HETATM    1  O1          0      53.849  75.746 -20.109  1.00  0.00    -0.286 OA
HETATM    2  C2          0      54.129  74.967 -21.061  1.00  0.00     0.201 C 
HETATM    3  C3          0      55.430  74.643 -21.407  1.00  0.00     0.067 C 
HETATM    4  C4          0      55.714  73.864 -22.523  1.00  0.00     0.103 C 
HETATM    5  O13         0      54.710  73.411 -23.253  1.00  0.00    -0.307 OA
HETATM    6  C14         0      53.459  73.720 -22.990  1.00  0.00     0.107 C 
HETATM    7  C15         0      52.460  73.596 -23.944  1.00  0.00     0.049 C 
HETATM    8  C16         0      51.203  74.157 -23.750  1.00  0.00     0.093 C 
HETATM    9  C18         0      50.846  74.351 -22.421  1.00  0.00     0.048 C 
HETATM   10  C19         0      51.819  74.433 -21.434  1.00  0.00     0.096 C 
HETATM   11  C21         0      53.139  74.305 -21.770  1.00  0.00     0.084 C 
ENDROOT
BRANCH  10  12
HETATM   12  O20         0      51.510  75.046 -20.224  1.00  0.00    -0.359 OA
HETATM   13  H20         0      51.575  74.526 -19.432  1.00  0.00     0.218 HD
ENDBRANCH  10  12
BRANCH   4  14
HETATM   14  C5          0      57.018  74.058 -23.161  1.00  0.00     0.025 C 
HETATM   15  C6          0      57.433  73.324 -24.262  1.00  0.00     0.004 C 
HETATM   16  C7          0      58.161  73.990 -25.243  1.00  0.00     0.026 C 
HETATM   17  C8          0      58.580  75.305 -25.074  1.00  0.00     0.112 C 
HETATM   18  C10         0      58.677  75.717 -23.752  1.00  0.00     0.112 C 
HETATM   19  C12         0      57.874  75.092 -22.805  1.00  0.00     0.028 C 
BRANCH  17  20
HETATM   20  O9          0      58.675  76.163 -26.155  1.00  0.00    -0.357 OA
HETATM   21  H9          0      59.038  77.040 -26.103  1.00  0.00     0.218 HD
ENDBRANCH  17  20
BRANCH  18  22
HETATM   22  O11         0      59.267  76.951 -23.520  1.00  0.00    -0.357 OA
HETATM   23  H11         0      59.568  77.434 -24.281  1.00  0.00     0.218 HD
ENDBRANCH  18  22
ENDBRANCH   4  14
BRANCH   8  24
HETATM   24  O17         0      50.513  74.780 -24.796  1.00  0.00    -0.359 OA
HETATM   25  H17         0      50.809  75.601 -25.170  1.00  0.00     0.218 HD
ENDBRANCH   8  24
TORSDOF 5
ENDMDL
MODEL 3
REMARK VINA RESULT:      -5.2      1.595      2.290
REMARK  5 active torsions:
REMARK  status: ('A' for Active; 'I' for Inactive)
REMARK    1  A    between atoms: C4_4  and  C5_5 
REMARK    2  A    between atoms: C8_8  and  O9_9 
REMARK    3  A    between atoms: C10_11  and  O11_12 
REMARK    4  A    between atoms: C16_18  and  O17_19 
REMARK    5  A    between atoms: C19_22  and  O20_23 
ROOT
HETATM    1  O1          0      59.140  78.079 -38.538  1.00  0.00    -0.286 OA
HETATM    2  C2          0      60.154  77.341 -38.407  1.00  0.00     0.201 C 
HETATM    3  C3          0      60.084  76.053 -37.903  1.00  0.00     0.067 C 
HETATM    4  C4          0      61.229  75.298 -37.673  1.00  0.00     0.103 C 
HETATM    5  O13         0      62.405  75.824 -37.964  1.00  0.00    -0.307 OA
HETATM    6  C14         0      62.530  77.055 -38.409  1.00  0.00     0.107 C 
HETATM    7  C15         0      63.734  77.740 -38.336  1.00  0.00     0.049 C 
HETATM    8  C16         0      63.801  79.109 -38.567  1.00  0.00     0.093 C 
HETATM    9  C18         0      62.781  79.620 -39.361  1.00  0.00     0.048 C 
HETATM   10  C19         0      61.580  78.937 -39.493  1.00  0.00     0.096 C 
HETATM   11  C21         0      61.404  77.742 -38.851  1.00  0.00     0.084 C 
ENDROOT
BRANCH  10  12
HETATM   12  O20         0      60.445  79.629 -39.905  1.00  0.00    -0.359 OA
HETATM   13  H20         0      59.631  79.463 -39.445  1.00  0.00     0.218 HD
ENDBRANCH  10  12
BRANCH   4  14
HETATM   14  C5          0      61.154  74.268 -36.634  1.00  0.00     0.025 C 
HETATM   15  C6          0      62.238  73.921 -35.841  1.00  0.00     0.004 C 
HETATM   16  C7          0      61.991  73.634 -34.502  1.00  0.00     0.026 C 
HETATM   17  C8          0      60.697  73.563 -33.998  1.00  0.00     0.112 C 
HETATM   18  C10         0      59.719  73.296 -34.947  1.00  0.00     0.112 C 
HETATM   19  C12         0      59.957  73.670 -36.264  1.00  0.00     0.028 C 
BRANCH  17  20
HETATM   20  O9          0      60.421  73.945 -32.697  1.00  0.00    -0.357 OA
HETATM   21  H9          0      59.598  74.331 -32.423  1.00  0.00     0.218 HD
ENDBRANCH  17  20
BRANCH  18  22
HETATM   22  O11         0      58.442  73.028 -34.474  1.00  0.00    -0.357 OA
HETATM   23  H11         0      58.237  72.121 -34.280  1.00  0.00     0.218 HD
ENDBRANCH  18  22
ENDBRANCH   4  14
BRANCH   8  24
HETATM   24  O17         0      64.619  79.940 -37.793  1.00  0.00    -0.359 OA
HETATM   25  H17         0      65.424  79.623 -37.401  1.00  0.00     0.218 HD
ENDBRANCH   8  24
TORSDOF 5
ENDMDL
MODEL 4
REMARK VINA RESULT:      -5.0     12.524     14.566
REMARK  5 active torsions:
REMARK  status: ('A' for Active; 'I' for Inactive)
REMARK    1  A    between atoms: C4_4  and  C5_5 
REMARK    2  A    between atoms: C8_8  and  O9_9 
REMARK    3  A    between atoms: C10_11  and  O11_12 
REMARK    4  A    between atoms: C16_18  and  O17_19 
REMARK    5  A    between atoms: C19_22  and  O20_23 
ROOT
HETATM    1  O1          0      58.419  74.660 -25.210  1.00  0.00    -0.286 OA
HETATM    2  C2          0      57.758  74.580 -24.139  1.00  0.00     0.201 C 
HETATM    3  C3          0      56.646  73.766 -24.002  1.00  0.00     0.067 C 
HETATM    4  C4          0      55.875  73.775 -22.845  1.00  0.00     0.103 C 
HETATM    5  O13         0      56.232  74.567 -21.850  1.00  0.00    -0.307 OA
HETATM    6  C14         0      57.257  75.387 -21.942  1.00  0.00     0.107 C 
HETATM    7  C15         0      57.398  76.478 -21.097  1.00  0.00     0.049 C 
HETATM    8  C16         0      58.330  77.476 -21.357  1.00  0.00     0.093 C 
HETATM    9  C18         0      59.413  77.080 -22.133  1.00  0.00     0.048 C 
HETATM   10  C19         0      59.321  75.964 -22.954  1.00  0.00     0.096 C 
HETATM   11  C21         0      58.162  75.239 -22.988  1.00  0.00     0.084 C 
ENDROOT
BRANCH  10  12
HETATM   12  O20         0      60.206  75.830 -24.020  1.00  0.00    -0.359 OA
HETATM   13  H20         0      60.215  76.514 -24.679  1.00  0.00     0.218 HD
ENDBRANCH  10  12
BRANCH   4  14
HETATM   14  C5          0      54.466  73.400 -22.977  1.00  0.00     0.025 C 
HETATM   15  C6          0      53.476  73.889 -22.137  1.00  0.00     0.004 C 
HETATM   16  C7          0      52.241  74.187 -22.703  1.00  0.00     0.026 C 
HETATM   17  C8          0      51.953  73.884 -24.029  1.00  0.00     0.112 C 
HETATM   18  C10         0      52.727  72.867 -24.572  1.00  0.00     0.112 C 
HETATM   19  C12         0      53.993  72.646 -24.043  1.00  0.00     0.028 C 
BRANCH  17  20
HETATM   20  O9          0      51.113  74.692 -24.775  1.00  0.00    -0.357 OA
HETATM   21  H9          0      50.231  74.925 -24.508  1.00  0.00     0.218 HD
ENDBRANCH  17  20
BRANCH  18  22
HETATM   22  O11         0      52.358  72.396 -25.824  1.00  0.00    -0.357 OA
HETATM   23  H11         0      51.501  71.992 -25.896  1.00  0.00     0.218 HD
ENDBRANCH  18  22
ENDBRANCH   4  14
BRANCH   8  24
HETATM   24  O17         0      58.031  78.826 -21.145  1.00  0.00    -0.359 OA
HETATM   25  H17         0      57.474  79.313 -21.741  1.00  0.00     0.218 HD
ENDBRANCH   8  24
TORSDOF 5
ENDMDL
MODEL 5
REMARK VINA RESULT:      -4.8      8.588     12.270
REMARK  5 active torsions:
REMARK  status: ('A' for Active; 'I' for Inactive)
REMARK    1  A    between atoms: C4_4  and  C5_5 
REMARK    2  A    between atoms: C8_8  and  O9_9 
REMARK    3  A    between atoms: C10_11  and  O11_12 
REMARK    4  A    between atoms: C16_18  and  O17_19 
REMARK    5  A    between atoms: C19_22  and  O20_23 
ROOT
HETATM    1  O1          0      56.363  73.957 -23.302  1.00  0.00    -0.286 OA
HETATM    2  C2          0      57.369  74.401 -23.920  1.00  0.00     0.201 C 
HETATM    3  C3          0      57.874  73.801 -25.061  1.00  0.00     0.067 C 
HETATM    4  C4          0      59.044  74.250 -25.664  1.00  0.00     0.103 C 
HETATM    5  O13         0      59.671  75.288 -25.138  1.00  0.00    -0.307 OA
HETATM    6  C14         0      59.255  75.871 -24.035  1.00  0.00     0.107 C 
HETATM    7  C15         0      60.092  76.671 -23.271  1.00  0.00     0.049 C 
HETATM    8  C16         0      59.734  77.072 -21.989  1.00  0.00     0.093 C 
HETATM    9  C18         0      58.366  77.099 -21.743  1.00  0.00     0.048 C 
HETATM   10  C19         0      57.495  76.347 -22.519  1.00  0.00     0.096 C 
HETATM   11  C21         0      57.984  75.586 -23.546  1.00  0.00     0.084 C 
ENDROOT
BRANCH  10  12
HETATM   12  O20         0      56.235  76.034 -22.018  1.00  0.00    -0.359 OA
HETATM   13  H20         0      55.632  75.572 -22.588  1.00  0.00     0.218 HD
ENDBRANCH  10  12
BRANCH   4  14
HETATM   14  C5          0      59.819  73.274 -26.432  1.00  0.00     0.025 C 
HETATM   15  C6          0      60.085  71.993 -25.969  1.00  0.00     0.004 C 
HETATM   16  C7          0      60.058  70.955 -26.895  1.00  0.00     0.026 C 
HETATM   17  C8          0      59.906  71.196 -28.257  1.00  0.00     0.112 C 
HETATM   18  C10         0      60.281  72.468 -28.666  1.00  0.00     0.112 C 
HETATM   19  C12         0      60.217  73.505 -27.742  1.00  0.00     0.028 C 
BRANCH  17  20
HETATM   20  O9          0      59.235  70.296 -29.065  1.00  0.00    -0.357 OA
HETATM   21  H9          0      59.650  69.800 -29.762  1.00  0.00     0.218 HD
ENDBRANCH  17  20
BRANCH  18  22
HETATM   22  O11         0      60.329  72.700 -30.033  1.00  0.00    -0.357 OA
HETATM   23  H11         0      59.716  73.336 -30.383  1.00  0.00     0.218 HD
ENDBRANCH  18  22
ENDBRANCH   4  14
BRANCH   8  24
HETATM   24  O17         0      60.669  77.112 -20.950  1.00  0.00    -0.359 OA
HETATM   25  H17         0      60.508  76.686 -20.116  1.00  0.00     0.218 HD
ENDBRANCH   8  24
TORSDOF 5
ENDMDL
MODEL 6
REMARK VINA RESULT:      -4.8     12.354     14.732
REMARK  5 active torsions:
REMARK  status: ('A' for Active; 'I' for Inactive)
REMARK    1  A    between atoms: C4_4  and  C5_5 
REMARK    2  A    between atoms: C8_8  and  O9_9 
REMARK    3  A    between atoms: C10_11  and  O11_12 
REMARK    4  A    between atoms: C16_18  and  O17_19 
REMARK    5  A    between atoms: C19_22  and  O20_23 
ROOT
HETATM    1  O1          0      58.406  71.767 -21.674  1.00  0.00    -0.286 OA
HETATM    2  C2          0      57.626  72.724 -21.933  1.00  0.00     0.201 C 
HETATM    3  C3          0      56.250  72.626 -21.810  1.00  0.00     0.067 C 
HETATM    4  C4          0      55.408  73.660 -22.200  1.00  0.00     0.103 C 
HETATM    5  O13         0      55.944  74.769 -22.680  1.00  0.00    -0.307 OA
HETATM    6  C14         0      57.241  74.900 -22.854  1.00  0.00     0.107 C 
HETATM    7  C15         0      57.771  75.859 -23.704  1.00  0.00     0.049 C 
HETATM    8  C16         0      59.109  75.830 -24.079  1.00  0.00     0.093 C 
HETATM    9  C18         0      59.954  75.175 -23.191  1.00  0.00     0.048 C 
HETATM   10  C19         0      59.449  74.243 -22.295  1.00  0.00     0.096 C 
HETATM   11  C21         0      58.107  73.979 -22.273  1.00  0.00     0.084 C 
ENDROOT
BRANCH  10  12
HETATM   12  O20         0      60.308  73.301 -21.737  1.00  0.00    -0.359 OA
HETATM   13  H20         0      59.942  72.465 -21.474  1.00  0.00     0.218 HD
ENDBRANCH  10  12
BRANCH   4  14
HETATM   14  C5          0      54.049  73.300 -22.609  1.00  0.00     0.025 C 
HETATM   15  C6          0      52.922  73.694 -21.903  1.00  0.00     0.004 C 
HETATM   16  C7          0      51.794  74.050 -22.637  1.00  0.00     0.026 C 
HETATM   17  C8          0      51.742  73.892 -24.017  1.00  0.00     0.112 C 
HETATM   18  C10         0      52.616  72.940 -24.525  1.00  0.00     0.112 C 
HETATM   19  C12         0      53.778  72.665 -23.814  1.00  0.00     0.028 C 
BRANCH  17  20
HETATM   20  O9          0      51.024  74.774 -24.805  1.00  0.00    -0.357 OA
HETATM   21  H9          0      50.223  75.201 -24.524  1.00  0.00     0.218 HD
ENDBRANCH  17  20
BRANCH  18  22
HETATM   22  O11         0      52.474  72.608 -25.865  1.00  0.00    -0.357 OA
HETATM   23  H11         0      52.054  73.250 -26.425  1.00  0.00     0.218 HD
ENDBRANCH  18  22
ENDBRANCH   4  14
BRANCH   8  24
HETATM   24  O17         0      59.506  76.131 -25.387  1.00  0.00    -0.359 OA
HETATM   25  H17         0      59.323  76.974 -25.783  1.00  0.00     0.218 HD
ENDBRANCH   8  24
TORSDOF 5
ENDMDL
MODEL 7
REMARK VINA RESULT:      -4.6     10.920     13.991
REMARK  5 active torsions:
REMARK  status: ('A' for Active; 'I' for Inactive)
REMARK    1  A    between atoms: C4_4  and  C5_5 
REMARK    2  A    between atoms: C8_8  and  O9_9 
REMARK    3  A    between atoms: C10_11  and  O11_12 
REMARK    4  A    between atoms: C16_18  and  O17_19 
REMARK    5  A    between atoms: C19_22  and  O20_23 
ROOT
HETATM    1  O1          0      55.963  76.231 -21.561  1.00  0.00    -0.286 OA
HETATM    2  C2          0      55.956  75.196 -22.282  1.00  0.00     0.201 C 
HETATM    3  C3          0      57.094  74.700 -22.895  1.00  0.00     0.067 C 
HETATM    4  C4          0      57.040  73.619 -23.766  1.00  0.00     0.103 C 
HETATM    5  O13         0      55.872  73.044 -23.993  1.00  0.00    -0.307 OA
HETATM    6  C14         0      54.755  73.498 -23.466  1.00  0.00     0.107 C 
HETATM    7  C15         0      53.514  73.173 -23.993  1.00  0.00     0.049 C 
HETATM    8  C16         0      52.364  73.849 -23.600  1.00  0.00     0.093 C 
HETATM    9  C18         0      52.430  74.437 -22.343  1.00  0.00     0.048 C 
HETATM   10  C19         0      53.657  74.732 -21.766  1.00  0.00     0.096 C 
HETATM   11  C21         0      54.812  74.426 -22.432  1.00  0.00     0.084 C 
ENDROOT
BRANCH  10  12
HETATM   12  O20         0      53.721  75.684 -20.753  1.00  0.00    -0.359 OA
HETATM   13  H20         0      53.104  76.405 -20.780  1.00  0.00     0.218 HD
ENDBRANCH  10  12
BRANCH   4  14
HETATM   14  C5          0      58.078  73.535 -24.796  1.00  0.00     0.025 C 
HETATM   15  C6          0      58.260  74.515 -25.761  1.00  0.00     0.004 C 
HETATM   16  C7          0      59.566  74.827 -26.125  1.00  0.00     0.026 C 
HETATM   17  C8          0      60.650  74.099 -25.646  1.00  0.00     0.112 C 
HETATM   18  C10         0      60.345  72.810 -25.230  1.00  0.00     0.112 C 
HETATM   19  C12         0      59.053  72.546 -24.791  1.00  0.00     0.028 C 
BRANCH  17  20
HETATM   20  O9          0      61.869  74.711 -25.417  1.00  0.00    -0.357 OA
HETATM   21  H9          0      62.658  74.242 -25.174  1.00  0.00     0.218 HD
ENDBRANCH  17  20
BRANCH  18  22
HETATM   22  O11         0      61.413  71.979 -24.922  1.00  0.00    -0.357 OA
HETATM   23  H11         0      61.978  71.721 -25.641  1.00  0.00     0.218 HD
ENDBRANCH  18  22
ENDBRANCH   4  14
BRANCH   8  24
HETATM   24  O17         0      51.369  74.192 -24.522  1.00  0.00    -0.359 OA
HETATM   25  H17         0      50.670  74.794 -24.300  1.00  0.00     0.218 HD
ENDBRANCH   8  24
TORSDOF 5
ENDMDL
MODEL 8
REMARK VINA RESULT:      -4.6      5.591      9.268
REMARK  5 active torsions:
REMARK  status: ('A' for Active; 'I' for Inactive)
REMARK    1  A    between atoms: C4_4  and  C5_5 
REMARK    2  A    between atoms: C8_8  and  O9_9 
REMARK    3  A    between atoms: C10_11  and  O11_12 
REMARK    4  A    between atoms: C16_18  and  O17_19 
REMARK    5  A    between atoms: C19_22  and  O20_23 
ROOT
HETATM    1  O1          0      55.674  68.242 -29.794  1.00  0.00    -0.286 OA
HETATM    2  C2          0      55.454  69.042 -30.744  1.00  0.00     0.201 C 
HETATM    3  C3          0      56.251  69.104 -31.874  1.00  0.00     0.067 C 
HETATM    4  C4          0      56.046  70.064 -32.859  1.00  0.00     0.103 C 
HETATM    5  O13         0      55.052  70.922 -32.712  1.00  0.00    -0.307 OA
HETATM    6  C14         0      54.289  70.931 -31.641  1.00  0.00     0.107 C 
HETATM    7  C15         0      53.531  72.040 -31.293  1.00  0.00     0.049 C 
HETATM    8  C16         0      52.933  72.142 -30.042  1.00  0.00     0.093 C 
HETATM    9  C18         0      52.684  70.930 -29.410  1.00  0.00     0.048 C 
HETATM   10  C19         0      53.393  69.790 -29.766  1.00  0.00     0.096 C 
HETATM   11  C21         0      54.331  69.857 -30.759  1.00  0.00     0.084 C 
ENDROOT
BRANCH  10  12
HETATM   12  O20         0      53.463  68.726 -28.872  1.00  0.00    -0.359 OA
HETATM   13  H20         0      52.896  67.979 -29.024  1.00  0.00     0.218 HD
ENDBRANCH  10  12
BRANCH   4  14
HETATM   14  C5          0      57.206  70.460 -33.659  1.00  0.00     0.025 C 
HETATM   15  C6          0      57.108  71.292 -34.765  1.00  0.00     0.004 C 
HETATM   16  C7          0      58.122  72.224 -34.963  1.00  0.00     0.026 C 
HETATM   17  C8          0      59.263  72.241 -34.167  1.00  0.00     0.112 C 
HETATM   18  C10         0      59.554  71.034 -33.546  1.00  0.00     0.112 C 
HETATM   19  C12         0      58.509  70.157 -33.283  1.00  0.00     0.028 C 
BRANCH  17  20
HETATM   20  O9          0      59.904  73.431 -33.872  1.00  0.00    -0.357 OA
HETATM   21  H9          0      59.882  74.196 -34.436  1.00  0.00     0.218 HD
ENDBRANCH  17  20
BRANCH  18  22
HETATM   22  O11         0      60.777  70.941 -32.896  1.00  0.00    -0.357 OA
HETATM   23  H11         0      60.766  71.009 -31.948  1.00  0.00     0.218 HD
ENDBRANCH  18  22
ENDBRANCH   4  14
BRANCH   8  24
HETATM   24  O17         0      52.902  73.355 -29.346  1.00  0.00    -0.359 OA
HETATM   25  H17         0      52.099  73.853 -29.247  1.00  0.00     0.218 HD
ENDBRANCH   8  24
TORSDOF 5
ENDMDL
MODEL 9
REMARK VINA RESULT:      -4.6      8.627     12.251
REMARK  5 active torsions:
REMARK  status: ('A' for Active; 'I' for Inactive)
REMARK    1  A    between atoms: C4_4  and  C5_5 
REMARK    2  A    between atoms: C8_8  and  O9_9 
REMARK    3  A    between atoms: C10_11  and  O11_12 
REMARK    4  A    between atoms: C16_18  and  O17_19 
REMARK    5  A    between atoms: C19_22  and  O20_23 
ROOT
HETATM    1  O1          0      56.652  73.625 -23.865  1.00  0.00    -0.286 OA
HETATM    2  C2          0      57.666  74.229 -24.310  1.00  0.00     0.201 C 
HETATM    3  C3          0      58.398  73.772 -25.393  1.00  0.00     0.067 C 
HETATM    4  C4          0      59.570  74.400 -25.798  1.00  0.00     0.103 C 
HETATM    5  O13         0      59.977  75.471 -25.139  1.00  0.00    -0.307 OA
HETATM    6  C14         0      59.340  75.924 -24.081  1.00  0.00     0.107 C 
HETATM    7  C15         0      59.952  76.769 -23.166  1.00  0.00     0.049 C 
HETATM    8  C16         0      59.373  77.038 -21.932  1.00  0.00     0.093 C 
HETATM    9  C18         0      57.993  76.880 -21.885  1.00  0.00     0.048 C 
HETATM   10  C19         0      57.342  76.079 -22.814  1.00  0.00     0.096 C 
HETATM   11  C21         0      58.063  75.453 -23.794  1.00  0.00     0.084 C 
ENDROOT
BRANCH  10  12
HETATM   12  O20         0      56.078  75.581 -22.516  1.00  0.00    -0.359 OA
HETATM   13  H20         0      55.348  76.188 -22.518  1.00  0.00     0.218 HD
ENDBRANCH  10  12
BRANCH   4  14
HETATM   14  C5          0      60.564  73.579 -26.492  1.00  0.00     0.025 C 
HETATM   15  C6          0      60.310  72.956 -27.705  1.00  0.00     0.004 C 
HETATM   16  C7          0      61.341  72.918 -28.638  1.00  0.00     0.026 C 
HETATM   17  C8          0      62.622  73.364 -28.329  1.00  0.00     0.112 C 
HETATM   18  C10         0      62.925  73.362 -26.974  1.00  0.00     0.112 C 
HETATM   19  C12         0      61.882  73.487 -26.064  1.00  0.00     0.028 C 
BRANCH  17  20
HETATM   20  O9          0      63.420  73.953 -29.294  1.00  0.00    -0.357 OA
HETATM   21  H9          0      63.744  74.845 -29.239  1.00  0.00     0.218 HD
ENDBRANCH  17  20
BRANCH  18  22
HETATM   22  O11         0      64.244  73.615 -26.625  1.00  0.00    -0.357 OA
HETATM   23  H11         0      64.905  73.442 -27.285  1.00  0.00     0.218 HD
ENDBRANCH  18  22
ENDBRANCH   4  14
BRANCH   8  24
HETATM   24  O17         0      60.143  77.125 -20.768  1.00  0.00    -0.359 OA
HETATM   25  H17         0      59.855  76.741 -19.948  1.00  0.00     0.218 HD
ENDBRANCH   8  24
TORSDOF 5
ENDMDL
