MODEL 1
REMARK VINA RESULT:      -7.4      0.000      0.000
REMARK  5 active torsions:
REMARK  status: ('A' for Active; 'I' for Inactive)
REMARK    1  A    between atoms: C4_4  and  C5_5 
REMARK    2  A    between atoms: C8_8  and  O9_9 
REMARK    3  A    between atoms: C10_11  and  O11_12 
REMARK    4  A    between atoms: C16_18  and  O17_19 
REMARK    5  A    between atoms: C19_22  and  O20_23 
ROOT
HETATM    1  O1          0      44.916  37.789  27.378  1.00  0.00    -0.286 OA
HETATM    2  C2          0      44.911  38.593  26.406  1.00  0.00     0.201 C 
HETATM    3  C3          0      45.049  39.962  26.563  1.00  0.00     0.067 C 
HETATM    4  C4          0      44.937  40.834  25.486  1.00  0.00     0.103 C 
HETATM    5  O13         0      44.713  40.332  24.284  1.00  0.00    -0.307 OA
HETATM    6  C14         0      44.538  39.044  24.085  1.00  0.00     0.107 C 
HETATM    7  C15         0      43.921  38.559  22.941  1.00  0.00     0.049 C 
HETATM    8  C16         0      43.510  37.234  22.850  1.00  0.00     0.093 C 
HETATM    9  C18         0      44.195  36.349  23.674  1.00  0.00     0.048 C 
HETATM   10  C19         0      44.862  36.808  24.801  1.00  0.00     0.096 C 
HETATM   11  C21         0      44.861  38.144  25.095  1.00  0.00     0.084 C 
ENDROOT
BRANCH  10  12
HETATM   12  O20         0      45.159  35.915  25.827  1.00  0.00    -0.359 OA
HETATM   13  H20         0      45.816  35.250  25.662  1.00  0.00     0.218 HD
ENDBRANCH  10  12
BRANCH   4  14
HETATM   14  C5          0      44.494  42.200  25.773  1.00  0.00     0.025 C 
HETATM   15  C6          0      43.786  42.968  24.861  1.00  0.00     0.004 C 
HETATM   16  C7          0      42.772  43.784  25.355  1.00  0.00     0.026 C 
HETATM   17  C8          0      42.558  43.934  26.721  1.00  0.00     0.112 C 
HETATM   18  C10         0      43.663  43.659  27.515  1.00  0.00     0.112 C 
HETATM   19  C12         0      44.619  42.773  27.032  1.00  0.00     0.028 C 
BRANCH  17  20
HETATM   20  O9          0      41.283  44.133  27.221  1.00  0.00    -0.357 OA
HETATM   21  H9          0      41.102  44.394  28.116  1.00  0.00     0.218 HD
ENDBRANCH  17  20
BRANCH  18  22
HETATM   22  O11         0      43.562  43.973  28.863  1.00  0.00    -0.357 OA
HETATM   23  H11         0      43.676  43.260  29.480  1.00  0.00     0.218 HD
ENDBRANCH  18  22
ENDBRANCH   4  14
BRANCH   8  24
HETATM   24  O17         0      42.298  36.887  22.243  1.00  0.00    -0.359 OA
HETATM   25  H17         0      41.555  37.479  22.237  1.00  0.00     0.218 HD
ENDBRANCH   8  24
TORSDOF 5
ENDMDL
MODEL 2
REMARK VINA RESULT:      -6.8      1.872      6.942
REMARK  5 active torsions:
REMARK  status: ('A' for Active; 'I' for Inactive)
REMARK    1  A    between atoms: C4_4  and  C5_5 
REMARK    2  A    between atoms: C8_8  and  O9_9 
REMARK    3  A    between atoms: C10_11  and  O11_12 
REMARK    4  A    between atoms: C16_18  and  O17_19 
REMARK    5  A    between atoms: C19_22  and  O20_23 
ROOT
HETATM    1  O1          0      42.807  44.134  22.887  1.00  0.00    -0.286 OA
HETATM    2  C2          0      43.473  43.254  23.498  1.00  0.00     0.201 C 
HETATM    3  C3          0      43.697  41.989  22.983  1.00  0.00     0.067 C 
HETATM    4  C4          0      44.347  41.006  23.721  1.00  0.00     0.103 C 
HETATM    5  O13         0      44.775  41.303  24.935  1.00  0.00    -0.307 OA
HETATM    6  C14         0      44.555  42.476  25.486  1.00  0.00     0.107 C 
HETATM    7  C15         0      44.633  42.666  26.859  1.00  0.00     0.049 C 
HETATM    8  C16         0      44.157  43.827  27.455  1.00  0.00     0.093 C 
HETATM    9  C18         0      44.113  44.939  26.623  1.00  0.00     0.048 C 
HETATM   10  C19         0      44.081  44.787  25.244  1.00  0.00     0.096 C 
HETATM   11  C21         0      44.111  43.532  24.698  1.00  0.00     0.084 C 
ENDROOT
BRANCH  10  12
HETATM   12  O20         0      43.607  45.830  24.455  1.00  0.00    -0.359 OA
HETATM   13  H20         0      44.202  46.543  24.255  1.00  0.00     0.218 HD
ENDBRANCH  10  12
BRANCH   4  14
HETATM   14  C5          0      44.027  39.612  23.407  1.00  0.00     0.025 C 
HETATM   15  C6          0      43.866  39.152  22.108  1.00  0.00     0.004 C 
HETATM   16  C7          0      44.356  37.885  21.808  1.00  0.00     0.026 C 
HETATM   17  C8          0      44.868  37.048  22.794  1.00  0.00     0.112 C 
HETATM   18  C10         0      44.414  37.320  24.078  1.00  0.00     0.112 C 
HETATM   19  C12         0      44.010  38.617  24.375  1.00  0.00     0.028 C 
BRANCH  17  20
HETATM   20  O9          0      45.901  36.172  22.514  1.00  0.00    -0.357 OA
HETATM   21  H9          0      45.886  35.249  22.740  1.00  0.00     0.218 HD
ENDBRANCH  17  20
BRANCH  18  22
HETATM   22  O11         0      44.742  36.405  25.068  1.00  0.00    -0.357 OA
HETATM   23  H11         0      45.262  35.654  24.804  1.00  0.00     0.218 HD
ENDBRANCH  18  22
ENDBRANCH   4  14
BRANCH   8  24
HETATM   24  O17         0      43.469  43.791  28.673  1.00  0.00    -0.359 OA
HETATM   25  H17         0      43.197  42.972  29.069  1.00  0.00     0.218 HD
ENDBRANCH   8  24
TORSDOF 5
ENDMDL
MODEL 3
REMARK VINA RESULT:      -6.8      3.441      5.539
REMARK  5 active torsions:
REMARK  status: ('A' for Active; 'I' for Inactive)
REMARK    1  A    between atoms: C4_4  and  C5_5 
REMARK    2  A    between atoms: C8_8  and  O9_9 
REMARK    3  A    between atoms: C10_11  and  O11_12 
REMARK    4  A    between atoms: C16_18  and  O17_19 
REMARK    5  A    between atoms: C19_22  and  O20_23 
ROOT
HETATM    1  O1          0      43.746  37.982  25.048  1.00  0.00    -0.286 OA
HETATM    2  C2          0      44.617  38.890  24.963  1.00  0.00     0.201 C 
HETATM    3  C3          0      44.650  39.803  23.923  1.00  0.00     0.067 C 
HETATM    4  C4          0      45.680  40.728  23.798  1.00  0.00     0.103 C 
HETATM    5  O13         0      46.635  40.742  24.711  1.00  0.00    -0.307 OA
HETATM    6  C14         0      46.672  39.873  25.698  1.00  0.00     0.107 C 
HETATM    7  C15         0      47.838  39.619  26.405  1.00  0.00     0.049 C 
HETATM    8  C16         0      47.938  38.531  27.264  1.00  0.00     0.093 C 
HETATM    9  C18         0      46.729  38.070  27.770  1.00  0.00     0.048 C 
HETATM   10  C19         0      45.538  38.346  27.113  1.00  0.00     0.096 C 
HETATM   11  C21         0      45.552  39.093  25.966  1.00  0.00     0.084 C 
ENDROOT
BRANCH  10  12
HETATM   12  O20         0      44.425  37.547  27.356  1.00  0.00    -0.359 OA
HETATM   13  H20         0      43.997  37.624  28.201  1.00  0.00     0.218 HD
ENDBRANCH  10  12
BRANCH   4  14
HETATM   14  C5          0      45.986  41.212  22.451  1.00  0.00     0.025 C 
HETATM   15  C6          0      45.391  42.340  21.903  1.00  0.00     0.004 C 
HETATM   16  C7          0      46.184  43.169  21.117  1.00  0.00     0.026 C 
HETATM   17  C8          0      47.487  42.823  20.774  1.00  0.00     0.112 C 
HETATM   18  C10         0      47.756  41.462  20.819  1.00  0.00     0.112 C 
HETATM   19  C12         0      47.004  40.668  21.678  1.00  0.00     0.028 C 
BRANCH  17  20
HETATM   20  O9          0      48.460  43.794  20.617  1.00  0.00    -0.357 OA
HETATM   21  H9          0      49.337  43.726  20.978  1.00  0.00     0.218 HD
ENDBRANCH  17  20
BRANCH  18  22
HETATM   22  O11         0      48.976  41.045  20.308  1.00  0.00    -0.357 OA
HETATM   23  H11         0      49.499  41.698  19.857  1.00  0.00     0.218 HD
ENDBRANCH  18  22
ENDBRANCH   4  14
BRANCH   8  24
HETATM   24  O17         0      49.107  37.766  27.339  1.00  0.00    -0.359 OA
HETATM   25  H17         0      49.407  37.241  26.606  1.00  0.00     0.218 HD
ENDBRANCH   8  24
TORSDOF 5
ENDMDL
MODEL 4
REMARK VINA RESULT:      -6.8      1.869      6.848
REMARK  5 active torsions:
REMARK  status: ('A' for Active; 'I' for Inactive)
REMARK    1  A    between atoms: C4_4  and  C5_5 
REMARK    2  A    between atoms: C8_8  and  O9_9 
REMARK    3  A    between atoms: C10_11  and  O11_12 
REMARK    4  A    between atoms: C16_18  and  O17_19 
REMARK    5  A    between atoms: C19_22  and  O20_23 
ROOT
HETATM    1  O1          0      44.445  44.801  23.976  1.00  0.00    -0.286 OA
HETATM    2  C2          0      44.454  44.071  25.005  1.00  0.00     0.201 C 
HETATM    3  C3          0      45.210  42.915  25.097  1.00  0.00     0.067 C 
HETATM    4  C4          0      45.123  42.075  26.202  1.00  0.00     0.103 C 
HETATM    5  O13         0      44.313  42.408  27.191  1.00  0.00    -0.307 OA
HETATM    6  C14         0      43.546  43.475  27.137  1.00  0.00     0.107 C 
HETATM    7  C15         0      42.432  43.616  27.952  1.00  0.00     0.049 C 
HETATM    8  C16         0      41.490  44.611  27.720  1.00  0.00     0.093 C 
HETATM    9  C18         0      41.964  45.719  27.028  1.00  0.00     0.048 C 
HETATM   10  C19         0      43.102  45.624  26.240  1.00  0.00     0.096 C 
HETATM   11  C21         0      43.774  44.435  26.157  1.00  0.00     0.084 C 
ENDROOT
BRANCH  10  12
HETATM   12  O20         0      43.316  46.565  25.238  1.00  0.00    -0.359 OA
HETATM   13  H20         0      43.146  47.477  25.440  1.00  0.00     0.218 HD
ENDBRANCH  10  12
BRANCH   4  14
HETATM   14  C5          0      45.437  40.660  25.993  1.00  0.00     0.025 C 
HETATM   15  C6          0      46.296  39.950  26.819  1.00  0.00     0.004 C 
HETATM   16  C7          0      45.966  38.630  27.110  1.00  0.00     0.026 C 
HETATM   17  C8          0      44.894  37.994  26.496  1.00  0.00     0.112 C 
HETATM   18  C10         0      44.516  38.540  25.276  1.00  0.00     0.112 C 
HETATM   19  C12         0      44.782  39.885  25.045  1.00  0.00     0.028 C 
BRANCH  17  20
HETATM   20  O9          0      44.155  37.038  27.171  1.00  0.00    -0.357 OA
HETATM   21  H9          0      43.299  37.203  27.550  1.00  0.00     0.218 HD
ENDBRANCH  17  20
BRANCH  18  22
HETATM   22  O11         0      43.581  37.834  24.534  1.00  0.00    -0.357 OA
HETATM   23  H11         0      43.753  37.739  23.604  1.00  0.00     0.218 HD
ENDBRANCH  18  22
ENDBRANCH   4  14
BRANCH   8  24
HETATM   24  O17         0      40.120  44.366  27.867  1.00  0.00    -0.359 OA
HETATM   25  H17         0      39.655  43.771  27.291  1.00  0.00     0.218 HD
ENDBRANCH   8  24
TORSDOF 5
ENDMDL
MODEL 5
REMARK VINA RESULT:      -6.6      2.915      4.630
REMARK  5 active torsions:
REMARK  status: ('A' for Active; 'I' for Inactive)
REMARK    1  A    between atoms: C4_4  and  C5_5 
REMARK    2  A    between atoms: C8_8  and  O9_9 
REMARK    3  A    between atoms: C10_11  and  O11_12 
REMARK    4  A    between atoms: C16_18  and  O17_19 
REMARK    5  A    between atoms: C19_22  and  O20_23 
ROOT
HETATM    1  O1          0      44.015  37.149  23.901  1.00  0.00    -0.286 OA
HETATM    2  C2          0      44.165  38.378  24.141  1.00  0.00     0.201 C 
HETATM    3  C3          0      43.830  39.367  23.231  1.00  0.00     0.067 C 
HETATM    4  C4          0      44.100  40.707  23.480  1.00  0.00     0.103 C 
HETATM    5  O13         0      44.673  41.038  24.624  1.00  0.00    -0.307 OA
HETATM    6  C14         0      45.045  40.136  25.506  1.00  0.00     0.107 C 
HETATM    7  C15         0      45.979  40.419  26.491  1.00  0.00     0.049 C 
HETATM    8  C16         0      46.555  39.409  27.252  1.00  0.00     0.093 C 
HETATM    9  C18         0      45.798  38.248  27.354  1.00  0.00     0.048 C 
HETATM   10  C19         0      44.822  37.956  26.411  1.00  0.00     0.096 C 
HETATM   11  C21         0      44.592  38.827  25.381  1.00  0.00     0.084 C 
ENDROOT
BRANCH  10  12
HETATM   12  O20         0      44.390  36.642  26.263  1.00  0.00    -0.359 OA
HETATM   13  H20         0      44.413  36.261  25.394  1.00  0.00     0.218 HD
ENDBRANCH  10  12
BRANCH   4  14
HETATM   14  C5          0      44.291  41.579  22.319  1.00  0.00     0.025 C 
HETATM   15  C6          0      44.086  41.150  21.015  1.00  0.00     0.004 C 
HETATM   16  C7          0      43.504  42.048  20.126  1.00  0.00     0.026 C 
HETATM   17  C8          0      43.257  43.370  20.481  1.00  0.00     0.112 C 
HETATM   18  C10         0      44.046  43.849  21.518  1.00  0.00     0.112 C 
HETATM   19  C12         0      44.545  42.938  22.442  1.00  0.00     0.028 C 
BRANCH  17  20
HETATM   20  O9          0      42.167  44.050  19.968  1.00  0.00    -0.357 OA
HETATM   21  H9          0      41.352  43.629  19.720  1.00  0.00     0.218 HD
ENDBRANCH  17  20
BRANCH  18  22
HETATM   22  O11         0      43.976  45.208  21.785  1.00  0.00    -0.357 OA
HETATM   23  H11         0      43.399  45.726  21.235  1.00  0.00     0.218 HD
ENDBRANCH  18  22
ENDBRANCH   4  14
BRANCH   8  24
HETATM   24  O17         0      47.912  39.435  27.591  1.00  0.00    -0.359 OA
HETATM   25  H17         0      48.554  38.914  27.123  1.00  0.00     0.218 HD
ENDBRANCH   8  24
TORSDOF 5
ENDMDL
MODEL 6
REMARK VINA RESULT:      -6.4      2.581      6.733
REMARK  5 active torsions:
REMARK  status: ('A' for Active; 'I' for Inactive)
REMARK    1  A    between atoms: C4_4  and  C5_5 
REMARK    2  A    between atoms: C8_8  and  O9_9 
REMARK    3  A    between atoms: C10_11  and  O11_12 
REMARK    4  A    between atoms: C16_18  and  O17_19 
REMARK    5  A    between atoms: C19_22  and  O20_23 
ROOT
HETATM    1  O1          0      44.831  44.257  23.410  1.00  0.00    -0.286 OA
HETATM    2  C2          0      44.882  43.665  24.523  1.00  0.00     0.201 C 
HETATM    3  C3          0      45.690  42.563  24.751  1.00  0.00     0.067 C 
HETATM    4  C4          0      45.651  41.867  25.954  1.00  0.00     0.103 C 
HETATM    5  O13         0      44.834  42.287  26.904  1.00  0.00    -0.307 OA
HETATM    6  C14         0      44.019  43.304  26.726  1.00  0.00     0.107 C 
HETATM    7  C15         0      42.907  43.499  27.532  1.00  0.00     0.049 C 
HETATM    8  C16         0      41.918  44.414  27.189  1.00  0.00     0.093 C 
HETATM    9  C18         0      42.336  45.445  26.356  1.00  0.00     0.048 C 
HETATM   10  C19         0      43.472  45.301  25.571  1.00  0.00     0.096 C 
HETATM   11  C21         0      44.195  44.141  25.629  1.00  0.00     0.084 C 
ENDROOT
BRANCH  10  12
HETATM   12  O20         0      43.634  46.115  24.454  1.00  0.00    -0.359 OA
HETATM   13  H20         0      42.933  46.717  24.236  1.00  0.00     0.218 HD
ENDBRANCH  10  12
BRANCH   4  14
HETATM   14  C5          0      46.026  40.453  25.922  1.00  0.00     0.025 C 
HETATM   15  C6          0      47.308  40.022  25.616  1.00  0.00     0.004 C 
HETATM   16  C7          0      47.809  38.934  26.324  1.00  0.00     0.026 C 
HETATM   17  C8          0      47.016  38.214  27.211  1.00  0.00     0.112 C 
HETATM   18  C10         0      45.651  38.307  26.976  1.00  0.00     0.112 C 
HETATM   19  C12         0      45.167  39.445  26.341  1.00  0.00     0.028 C 
BRANCH  17  20
HETATM   20  O9          0      47.563  37.641  28.346  1.00  0.00    -0.357 OA
HETATM   21  H9          0      48.464  37.768  28.620  1.00  0.00     0.218 HD
ENDBRANCH  17  20
BRANCH  18  22
HETATM   22  O11         0      44.828  37.464  27.709  1.00  0.00    -0.357 OA
HETATM   23  H11         0      43.962  37.790  27.926  1.00  0.00     0.218 HD
ENDBRANCH  18  22
ENDBRANCH   4  14
BRANCH   8  24
HETATM   24  O17         0      40.562  44.130  27.385  1.00  0.00    -0.359 OA
HETATM   25  H17         0      40.202  43.988  28.252  1.00  0.00     0.218 HD
ENDBRANCH   8  24
TORSDOF 5
ENDMDL
MODEL 7
REMARK VINA RESULT:      -6.2      3.050      4.247
REMARK  5 active torsions:
REMARK  status: ('A' for Active; 'I' for Inactive)
REMARK    1  A    between atoms: C4_4  and  C5_5 
REMARK    2  A    between atoms: C8_8  and  O9_9 
REMARK    3  A    between atoms: C10_11  and  O11_12 
REMARK    4  A    between atoms: C16_18  and  O17_19 
REMARK    5  A    between atoms: C19_22  and  O20_23 
ROOT
HETATM    1  O1          0      48.481  41.111  27.566  1.00  0.00    -0.286 OA
HETATM    2  C2          0      47.838  40.875  26.507  1.00  0.00     0.201 C 
HETATM    3  C3          0      47.829  41.740  25.426  1.00  0.00     0.067 C 
HETATM    4  C4          0      47.031  41.506  24.312  1.00  0.00     0.103 C 
HETATM    5  O13         0      46.281  40.418  24.285  1.00  0.00    -0.307 OA
HETATM    6  C14         0      46.224  39.584  25.300  1.00  0.00     0.107 C 
HETATM    7  C15         0      45.175  38.689  25.453  1.00  0.00     0.049 C 
HETATM    8  C16         0      44.984  37.996  26.642  1.00  0.00     0.093 C 
HETATM    9  C18         0      46.127  37.833  27.416  1.00  0.00     0.048 C 
HETATM   10  C19         0      47.214  38.682  27.257  1.00  0.00     0.096 C 
HETATM   11  C21         0      47.166  39.677  26.319  1.00  0.00     0.084 C 
ENDROOT
BRANCH  10  12
HETATM   12  O20         0      48.141  38.801  28.288  1.00  0.00    -0.359 OA
HETATM   13  H20         0      48.886  39.373  28.152  1.00  0.00     0.218 HD
ENDBRANCH  10  12
BRANCH   4  14
HETATM   14  C5          0      46.609  42.671  23.533  1.00  0.00     0.025 C 
HETATM   15  C6          0      47.081  42.932  22.254  1.00  0.00     0.004 C 
HETATM   16  C7          0      46.180  43.449  21.328  1.00  0.00     0.026 C 
HETATM   17  C8          0      44.891  43.821  21.694  1.00  0.00     0.112 C 
HETATM   18  C10         0      44.733  44.117  23.041  1.00  0.00     0.112 C 
HETATM   19  C12         0      45.593  43.520  23.954  1.00  0.00     0.028 C 
BRANCH  17  20
HETATM   20  O9          0      43.837  43.688  20.807  1.00  0.00    -0.357 OA
HETATM   21  H9          0      43.886  43.924  19.888  1.00  0.00     0.218 HD
ENDBRANCH  17  20
BRANCH  18  22
HETATM   22  O11         0      43.520  44.673  23.424  1.00  0.00    -0.357 OA
HETATM   23  H11         0      42.737  44.318  23.019  1.00  0.00     0.218 HD
ENDBRANCH  18  22
ENDBRANCH   4  14
BRANCH   8  24
HETATM   24  O17         0      43.704  37.786  27.167  1.00  0.00    -0.359 OA
HETATM   25  H17         0      43.564  37.629  28.093  1.00  0.00     0.218 HD
ENDBRANCH   8  24
TORSDOF 5
ENDMDL
MODEL 8
REMARK VINA RESULT:      -6.2      3.863      7.498
REMARK  5 active torsions:
REMARK  status: ('A' for Active; 'I' for Inactive)
REMARK    1  A    between atoms: C4_4  and  C5_5 
REMARK    2  A    between atoms: C8_8  and  O9_9 
REMARK    3  A    between atoms: C10_11  and  O11_12 
REMARK    4  A    between atoms: C16_18  and  O17_19 
REMARK    5  A    between atoms: C19_22  and  O20_23 
ROOT
HETATM    1  O1          0      42.315  43.320  29.199  1.00  0.00    -0.286 OA
HETATM    2  C2          0      42.957  43.674  28.172  1.00  0.00     0.201 C 
HETATM    3  C3          0      43.559  42.768  27.315  1.00  0.00     0.067 C 
HETATM    4  C4          0      44.347  43.187  26.248  1.00  0.00     0.103 C 
HETATM    5  O13         0      44.501  44.483  26.044  1.00  0.00    -0.307 OA
HETATM    6  C14         0      43.983  45.385  26.850  1.00  0.00     0.107 C 
HETATM    7  C15         0      44.454  46.689  26.887  1.00  0.00     0.049 C 
HETATM    8  C16         0      44.084  47.561  27.904  1.00  0.00     0.093 C 
HETATM    9  C18         0      42.876  47.263  28.523  1.00  0.00     0.048 C 
HETATM   10  C19         0      42.352  45.978  28.465  1.00  0.00     0.096 C 
HETATM   11  C21         0      43.022  45.002  27.780  1.00  0.00     0.084 C 
ENDROOT
BRANCH  10  12
HETATM   12  O20         0      41.415  45.583  29.414  1.00  0.00    -0.359 OA
HETATM   13  H20         0      40.676  45.064  29.121  1.00  0.00     0.218 HD
ENDBRANCH  10  12
BRANCH   4  14
HETATM   14  C5          0      45.392  42.271  25.787  1.00  0.00     0.025 C 
HETATM   15  C6          0      46.012  42.399  24.553  1.00  0.00     0.004 C 
HETATM   16  C7          0      47.375  42.128  24.485  1.00  0.00     0.026 C 
HETATM   17  C8          0      48.072  41.618  25.575  1.00  0.00     0.112 C 
HETATM   18  C10         0      47.286  40.948  26.504  1.00  0.00     0.112 C 
HETATM   19  C12         0      45.945  41.299  26.610  1.00  0.00     0.028 C 
BRANCH  17  20
HETATM   20  O9          0      49.397  41.953  25.789  1.00  0.00    -0.357 OA
HETATM   21  H9          0      49.745  42.217  26.633  1.00  0.00     0.218 HD
ENDBRANCH  17  20
BRANCH  18  22
HETATM   22  O11         0      47.950  40.260  27.509  1.00  0.00    -0.357 OA
HETATM   23  H11         0      48.818  39.932  27.304  1.00  0.00     0.218 HD
ENDBRANCH  18  22
ENDBRANCH   4  14
BRANCH   8  24
HETATM   24  O17         0      45.005  48.446  28.476  1.00  0.00    -0.359 OA
HETATM   25  H17         0      45.941  48.340  28.355  1.00  0.00     0.218 HD
ENDBRANCH   8  24
TORSDOF 5
ENDMDL
MODEL 9
REMARK VINA RESULT:      -6.1      2.552      7.197
REMARK  5 active torsions:
REMARK  status: ('A' for Active; 'I' for Inactive)
REMARK    1  A    between atoms: C4_4  and  C5_5 
REMARK    2  A    between atoms: C8_8  and  O9_9 
REMARK    3  A    between atoms: C10_11  and  O11_12 
REMARK    4  A    between atoms: C16_18  and  O17_19 
REMARK    5  A    between atoms: C19_22  and  O20_23 
ROOT
HETATM    1  O1          0      42.665  43.939  21.250  1.00  0.00    -0.286 OA
HETATM    2  C2          0      43.371  43.271  22.054  1.00  0.00     0.201 C 
HETATM    3  C3          0      43.598  41.914  21.904  1.00  0.00     0.067 C 
HETATM    4  C4          0      44.294  41.182  22.860  1.00  0.00     0.103 C 
HETATM    5  O13         0      44.764  41.810  23.923  1.00  0.00    -0.307 OA
HETATM    6  C14         0      44.545  43.090  24.132  1.00  0.00     0.107 C 
HETATM    7  C15         0      44.674  43.657  25.391  1.00  0.00     0.049 C 
HETATM    8  C16         0      44.201  44.936  25.658  1.00  0.00     0.093 C 
HETATM    9  C18         0      44.104  45.770  24.550  1.00  0.00     0.048 C 
HETATM   10  C19         0      44.020  45.236  23.272  1.00  0.00     0.096 C 
HETATM   11  C21         0      44.050  43.879  23.099  1.00  0.00     0.084 C 
ENDROOT
BRANCH  10  12
HETATM   12  O20         0      43.496  46.013  22.243  1.00  0.00    -0.359 OA
HETATM   13  H20         0      42.562  45.961  22.078  1.00  0.00     0.218 HD
ENDBRANCH  10  12
BRANCH   4  14
HETATM   14  C5          0      43.987  39.754  22.964  1.00  0.00     0.025 C 
HETATM   15  C6          0      43.575  38.992  21.879  1.00  0.00     0.004 C 
HETATM   16  C7          0      44.055  37.690  21.787  1.00  0.00     0.026 C 
HETATM   17  C8          0      44.810  37.116  22.805  1.00  0.00     0.112 C 
HETATM   18  C10         0      44.629  37.692  24.056  1.00  0.00     0.112 C 
HETATM   19  C12         0      44.231  39.022  24.119  1.00  0.00     0.028 C 
BRANCH  17  20
HETATM   20  O9          0      45.803  36.197  22.519  1.00  0.00    -0.357 OA
HETATM   21  H9          0      45.944  35.400  23.017  1.00  0.00     0.218 HD
ENDBRANCH  17  20
BRANCH  18  22
HETATM   22  O11         0      45.209  37.043  25.136  1.00  0.00    -0.357 OA
HETATM   23  H11         0      44.801  36.233  25.421  1.00  0.00     0.218 HD
ENDBRANCH  18  22
ENDBRANCH   4  14
BRANCH   8  24
HETATM   24  O17         0      43.562  45.240  26.866  1.00  0.00    -0.359 OA
HETATM   25  H17         0      44.015  45.687  27.571  1.00  0.00     0.218 HD
ENDBRANCH   8  24
TORSDOF 5
ENDMDL
