MODEL 1
REMARK VINA RESULT:      -7.4      0.000      0.000
REMARK  5 active torsions:
REMARK  status: ('A' for Active; 'I' for Inactive)
REMARK    1  A    between atoms: C4_4  and  C5_5 
REMARK    2  A    between atoms: C8_8  and  O9_9 
REMARK    3  A    between atoms: C10_11  and  O11_12 
REMARK    4  A    between atoms: C16_18  and  O17_19 
REMARK    5  A    between atoms: C19_22  and  O20_23 
ROOT
HETATM    1  O1          0      34.302  83.289 -30.375  1.00  0.00    -0.286 OA
HETATM    2  C2          0      35.509  83.405 -30.027  1.00  0.00     0.201 C 
HETATM    3  C3          0      36.565  83.186 -30.895  1.00  0.00     0.067 C 
HETATM    4  C4          0      37.885  83.220 -30.460  1.00  0.00     0.103 C 
HETATM    5  O13         0      38.128  83.489 -29.189  1.00  0.00    -0.307 OA
HETATM    6  C14         0      37.162  83.668 -28.315  1.00  0.00     0.107 C 
HETATM    7  C15         0      37.379  83.551 -26.950  1.00  0.00     0.049 C 
HETATM    8  C16         0      36.320  83.488 -26.053  1.00  0.00     0.093 C 
HETATM    9  C18         0      35.137  84.064 -26.500  1.00  0.00     0.048 C 
HETATM   10  C19         0      34.906  84.239 -27.858  1.00  0.00     0.096 C 
HETATM   11  C21         0      35.858  83.856 -28.763  1.00  0.00     0.084 C 
ENDROOT
BRANCH  10  12
HETATM   12  O20         0      33.600  84.396 -28.311  1.00  0.00    -0.359 OA
HETATM   13  H20         0      33.131  85.180 -28.053  1.00  0.00     0.218 HD
ENDBRANCH  10  12
BRANCH   4  14
HETATM   14  C5          0      38.859  82.424 -31.210  1.00  0.00     0.025 C 
HETATM   15  C6          0      39.630  82.951 -32.235  1.00  0.00     0.004 C 
HETATM   16  C7          0      40.949  82.519 -32.338  1.00  0.00     0.026 C 
HETATM   17  C8          0      41.446  81.499 -31.534  1.00  0.00     0.112 C 
HETATM   18  C10         0      40.482  80.640 -31.024  1.00  0.00     0.112 C 
HETATM   19  C12         0      39.191  81.124 -30.853  1.00  0.00     0.028 C 
BRANCH  17  20
HETATM   20  O9          0      42.768  81.500 -31.125  1.00  0.00    -0.357 OA
HETATM   21  H9          0      43.283  82.290 -31.005  1.00  0.00     0.218 HD
ENDBRANCH  17  20
BRANCH  18  22
HETATM   22  O11         0      40.936  79.501 -30.375  1.00  0.00    -0.357 OA
HETATM   23  H11         0      41.257  79.611 -29.487  1.00  0.00     0.218 HD
ENDBRANCH  18  22
ENDBRANCH   4  14
BRANCH   8  24
HETATM   24  O17         0      36.348  82.625 -24.952  1.00  0.00    -0.359 OA
HETATM   25  H17         0      36.865  81.828 -24.955  1.00  0.00     0.218 HD
ENDBRANCH   8  24
TORSDOF 5
ENDMDL
MODEL 2
REMARK VINA RESULT:      -7.4      1.698      6.711
REMARK  5 active torsions:
REMARK  status: ('A' for Active; 'I' for Inactive)
REMARK    1  A    between atoms: C4_4  and  C5_5 
REMARK    2  A    between atoms: C8_8  and  O9_9 
REMARK    3  A    between atoms: C10_11  and  O11_12 
REMARK    4  A    between atoms: C16_18  and  O17_19 
REMARK    5  A    between atoms: C19_22  and  O20_23 
ROOT
HETATM    1  O1          0      38.719  80.413 -29.165  1.00  0.00    -0.286 OA
HETATM    2  C2          0      38.641  81.625 -29.505  1.00  0.00     0.201 C 
HETATM    3  C3          0      37.655  82.475 -29.034  1.00  0.00     0.067 C 
HETATM    4  C4          0      37.531  83.778 -29.504  1.00  0.00     0.103 C 
HETATM    5  O13         0      38.392  84.212 -30.407  1.00  0.00    -0.307 OA
HETATM    6  C14         0      39.323  83.435 -30.915  1.00  0.00     0.107 C 
HETATM    7  C15         0      39.953  83.736 -32.114  1.00  0.00     0.049 C 
HETATM    8  C16         0      40.741  82.799 -32.771  1.00  0.00     0.093 C 
HETATM    9  C18         0      41.282  81.812 -31.956  1.00  0.00     0.048 C 
HETATM   10  C19         0      40.704  81.517 -30.728  1.00  0.00     0.096 C 
HETATM   11  C21         0      39.604  82.215 -30.310  1.00  0.00     0.084 C 
ENDROOT
BRANCH  10  12
HETATM   12  O20         0      40.959  80.284 -30.136  1.00  0.00    -0.359 OA
HETATM   13  H20         0      41.738  79.813 -30.405  1.00  0.00     0.218 HD
ENDBRANCH  10  12
BRANCH   4  14
HETATM   14  C5          0      36.200  84.385 -29.450  1.00  0.00     0.025 C 
HETATM   15  C6          0      35.480  84.721 -30.588  1.00  0.00     0.004 C 
HETATM   16  C7          0      34.105  84.510 -30.566  1.00  0.00     0.026 C 
HETATM   17  C8          0      33.447  84.107 -29.409  1.00  0.00     0.112 C 
HETATM   18  C10         0      34.112  84.411 -28.228  1.00  0.00     0.112 C 
HETATM   19  C12         0      35.496  84.532 -28.262  1.00  0.00     0.028 C 
BRANCH  17  20
HETATM   20  O9          0      32.335  83.287 -29.475  1.00  0.00    -0.357 OA
HETATM   21  H9          0      31.769  83.103 -28.734  1.00  0.00     0.218 HD
ENDBRANCH  17  20
BRANCH  18  22
HETATM   22  O11         0      33.418  84.202 -27.045  1.00  0.00    -0.357 OA
HETATM   23  H11         0      33.059  84.971 -26.616  1.00  0.00     0.218 HD
ENDBRANCH  18  22
ENDBRANCH   4  14
BRANCH   8  24
HETATM   24  O17         0      40.710  82.667 -34.164  1.00  0.00    -0.359 OA
HETATM   25  H17         0      40.788  81.821 -34.587  1.00  0.00     0.218 HD
ENDBRANCH   8  24
TORSDOF 5
ENDMDL
MODEL 3
REMARK VINA RESULT:      -7.3      1.434      2.915
REMARK  5 active torsions:
REMARK  status: ('A' for Active; 'I' for Inactive)
REMARK    1  A    between atoms: C4_4  and  C5_5 
REMARK    2  A    between atoms: C8_8  and  O9_9 
REMARK    3  A    between atoms: C10_11  and  O11_12 
REMARK    4  A    between atoms: C16_18  and  O17_19 
REMARK    5  A    between atoms: C19_22  and  O20_23 
ROOT
HETATM    1  O1          0      39.119  83.144 -26.293  1.00  0.00    -0.286 OA
HETATM    2  C2          0      38.563  82.817 -27.377  1.00  0.00     0.201 C 
HETATM    3  C3          0      39.199  82.066 -28.350  1.00  0.00     0.067 C 
HETATM    4  C4          0      38.601  81.806 -29.578  1.00  0.00     0.103 C 
HETATM    5  O13         0      37.386  82.275 -29.803  1.00  0.00    -0.307 OA
HETATM    6  C14         0      36.752  83.024 -28.928  1.00  0.00     0.107 C 
HETATM    7  C15         0      35.687  83.834 -29.295  1.00  0.00     0.049 C 
HETATM    8  C16         0      35.190  84.806 -28.435  1.00  0.00     0.093 C 
HETATM    9  C18         0      35.425  84.571 -27.085  1.00  0.00     0.048 C 
HETATM   10  C19         0      36.453  83.729 -26.684  1.00  0.00     0.096 C 
HETATM   11  C21         0      37.231  83.112 -27.625  1.00  0.00     0.084 C 
ENDROOT
BRANCH  10  12
HETATM   12  O20         0      36.955  83.836 -25.391  1.00  0.00    -0.359 OA
HETATM   13  H20         0      37.355  84.659 -25.136  1.00  0.00     0.218 HD
ENDBRANCH  10  12
BRANCH   4  14
HETATM   14  C5          0      39.487  81.567 -30.718  1.00  0.00     0.025 C 
HETATM   15  C6          0      39.175  81.967 -32.010  1.00  0.00     0.004 C 
HETATM   16  C7          0      40.210  82.455 -32.801  1.00  0.00     0.026 C 
HETATM   17  C8          0      41.533  82.422 -32.374  1.00  0.00     0.112 C 
HETATM   18  C10         0      41.805  81.467 -31.404  1.00  0.00     0.112 C 
HETATM   19  C12         0      40.771  81.059 -30.570  1.00  0.00     0.028 C 
BRANCH  17  20
HETATM   20  O9          0      42.423  83.413 -32.748  1.00  0.00    -0.357 OA
HETATM   21  H9          0      42.178  84.179 -33.255  1.00  0.00     0.218 HD
ENDBRANCH  17  20
BRANCH  18  22
HETATM   22  O11         0      43.139  81.264 -31.080  1.00  0.00    -0.357 OA
HETATM   23  H11         0      43.701  80.924 -31.766  1.00  0.00     0.218 HD
ENDBRANCH  18  22
ENDBRANCH   4  14
BRANCH   8  24
HETATM   24  O17         0      34.796  86.064 -28.905  1.00  0.00    -0.359 OA
HETATM   25  H17         0      34.440  86.181 -29.778  1.00  0.00     0.218 HD
ENDBRANCH   8  24
TORSDOF 5
ENDMDL
MODEL 4
REMARK VINA RESULT:      -6.8      1.875      2.226
REMARK  5 active torsions:
REMARK  status: ('A' for Active; 'I' for Inactive)
REMARK    1  A    between atoms: C4_4  and  C5_5 
REMARK    2  A    between atoms: C8_8  and  O9_9 
REMARK    3  A    between atoms: C10_11  and  O11_12 
REMARK    4  A    between atoms: C16_18  and  O17_19 
REMARK    5  A    between atoms: C19_22  and  O20_23 
ROOT
HETATM    1  O1          0      33.970  83.242 -30.260  1.00  0.00    -0.286 OA
HETATM    2  C2          0      35.154  83.554 -29.954  1.00  0.00     0.201 C 
HETATM    3  C3          0      36.186  83.581 -30.877  1.00  0.00     0.067 C 
HETATM    4  C4          0      37.499  83.827 -30.494  1.00  0.00     0.103 C 
HETATM    5  O13         0      37.756  84.059 -29.219  1.00  0.00    -0.307 OA
HETATM    6  C14         0      36.820  84.008 -28.296  1.00  0.00     0.107 C 
HETATM    7  C15         0      37.126  83.850 -26.952  1.00  0.00     0.049 C 
HETATM    8  C16         0      36.143  83.542 -26.020  1.00  0.00     0.093 C 
HETATM    9  C18         0      34.855  83.921 -26.378  1.00  0.00     0.048 C 
HETATM   10  C19         0      34.526  84.133 -27.710  1.00  0.00     0.096 C 
HETATM   11  C21         0      35.483  83.983 -28.677  1.00  0.00     0.084 C 
ENDROOT
BRANCH  10  12
HETATM   12  O20         0      33.191  84.078 -28.099  1.00  0.00    -0.359 OA
HETATM   13  H20         0      32.927  83.378 -28.684  1.00  0.00     0.218 HD
ENDBRANCH  10  12
BRANCH   4  14
HETATM   14  C5          0      38.558  83.267 -31.336  1.00  0.00     0.025 C 
HETATM   15  C6          0      38.357  82.180 -32.173  1.00  0.00     0.004 C 
HETATM   16  C7          0      38.989  82.195 -33.412  1.00  0.00     0.026 C 
HETATM   17  C8          0      39.896  83.191 -33.756  1.00  0.00     0.112 C 
HETATM   18  C10         0      40.491  83.831 -32.677  1.00  0.00     0.112 C 
HETATM   19  C12         0      39.800  83.875 -31.472  1.00  0.00     0.028 C 
BRANCH  17  20
HETATM   20  O9          0      40.010  83.624 -35.065  1.00  0.00    -0.357 OA
HETATM   21  H9          0      40.644  83.278 -35.683  1.00  0.00     0.218 HD
ENDBRANCH  17  20
BRANCH  18  22
HETATM   22  O11         0      41.538  84.697 -32.960  1.00  0.00    -0.357 OA
HETATM   23  H11         0      42.040  84.522 -33.747  1.00  0.00     0.218 HD
ENDBRANCH  18  22
ENDBRANCH   4  14
BRANCH   8  24
HETATM   24  O17         0      36.381  82.634 -24.982  1.00  0.00    -0.359 OA
HETATM   25  H17         0      35.672  82.170 -24.553  1.00  0.00     0.218 HD
ENDBRANCH   8  24
TORSDOF 5
ENDMDL
MODEL 5
REMARK VINA RESULT:      -6.7      1.521      6.426
REMARK  5 active torsions:
REMARK  status: ('A' for Active; 'I' for Inactive)
REMARK    1  A    between atoms: C4_4  and  C5_5 
REMARK    2  A    between atoms: C8_8  and  O9_9 
REMARK    3  A    between atoms: C10_11  and  O11_12 
REMARK    4  A    between atoms: C16_18  and  O17_19 
REMARK    5  A    between atoms: C19_22  and  O20_23 
ROOT
HETATM    1  O1          0      39.508  84.419 -32.738  1.00  0.00    -0.286 OA
HETATM    2  C2          0      39.053  83.748 -31.770  1.00  0.00     0.201 C 
HETATM    3  C3          0      37.939  84.137 -31.046  1.00  0.00     0.067 C 
HETATM    4  C4          0      37.520  83.435 -29.921  1.00  0.00     0.103 C 
HETATM    5  O13         0      38.196  82.361 -29.555  1.00  0.00    -0.307 OA
HETATM    6  C14         0      39.282  81.970 -30.185  1.00  0.00     0.107 C 
HETATM    7  C15         0      40.203  81.116 -29.595  1.00  0.00     0.049 C 
HETATM    8  C16         0      41.458  80.911 -30.154  1.00  0.00     0.093 C 
HETATM    9  C18         0      41.538  81.146 -31.521  1.00  0.00     0.048 C 
HETATM   10  C19         0      40.606  81.957 -32.152  1.00  0.00     0.096 C 
HETATM   11  C21         0      39.590  82.517 -31.426  1.00  0.00     0.084 C 
ENDROOT
BRANCH  10  12
HETATM   12  O20         0      40.924  82.532 -33.379  1.00  0.00    -0.359 OA
HETATM   13  H20         0      40.768  82.020 -34.164  1.00  0.00     0.218 HD
ENDBRANCH  10  12
BRANCH   4  14
HETATM   14  C5          0      36.778  84.182 -28.904  1.00  0.00     0.025 C 
HETATM   15  C6          0      35.798  85.112 -29.219  1.00  0.00     0.004 C 
HETATM   16  C7          0      34.673  85.164 -28.403  1.00  0.00     0.026 C 
HETATM   17  C8          0      34.582  84.412 -27.236  1.00  0.00     0.112 C 
HETATM   18  C10         0      35.803  84.033 -26.694  1.00  0.00     0.112 C 
HETATM   19  C12         0      36.893  83.907 -27.547  1.00  0.00     0.028 C 
BRANCH  17  20
HETATM   20  O9          0      33.364  83.921 -26.802  1.00  0.00    -0.357 OA
HETATM   21  H9          0      32.635  84.473 -26.542  1.00  0.00     0.218 HD
ENDBRANCH  17  20
BRANCH  18  22
HETATM   22  O11         0      35.778  83.448 -25.437  1.00  0.00    -0.357 OA
HETATM   23  H11         0      36.594  83.078 -25.118  1.00  0.00     0.218 HD
ENDBRANCH  18  22
ENDBRANCH   4  14
BRANCH   8  24
HETATM   24  O17         0      42.604  80.811 -29.356  1.00  0.00    -0.359 OA
HETATM   25  H17         0      42.563  80.500 -28.460  1.00  0.00     0.218 HD
ENDBRANCH   8  24
TORSDOF 5
ENDMDL
MODEL 6
REMARK VINA RESULT:      -6.7      1.684      3.263
REMARK  5 active torsions:
REMARK  status: ('A' for Active; 'I' for Inactive)
REMARK    1  A    between atoms: C4_4  and  C5_5 
REMARK    2  A    between atoms: C8_8  and  O9_9 
REMARK    3  A    between atoms: C10_11  and  O11_12 
REMARK    4  A    between atoms: C16_18  and  O17_19 
REMARK    5  A    between atoms: C19_22  and  O20_23 
ROOT
HETATM    1  O1          0      36.637  84.717 -26.469  1.00  0.00    -0.286 OA
HETATM    2  C2          0      36.638  84.020 -27.520  1.00  0.00     0.201 C 
HETATM    3  C3          0      37.725  83.259 -27.916  1.00  0.00     0.067 C 
HETATM    4  C4          0      37.738  82.582 -29.130  1.00  0.00     0.103 C 
HETATM    5  O13         0      36.673  82.657 -29.909  1.00  0.00    -0.307 OA
HETATM    6  C14         0      35.630  83.395 -29.599  1.00  0.00     0.107 C 
HETATM    7  C15         0      34.708  83.796 -30.555  1.00  0.00     0.049 C 
HETATM    8  C16         0      33.761  84.774 -30.278  1.00  0.00     0.093 C 
HETATM    9  C18         0      33.443  84.920 -28.933  1.00  0.00     0.048 C 
HETATM   10  C19         0      34.322  84.486 -27.950  1.00  0.00     0.096 C 
HETATM   11  C21         0      35.503  83.895 -28.308  1.00  0.00     0.084 C 
ENDROOT
BRANCH  10  12
HETATM   12  O20         0      34.218  85.010 -26.665  1.00  0.00    -0.359 OA
HETATM   13  H20         0      34.074  84.405 -25.948  1.00  0.00     0.218 HD
ENDBRANCH  10  12
BRANCH   4  14
HETATM   14  C5          0      39.043  82.330 -29.742  1.00  0.00     0.025 C 
HETATM   15  C6          0      39.945  81.404 -29.237  1.00  0.00     0.004 C 
HETATM   16  C7          0      40.675  80.651 -30.150  1.00  0.00     0.026 C 
HETATM   17  C8          0      40.613  80.900 -31.517  1.00  0.00     0.112 C 
HETATM   18  C10         0      40.216  82.187 -31.854  1.00  0.00     0.112 C 
HETATM   19  C12         0      39.415  82.887 -30.959  1.00  0.00     0.028 C 
BRANCH  17  20
HETATM   20  O9          0      40.735  79.869 -32.432  1.00  0.00    -0.357 OA
HETATM   21  H9          0      41.195  79.057 -32.254  1.00  0.00     0.218 HD
ENDBRANCH  17  20
BRANCH  18  22
HETATM   22  O11         0      40.318  82.547 -33.190  1.00  0.00    -0.357 OA
HETATM   23  H11         0      41.143  82.926 -33.471  1.00  0.00     0.218 HD
ENDBRANCH  18  22
ENDBRANCH   4  14
BRANCH   8  24
HETATM   24  O17         0      33.419  85.747 -31.224  1.00  0.00    -0.359 OA
HETATM   25  H17         0      32.554  86.140 -31.245  1.00  0.00     0.218 HD
ENDBRANCH   8  24
TORSDOF 5
ENDMDL
MODEL 7
REMARK VINA RESULT:      -6.6      1.920      6.549
REMARK  5 active torsions:
REMARK  status: ('A' for Active; 'I' for Inactive)
REMARK    1  A    between atoms: C4_4  and  C5_5 
REMARK    2  A    between atoms: C8_8  and  O9_9 
REMARK    3  A    between atoms: C10_11  and  O11_12 
REMARK    4  A    between atoms: C16_18  and  O17_19 
REMARK    5  A    between atoms: C19_22  and  O20_23 
ROOT
HETATM    1  O1          0      40.201  80.308 -29.833  1.00  0.00    -0.286 OA
HETATM    2  C2          0      39.353  81.188 -30.150  1.00  0.00     0.201 C 
HETATM    3  C3          0      39.006  82.232 -29.310  1.00  0.00     0.067 C 
HETATM    4  C4          0      37.996  83.128 -29.641  1.00  0.00     0.103 C 
HETATM    5  O13         0      37.372  82.982 -30.797  1.00  0.00    -0.307 OA
HETATM    6  C14         0      37.637  81.986 -31.614  1.00  0.00     0.107 C 
HETATM    7  C15         0      36.746  81.596 -32.603  1.00  0.00     0.049 C 
HETATM    8  C16         0      36.909  80.398 -33.289  1.00  0.00     0.093 C 
HETATM    9  C18         0      38.212  79.916 -33.326  1.00  0.00     0.048 C 
HETATM   10  C19         0      39.142  80.322 -32.379  1.00  0.00     0.096 C 
HETATM   11  C21         0      38.778  81.218 -31.411  1.00  0.00     0.084 C 
ENDROOT
BRANCH  10  12
HETATM   12  O20         0      40.269  79.538 -32.152  1.00  0.00    -0.359 OA
HETATM   13  H20         0      40.916  79.478 -32.844  1.00  0.00     0.218 HD
ENDBRANCH  10  12
BRANCH   4  14
HETATM   14  C5          0      37.290  83.780 -28.536  1.00  0.00     0.025 C 
HETATM   15  C6          0      36.315  84.746 -28.733  1.00  0.00     0.004 C 
HETATM   16  C7          0      35.211  84.730 -27.887  1.00  0.00     0.026 C 
HETATM   17  C8          0      35.140  83.869 -26.797  1.00  0.00     0.112 C 
HETATM   18  C10         0      36.369  83.427 -26.327  1.00  0.00     0.112 C 
HETATM   19  C12         0      37.436  83.372 -27.216  1.00  0.00     0.028 C 
BRANCH  17  20
HETATM   20  O9          0      33.927  83.351 -26.380  1.00  0.00    -0.357 OA
HETATM   21  H9          0      33.252  83.044 -26.974  1.00  0.00     0.218 HD
ENDBRANCH  17  20
BRANCH  18  22
HETATM   22  O11         0      36.368  82.721 -25.132  1.00  0.00    -0.357 OA
HETATM   23  H11         0      35.572  82.752 -24.615  1.00  0.00     0.218 HD
ENDBRANCH  18  22
ENDBRANCH   4  14
BRANCH   8  24
HETATM   24  O17         0      35.815  79.588 -33.612  1.00  0.00    -0.359 OA
HETATM   25  H17         0      35.381  79.053 -32.959  1.00  0.00     0.218 HD
ENDBRANCH   8  24
TORSDOF 5
ENDMDL
MODEL 8
REMARK VINA RESULT:      -6.3      2.267      2.957
REMARK  5 active torsions:
REMARK  status: ('A' for Active; 'I' for Inactive)
REMARK    1  A    between atoms: C4_4  and  C5_5 
REMARK    2  A    between atoms: C8_8  and  O9_9 
REMARK    3  A    between atoms: C10_11  and  O11_12 
REMARK    4  A    between atoms: C16_18  and  O17_19 
REMARK    5  A    between atoms: C19_22  and  O20_23 
ROOT
HETATM    1  O1          0      33.146  83.358 -29.472  1.00  0.00    -0.286 OA
HETATM    2  C2          0      34.316  83.806 -29.619  1.00  0.00     0.201 C 
HETATM    3  C3          0      34.907  83.967 -30.861  1.00  0.00     0.067 C 
HETATM    4  C4          0      36.233  84.365 -30.990  1.00  0.00     0.103 C 
HETATM    5  O13         0      36.931  84.613 -29.895  1.00  0.00    -0.307 OA
HETATM    6  C14         0      36.429  84.440 -28.692  1.00  0.00     0.107 C 
HETATM    7  C15         0      37.240  84.306 -27.574  1.00  0.00     0.049 C 
HETATM    8  C16         0      36.727  83.873 -26.358  1.00  0.00     0.093 C 
HETATM    9  C18         0      35.367  84.099 -26.181  1.00  0.00     0.048 C 
HETATM   10  C19         0      34.534  84.283 -27.276  1.00  0.00     0.096 C 
HETATM   11  C21         0      35.059  84.259 -28.540  1.00  0.00     0.084 C 
ENDROOT
BRANCH  10  12
HETATM   12  O20         0      33.166  84.072 -27.134  1.00  0.00    -0.359 OA
HETATM   13  H20         0      32.746  83.458 -27.725  1.00  0.00     0.218 HD
ENDBRANCH  10  12
BRANCH   4  14
HETATM   14  C5          0      36.944  83.945 -32.199  1.00  0.00     0.025 C 
HETATM   15  C6          0      38.319  83.766 -32.239  1.00  0.00     0.004 C 
HETATM   16  C7          0      38.809  82.703 -32.990  1.00  0.00     0.026 C 
HETATM   17  C8          0      37.974  81.924 -33.784  1.00  0.00     0.112 C 
HETATM   18  C10         0      36.793  82.546 -34.167  1.00  0.00     0.112 C 
HETATM   19  C12         0      36.280  83.549 -33.353  1.00  0.00     0.028 C 
BRANCH  17  20
HETATM   20  O9          0      38.230  80.578 -33.975  1.00  0.00    -0.357 OA
HETATM   21  H9          0      37.586  79.959 -34.300  1.00  0.00     0.218 HD
ENDBRANCH  17  20
BRANCH  18  22
HETATM   22  O11         0      36.014  81.890 -35.109  1.00  0.00    -0.357 OA
HETATM   23  H11         0      36.217  82.052 -36.024  1.00  0.00     0.218 HD
ENDBRANCH  18  22
ENDBRANCH   4  14
BRANCH   8  24
HETATM   24  O17         0      37.438  82.989 -25.539  1.00  0.00    -0.359 OA
HETATM   25  H17         0      38.385  83.029 -25.466  1.00  0.00     0.218 HD
ENDBRANCH   8  24
TORSDOF 5
ENDMDL
MODEL 9
REMARK VINA RESULT:      -6.2      9.278     11.146
REMARK  5 active torsions:
REMARK  status: ('A' for Active; 'I' for Inactive)
REMARK    1  A    between atoms: C4_4  and  C5_5 
REMARK    2  A    between atoms: C8_8  and  O9_9 
REMARK    3  A    between atoms: C10_11  and  O11_12 
REMARK    4  A    between atoms: C16_18  and  O17_19 
REMARK    5  A    between atoms: C19_22  and  O20_23 
ROOT
HETATM    1  O1          0      34.018  77.900 -31.883  1.00  0.00    -0.286 OA
HETATM    2  C2          0      33.962  77.263 -32.971  1.00  0.00     0.201 C 
HETATM    3  C3          0      32.828  76.584 -33.384  1.00  0.00     0.067 C 
HETATM    4  C4          0      32.825  75.805 -34.536  1.00  0.00     0.103 C 
HETATM    5  O13         0      33.930  75.734 -35.257  1.00  0.00    -0.307 OA
HETATM    6  C14         0      35.044  76.329 -34.890  1.00  0.00     0.107 C 
HETATM    7  C15         0      36.278  75.948 -35.397  1.00  0.00     0.049 C 
HETATM    8  C16         0      37.463  76.396 -34.826  1.00  0.00     0.093 C 
HETATM    9  C18         0      37.362  77.594 -34.128  1.00  0.00     0.048 C 
HETATM   10  C19         0      36.134  78.028 -33.647  1.00  0.00     0.096 C 
HETATM   11  C21         0      35.012  77.280 -33.876  1.00  0.00     0.084 C 
ENDROOT
BRANCH  10  12
HETATM   12  O20         0      36.100  78.956 -32.610  1.00  0.00    -0.359 OA
HETATM   13  H20         0      35.690  79.796 -32.778  1.00  0.00     0.218 HD
ENDBRANCH  10  12
BRANCH   4  14
HETATM   14  C5          0      31.877  74.691 -34.589  1.00  0.00     0.025 C 
HETATM   15  C6          0      30.521  74.869 -34.823  1.00  0.00     0.004 C 
HETATM   16  C7          0      29.875  73.927 -35.618  1.00  0.00     0.026 C 
HETATM   17  C8          0      30.521  72.775 -36.055  1.00  0.00     0.112 C 
HETATM   18  C10         0      31.604  72.388 -35.277  1.00  0.00     0.112 C 
HETATM   19  C12         0      32.285  73.364 -34.559  1.00  0.00     0.028 C 
BRANCH  17  20
HETATM   20  O9          0      30.216  72.214 -37.282  1.00  0.00    -0.357 OA
HETATM   21  H9          0      30.727  72.359 -38.070  1.00  0.00     0.218 HD
ENDBRANCH  17  20
BRANCH  18  22
HETATM   22  O11         0      32.166  71.149 -35.554  1.00  0.00    -0.357 OA
HETATM   23  H11         0      31.575  70.405 -35.579  1.00  0.00     0.218 HD
ENDBRANCH  18  22
ENDBRANCH   4  14
BRANCH   8  24
HETATM   24  O17         0      38.567  75.550 -34.679  1.00  0.00    -0.359 OA
HETATM   25  H17         0      38.474  74.604 -34.673  1.00  0.00     0.218 HD
ENDBRANCH   8  24
TORSDOF 5
ENDMDL
