MODEL 1
REMARK VINA RESULT:      -4.3      0.000      0.000
REMARK  5 active torsions:
REMARK  status: ('A' for Active; 'I' for Inactive)
REMARK    1  A    between atoms: C4_4  and  C5_5 
REMARK    2  A    between atoms: C8_8  and  O9_9 
REMARK    3  A    between atoms: C10_11  and  O11_12 
REMARK    4  A    between atoms: C16_18  and  O17_19 
REMARK    5  A    between atoms: C19_22  and  O20_23 
ROOT
HETATM    1  O1          0      62.043  90.125 -27.875  1.00  0.00    -0.286 OA
HETATM    2  C2          0      62.488  88.994 -27.537  1.00  0.00     0.201 C 
HETATM    3  C3          0      62.005  88.293 -26.445  1.00  0.00     0.067 C 
HETATM    4  C4          0      62.582  87.097 -26.034  1.00  0.00     0.103 C 
HETATM    5  O13         0      63.603  86.615 -26.721  1.00  0.00    -0.307 OA
HETATM    6  C14         0      64.124  87.259 -27.742  1.00  0.00     0.107 C 
HETATM    7  C15         0      65.403  86.983 -28.205  1.00  0.00     0.049 C 
HETATM    8  C16         0      66.042  87.826 -29.106  1.00  0.00     0.093 C 
HETATM    9  C18         0      65.194  88.599 -29.890  1.00  0.00     0.048 C 
HETATM   10  C19         0      63.893  88.856 -29.479  1.00  0.00     0.096 C 
HETATM   11  C21         0      63.436  88.331 -28.301  1.00  0.00     0.084 C 
ENDROOT
BRANCH  10  12
HETATM   12  O20         0      63.214  89.946 -30.014  1.00  0.00    -0.359 OA
HETATM   13  H20         0      63.423  90.810 -29.679  1.00  0.00     0.218 HD
ENDBRANCH  10  12
BRANCH   4  14
HETATM   14  C5          0      62.456  86.744 -24.619  1.00  0.00     0.025 C 
HETATM   15  C6          0      61.523  87.333 -23.778  1.00  0.00     0.004 C 
HETATM   16  C7          0      60.905  86.521 -22.831  1.00  0.00     0.026 C 
HETATM   17  C8          0      61.296  85.201 -22.636  1.00  0.00     0.112 C 
HETATM   18  C10         0      62.593  84.914 -23.042  1.00  0.00     0.112 C 
HETATM   19  C12         0      63.156  85.688 -24.050  1.00  0.00     0.028 C 
BRANCH  17  20
HETATM   20  O9          0      60.376  84.236 -22.267  1.00  0.00    -0.357 OA
HETATM   21  H9          0      60.592  83.319 -22.147  1.00  0.00     0.218 HD
ENDBRANCH  17  20
BRANCH  18  22
HETATM   22  O11         0      63.097  83.668 -22.699  1.00  0.00    -0.357 OA
HETATM   23  H11         0      63.032  83.414 -21.785  1.00  0.00     0.218 HD
ENDBRANCH  18  22
ENDBRANCH   4  14
BRANCH   8  24
HETATM   24  O17         0      67.406  88.117 -28.991  1.00  0.00    -0.359 OA
HETATM   25  H17         0      68.073  87.488 -29.241  1.00  0.00     0.218 HD
ENDBRANCH   8  24
TORSDOF 5
ENDMDL
MODEL 2
REMARK VINA RESULT:      -4.2      2.277      7.610
REMARK  5 active torsions:
REMARK  status: ('A' for Active; 'I' for Inactive)
REMARK    1  A    between atoms: C4_4  and  C5_5 
REMARK    2  A    between atoms: C8_8  and  O9_9 
REMARK    3  A    between atoms: C10_11  and  O11_12 
REMARK    4  A    between atoms: C16_18  and  O17_19 
REMARK    5  A    between atoms: C19_22  and  O20_23 
ROOT
HETATM    1  O1          0      64.654  84.471 -22.325  1.00  0.00    -0.286 OA
HETATM    2  C2          0      63.504  84.826 -22.702  1.00  0.00     0.201 C 
HETATM    3  C3          0      63.276  85.473 -23.905  1.00  0.00     0.067 C 
HETATM    4  C4          0      62.015  85.945 -24.251  1.00  0.00     0.103 C 
HETATM    5  O13         0      61.012  85.749 -23.412  1.00  0.00    -0.307 OA
HETATM    6  C14         0      61.182  85.175 -22.241  1.00  0.00     0.107 C 
HETATM    7  C15         0      60.260  85.321 -21.215  1.00  0.00     0.049 C 
HETATM    8  C16         0      60.560  84.933 -19.915  1.00  0.00     0.093 C 
HETATM    9  C18         0      61.540  83.954 -19.806  1.00  0.00     0.048 C 
HETATM   10  C19         0      62.449  83.749 -20.834  1.00  0.00     0.096 C 
HETATM   11  C21         0      62.371  84.506 -21.971  1.00  0.00     0.084 C 
ENDROOT
BRANCH  10  12
HETATM   12  O20         0      63.653  83.108 -20.560  1.00  0.00    -0.359 OA
HETATM   13  H20         0      63.721  82.614 -19.751  1.00  0.00     0.218 HD
ENDBRANCH  10  12
BRANCH   4  14
HETATM   14  C5          0      61.954  87.084 -25.168  1.00  0.00     0.025 C 
HETATM   15  C6          0      63.059  87.867 -25.468  1.00  0.00     0.004 C 
HETATM   16  C7          0      63.195  88.315 -26.778  1.00  0.00     0.026 C 
HETATM   17  C8          0      62.200  88.106 -27.728  1.00  0.00     0.112 C 
HETATM   18  C10         0      60.931  87.902 -27.202  1.00  0.00     0.112 C 
HETATM   19  C12         0      60.824  87.374 -25.922  1.00  0.00     0.028 C 
BRANCH  17  20
HETATM   20  O9          0      62.521  87.910 -29.059  1.00  0.00    -0.357 OA
HETATM   21  H9          0      62.038  87.333 -29.639  1.00  0.00     0.218 HD
ENDBRANCH  17  20
BRANCH  18  22
HETATM   22  O11         0      59.875  87.877 -28.102  1.00  0.00    -0.357 OA
HETATM   23  H11         0      59.516  88.716 -28.367  1.00  0.00     0.218 HD
ENDBRANCH  18  22
ENDBRANCH   4  14
BRANCH   8  24
HETATM   24  O17         0      60.159  85.699 -18.814  1.00  0.00    -0.359 OA
HETATM   25  H17         0      60.075  85.321 -17.947  1.00  0.00     0.218 HD
ENDBRANCH   8  24
TORSDOF 5
ENDMDL
MODEL 3
REMARK VINA RESULT:      -4.1      2.142      6.157
REMARK  5 active torsions:
REMARK  status: ('A' for Active; 'I' for Inactive)
REMARK    1  A    between atoms: C4_4  and  C5_5 
REMARK    2  A    between atoms: C8_8  and  O9_9 
REMARK    3  A    between atoms: C10_11  and  O11_12 
REMARK    4  A    between atoms: C16_18  and  O17_19 
REMARK    5  A    between atoms: C19_22  and  O20_23 
ROOT
HETATM    1  O1          0      62.627  86.538 -23.137  1.00  0.00    -0.286 OA
HETATM    2  C2          0      62.887  86.550 -24.372  1.00  0.00     0.201 C 
HETATM    3  C3          0      64.112  86.159 -24.885  1.00  0.00     0.067 C 
HETATM    4  C4          0      64.407  86.279 -26.238  1.00  0.00     0.103 C 
HETATM    5  O13         0      63.482  86.761 -27.049  1.00  0.00    -0.307 OA
HETATM    6  C14         0      62.317  87.182 -26.609  1.00  0.00     0.107 C 
HETATM    7  C15         0      61.519  88.036 -27.355  1.00  0.00     0.049 C 
HETATM    8  C16         0      60.422  88.677 -26.791  1.00  0.00     0.093 C 
HETATM    9  C18         0      59.875  88.039 -25.684  1.00  0.00     0.048 C 
HETATM   10  C19         0      60.631  87.142 -24.942  1.00  0.00     0.096 C 
HETATM   11  C21         0      61.920  86.871 -25.312  1.00  0.00     0.084 C 
ENDROOT
BRANCH  10  12
HETATM   12  O20         0      60.254  86.854 -23.634  1.00  0.00    -0.359 OA
HETATM   13  H20         0      59.326  86.805 -23.439  1.00  0.00     0.218 HD
ENDBRANCH  10  12
BRANCH   4  14
HETATM   14  C5          0      65.816  86.433 -26.605  1.00  0.00     0.025 C 
HETATM   15  C6          0      66.854  85.948 -25.823  1.00  0.00     0.004 C 
HETATM   16  C7          0      67.953  85.400 -26.477  1.00  0.00     0.026 C 
HETATM   17  C8          0      68.079  85.453 -27.861  1.00  0.00     0.112 C 
HETATM   18  C10         0      67.357  86.471 -28.470  1.00  0.00     0.112 C 
HETATM   19  C12         0      66.214  86.942 -27.834  1.00  0.00     0.028 C 
BRANCH  17  20
HETATM   20  O9          0      68.704  84.434 -28.556  1.00  0.00    -0.357 OA
HETATM   21  H9          0      69.407  83.904 -28.197  1.00  0.00     0.218 HD
ENDBRANCH  17  20
BRANCH  18  22
HETATM   22  O11         0      67.593  86.688 -29.820  1.00  0.00    -0.357 OA
HETATM   23  H11         0      68.173  86.077 -30.259  1.00  0.00     0.218 HD
ENDBRANCH  18  22
ENDBRANCH   4  14
BRANCH   8  24
HETATM   24  O17         0      60.116  90.007 -27.099  1.00  0.00    -0.359 OA
HETATM   25  H17         0      60.243  90.359 -27.972  1.00  0.00     0.218 HD
ENDBRANCH   8  24
TORSDOF 5
ENDMDL
MODEL 4
REMARK VINA RESULT:      -4.1      1.648      6.869
REMARK  5 active torsions:
REMARK  status: ('A' for Active; 'I' for Inactive)
REMARK    1  A    between atoms: C4_4  and  C5_5 
REMARK    2  A    between atoms: C8_8  and  O9_9 
REMARK    3  A    between atoms: C10_11  and  O11_12 
REMARK    4  A    between atoms: C16_18  and  O17_19 
REMARK    5  A    between atoms: C19_22  and  O20_23 
ROOT
HETATM    1  O1          0      63.641  84.536 -23.892  1.00  0.00    -0.286 OA
HETATM    2  C2          0      62.893  85.359 -24.488  1.00  0.00     0.201 C 
HETATM    3  C3          0      63.135  85.793 -25.780  1.00  0.00     0.067 C 
HETATM    4  C4          0      62.354  86.777 -26.376  1.00  0.00     0.103 C 
HETATM    5  O13         0      61.346  87.288 -25.692  1.00  0.00    -0.307 OA
HETATM    6  C14         0      61.096  86.938 -24.449  1.00  0.00     0.107 C 
HETATM    7  C15         0      60.325  87.728 -23.608  1.00  0.00     0.049 C 
HETATM    8  C16         0      60.274  87.490 -22.240  1.00  0.00     0.093 C 
HETATM    9  C18         0      60.564  86.185 -21.861  1.00  0.00     0.048 C 
HETATM   10  C19         0      61.293  85.352 -22.698  1.00  0.00     0.096 C 
HETATM   11  C21         0      61.715  85.814 -23.915  1.00  0.00     0.084 C 
ENDROOT
BRANCH  10  12
HETATM   12  O20         0      61.940  84.244 -22.161  1.00  0.00    -0.359 OA
HETATM   13  H20         0      61.451  83.432 -22.093  1.00  0.00     0.218 HD
ENDBRANCH  10  12
BRANCH   4  14
HETATM   14  C5          0      62.981  87.590 -27.420  1.00  0.00     0.025 C 
HETATM   15  C6          0      62.678  88.929 -27.614  1.00  0.00     0.004 C 
HETATM   16  C7          0      63.721  89.784 -27.953  1.00  0.00     0.026 C 
HETATM   17  C8          0      64.999  89.305 -28.222  1.00  0.00     0.112 C 
HETATM   18  C10         0      65.048  87.975 -28.618  1.00  0.00     0.112 C 
HETATM   19  C12         0      64.035  87.122 -28.194  1.00  0.00     0.028 C 
BRANCH  17  20
HETATM   20  O9          0      66.118  90.053 -27.905  1.00  0.00    -0.357 OA
HETATM   21  H9          0      66.199  90.574 -27.114  1.00  0.00     0.218 HD
ENDBRANCH  17  20
BRANCH  18  22
HETATM   22  O11         0      66.268  87.501 -29.079  1.00  0.00    -0.357 OA
HETATM   23  H11         0      66.357  87.385 -30.018  1.00  0.00     0.218 HD
ENDBRANCH  18  22
ENDBRANCH   4  14
BRANCH   8  24
HETATM   24  O17         0      60.270  88.541 -21.316  1.00  0.00    -0.359 OA
HETATM   25  H17         0      61.070  88.988 -21.065  1.00  0.00     0.218 HD
ENDBRANCH   8  24
TORSDOF 5
ENDMDL
MODEL 5
REMARK VINA RESULT:      -4.1      1.777      2.674
REMARK  5 active torsions:
REMARK  status: ('A' for Active; 'I' for Inactive)
REMARK    1  A    between atoms: C4_4  and  C5_5 
REMARK    2  A    between atoms: C8_8  and  O9_9 
REMARK    3  A    between atoms: C10_11  and  O11_12 
REMARK    4  A    between atoms: C16_18  and  O17_19 
REMARK    5  A    between atoms: C19_22  and  O20_23 
ROOT
HETATM    1  O1          0      60.563  89.181 -25.103  1.00  0.00    -0.286 OA
HETATM    2  C2          0      61.076  88.029 -25.137  1.00  0.00     0.201 C 
HETATM    3  C3          0      60.954  87.122 -24.098  1.00  0.00     0.067 C 
HETATM    4  C4          0      61.614  85.899 -24.117  1.00  0.00     0.103 C 
HETATM    5  O13         0      62.357  85.595 -25.167  1.00  0.00    -0.307 OA
HETATM    6  C14         0      62.536  86.435 -26.163  1.00  0.00     0.107 C 
HETATM    7  C15         0      63.598  86.304 -27.047  1.00  0.00     0.049 C 
HETATM    8  C16         0      63.930  87.323 -27.931  1.00  0.00     0.093 C 
HETATM    9  C18         0      62.888  88.185 -28.252  1.00  0.00     0.048 C 
HETATM   10  C19         0      61.789  88.305 -27.413  1.00  0.00     0.096 C 
HETATM   11  C21         0      61.722  87.557 -26.269  1.00  0.00     0.084 C 
ENDROOT
BRANCH  10  12
HETATM   12  O20         0      60.991  89.442 -27.495  1.00  0.00    -0.359 OA
HETATM   13  H20         0      60.697  89.840 -26.685  1.00  0.00     0.218 HD
ENDBRANCH  10  12
BRANCH   4  14
HETATM   14  C5          0      61.938  85.292 -22.825  1.00  0.00     0.025 C 
HETATM   15  C6          0      60.992  85.091 -21.830  1.00  0.00     0.004 C 
HETATM   16  C7          0      61.081  83.920 -21.084  1.00  0.00     0.026 C 
HETATM   17  C8          0      62.150  83.042 -21.228  1.00  0.00     0.112 C 
HETATM   18  C10         0      63.305  83.615 -21.741  1.00  0.00     0.112 C 
HETATM   19  C12         0      63.182  84.736 -22.555  1.00  0.00     0.028 C 
BRANCH  17  20
HETATM   20  O9          0      61.974  81.679 -21.066  1.00  0.00    -0.357 OA
HETATM   21  H9          0      62.253  81.199 -20.295  1.00  0.00     0.218 HD
ENDBRANCH  17  20
BRANCH  18  22
HETATM   22  O11         0      64.453  82.835 -21.729  1.00  0.00    -0.357 OA
HETATM   23  H11         0      64.840  82.653 -20.881  1.00  0.00     0.218 HD
ENDBRANCH  18  22
ENDBRANCH   4  14
BRANCH   8  24
HETATM   24  O17         0      65.264  87.650 -28.200  1.00  0.00    -0.359 OA
HETATM   25  H17         0      65.705  87.341 -28.982  1.00  0.00     0.218 HD
ENDBRANCH   8  24
TORSDOF 5
ENDMDL
MODEL 6
REMARK VINA RESULT:      -3.9      3.732      6.550
REMARK  5 active torsions:
REMARK  status: ('A' for Active; 'I' for Inactive)
REMARK    1  A    between atoms: C4_4  and  C5_5 
REMARK    2  A    between atoms: C8_8  and  O9_9 
REMARK    3  A    between atoms: C10_11  and  O11_12 
REMARK    4  A    between atoms: C16_18  and  O17_19 
REMARK    5  A    between atoms: C19_22  and  O20_23 
ROOT
HETATM    1  O1          0      70.382  88.681 -29.986  1.00  0.00    -0.286 OA
HETATM    2  C2          0      69.347  88.005 -29.735  1.00  0.00     0.201 C 
HETATM    3  C3          0      68.066  88.500 -29.910  1.00  0.00     0.067 C 
HETATM    4  C4          0      66.945  87.772 -29.528  1.00  0.00     0.103 C 
HETATM    5  O13         0      67.116  86.570 -29.006  1.00  0.00    -0.307 OA
HETATM    6  C14         0      68.311  86.069 -28.784  1.00  0.00     0.107 C 
HETATM    7  C15         0      68.510  85.022 -27.895  1.00  0.00     0.049 C 
HETATM    8  C16         0      69.786  84.667 -27.473  1.00  0.00     0.093 C 
HETATM    9  C18         0      70.811  85.016 -28.344  1.00  0.00     0.048 C 
HETATM   10  C19         0      70.629  86.028 -29.277  1.00  0.00     0.096 C 
HETATM   11  C21         0      69.426  86.675 -29.352  1.00  0.00     0.084 C 
ENDROOT
BRANCH  10  12
HETATM   12  O20         0      71.744  86.658 -29.823  1.00  0.00    -0.359 OA
HETATM   13  H20         0      71.617  87.194 -30.597  1.00  0.00     0.218 HD
ENDBRANCH  10  12
BRANCH   4  14
HETATM   14  C5          0      65.742  88.529 -29.176  1.00  0.00     0.025 C 
HETATM   15  C6          0      64.914  89.109 -30.125  1.00  0.00     0.004 C 
HETATM   16  C7          0      63.542  89.074 -29.892  1.00  0.00     0.026 C 
HETATM   17  C8          0      63.018  88.598 -28.695  1.00  0.00     0.112 C 
HETATM   18  C10         0      63.894  88.646 -27.619  1.00  0.00     0.112 C 
HETATM   19  C12         0      65.259  88.595 -27.875  1.00  0.00     0.028 C 
BRANCH  17  20
HETATM   20  O9          0      61.800  87.943 -28.666  1.00  0.00    -0.357 OA
HETATM   21  H9          0      61.050  88.245 -28.167  1.00  0.00     0.218 HD
ENDBRANCH  17  20
BRANCH  18  22
HETATM   22  O11         0      63.367  88.364 -26.367  1.00  0.00    -0.357 OA
HETATM   23  H11         0      63.144  89.105 -25.816  1.00  0.00     0.218 HD
ENDBRANCH  18  22
ENDBRANCH   4  14
BRANCH   8  24
HETATM   24  O17         0      70.040  84.303 -26.146  1.00  0.00    -0.359 OA
HETATM   25  H17         0      70.816  84.601 -25.686  1.00  0.00     0.218 HD
ENDBRANCH   8  24
TORSDOF 5
ENDMDL
MODEL 7
REMARK VINA RESULT:      -3.8      3.506      6.042
REMARK  5 active torsions:
REMARK  status: ('A' for Active; 'I' for Inactive)
REMARK    1  A    between atoms: C4_4  and  C5_5 
REMARK    2  A    between atoms: C8_8  and  O9_9 
REMARK    3  A    between atoms: C10_11  and  O11_12 
REMARK    4  A    between atoms: C16_18  and  O17_19 
REMARK    5  A    between atoms: C19_22  and  O20_23 
ROOT
HETATM    1  O1          0      66.870  83.926 -24.350  1.00  0.00    -0.286 OA
HETATM    2  C2          0      66.986  84.809 -25.243  1.00  0.00     0.201 C 
HETATM    3  C3          0      66.242  85.977 -25.244  1.00  0.00     0.067 C 
HETATM    4  C4          0      66.315  86.886 -26.293  1.00  0.00     0.103 C 
HETATM    5  O13         0      67.131  86.630 -27.300  1.00  0.00    -0.307 OA
HETATM    6  C14         0      67.831  85.519 -27.367  1.00  0.00     0.107 C 
HETATM    7  C15         0      68.362  85.060 -28.564  1.00  0.00     0.049 C 
HETATM    8  C16         0      68.874  83.774 -28.680  1.00  0.00     0.093 C 
HETATM    9  C18         0      69.308  83.205 -27.489  1.00  0.00     0.048 C 
HETATM   10  C19         0      68.833  83.671 -26.270  1.00  0.00     0.096 C 
HETATM   11  C21         0      67.943  84.710 -26.241  1.00  0.00     0.084 C 
ENDROOT
BRANCH  10  12
HETATM   12  O20         0      68.915  82.850 -25.149  1.00  0.00    -0.359 OA
HETATM   13  H20         0      68.131  82.730 -24.628  1.00  0.00     0.218 HD
ENDBRANCH  10  12
BRANCH   4  14
HETATM   14  C5          0      65.140  87.725 -26.535  1.00  0.00     0.025 C 
HETATM   15  C6          0      65.192  88.897 -27.275  1.00  0.00     0.004 C 
HETATM   16  C7          0      64.116  89.180 -28.111  1.00  0.00     0.026 C 
HETATM   17  C8          0      62.967  88.396 -28.111  1.00  0.00     0.112 C 
HETATM   18  C10         0      62.755  87.677 -26.942  1.00  0.00     0.112 C 
HETATM   19  C12         0      63.858  87.334 -26.169  1.00  0.00     0.028 C 
BRANCH  17  20
HETATM   20  O9          0      62.238  88.208 -29.272  1.00  0.00    -0.357 OA
HETATM   21  H9          0      62.384  87.489 -29.876  1.00  0.00     0.218 HD
ENDBRANCH  17  20
BRANCH  18  22
HETATM   22  O11         0      61.534  87.030 -26.815  1.00  0.00    -0.357 OA
HETATM   23  H11         0      61.138  86.698 -27.613  1.00  0.00     0.218 HD
ENDBRANCH  18  22
ENDBRANCH   4  14
BRANCH   8  24
HETATM   24  O17         0      68.656  83.002 -29.827  1.00  0.00    -0.359 OA
HETATM   25  H17         0      69.259  82.318 -30.091  1.00  0.00     0.218 HD
ENDBRANCH   8  24
TORSDOF 5
ENDMDL
MODEL 8
REMARK VINA RESULT:      -3.7      2.852      4.937
REMARK  5 active torsions:
REMARK  status: ('A' for Active; 'I' for Inactive)
REMARK    1  A    between atoms: C4_4  and  C5_5 
REMARK    2  A    between atoms: C8_8  and  O9_9 
REMARK    3  A    between atoms: C10_11  and  O11_12 
REMARK    4  A    between atoms: C16_18  and  O17_19 
REMARK    5  A    between atoms: C19_22  and  O20_23 
ROOT
HETATM    1  O1          0      66.725  83.899 -23.943  1.00  0.00    -0.286 OA
HETATM    2  C2          0      66.265  84.825 -24.666  1.00  0.00     0.201 C 
HETATM    3  C3          0      64.988  85.335 -24.509  1.00  0.00     0.067 C 
HETATM    4  C4          0      64.469  86.282 -25.385  1.00  0.00     0.103 C 
HETATM    5  O13         0      65.230  86.715 -26.375  1.00  0.00    -0.307 OA
HETATM    6  C14         0      66.435  86.237 -26.591  1.00  0.00     0.107 C 
HETATM    7  C15         0      67.068  86.376 -27.818  1.00  0.00     0.049 C 
HETATM    8  C16         0      68.219  85.658 -28.122  1.00  0.00     0.093 C 
HETATM    9  C18         0      68.963  85.250 -27.022  1.00  0.00     0.048 C 
HETATM   10  C19         0      68.373  85.145 -25.770  1.00  0.00     0.096 C 
HETATM   11  C21         0      67.051  85.462 -25.614  1.00  0.00     0.084 C 
ENDROOT
BRANCH  10  12
HETATM   12  O20         0      68.971  84.345 -24.801  1.00  0.00    -0.359 OA
HETATM   13  H20         0      68.997  84.670 -23.909  1.00  0.00     0.218 HD
ENDBRANCH  10  12
BRANCH   4  14
HETATM   14  C5          0      63.014  86.322 -25.544  1.00  0.00     0.025 C 
HETATM   15  C6          0      62.136  86.077 -24.498  1.00  0.00     0.004 C 
HETATM   16  C7          0      60.979  86.846 -24.434  1.00  0.00     0.026 C 
HETATM   17  C8          0      60.638  87.736 -25.447  1.00  0.00     0.112 C 
HETATM   18  C10         0      61.204  87.452 -26.683  1.00  0.00     0.112 C 
HETATM   19  C12         0      62.405  86.755 -26.715  1.00  0.00     0.028 C 
BRANCH  17  20
HETATM   20  O9          0      59.965  88.911 -25.162  1.00  0.00    -0.357 OA
HETATM   21  H9          0      59.981  89.335 -24.312  1.00  0.00     0.218 HD
ENDBRANCH  17  20
BRANCH  18  22
HETATM   22  O11         0      60.751  88.191 -27.767  1.00  0.00    -0.357 OA
HETATM   23  H11         0      60.127  87.768 -28.345  1.00  0.00     0.218 HD
ENDBRANCH  18  22
ENDBRANCH   4  14
BRANCH   8  24
HETATM   24  O17         0      68.421  85.108 -29.392  1.00  0.00    -0.359 OA
HETATM   25  H17         0      69.250  85.194 -29.847  1.00  0.00     0.218 HD
ENDBRANCH   8  24
TORSDOF 5
ENDMDL
MODEL 9
REMARK VINA RESULT:      -3.6      2.502      6.972
REMARK  5 active torsions:
REMARK  status: ('A' for Active; 'I' for Inactive)
REMARK    1  A    between atoms: C4_4  and  C5_5 
REMARK    2  A    between atoms: C8_8  and  O9_9 
REMARK    3  A    between atoms: C10_11  and  O11_12 
REMARK    4  A    between atoms: C16_18  and  O17_19 
REMARK    5  A    between atoms: C19_22  and  O20_23 
ROOT
HETATM    1  O1          0      67.435  85.105 -24.088  1.00  0.00    -0.286 OA
HETATM    2  C2          0      66.184  85.129 -24.246  1.00  0.00     0.201 C 
HETATM    3  C3          0      65.568  85.861 -25.247  1.00  0.00     0.067 C 
HETATM    4  C4          0      64.183  85.952 -25.336  1.00  0.00     0.103 C 
HETATM    5  O13         0      63.446  85.304 -24.452  1.00  0.00    -0.307 OA
HETATM    6  C14         0      63.980  84.625 -23.460  1.00  0.00     0.107 C 
HETATM    7  C15         0      63.251  84.290 -22.328  1.00  0.00     0.049 C 
HETATM    8  C16         0      63.875  83.804 -21.185  1.00  0.00     0.093 C 
HETATM    9  C18         0      65.103  83.190 -21.403  1.00  0.00     0.048 C 
HETATM   10  C19         0      65.837  83.468 -22.548  1.00  0.00     0.096 C 
HETATM   11  C21         0      65.341  84.340 -23.478  1.00  0.00     0.084 C 
ENDROOT
BRANCH  10  12
HETATM   12  O20         0      67.205  83.213 -22.557  1.00  0.00    -0.359 OA
HETATM   13  H20         0      67.698  83.401 -21.767  1.00  0.00     0.218 HD
ENDBRANCH  10  12
BRANCH   4  14
HETATM   14  C5          0      63.630  87.149 -25.973  1.00  0.00     0.025 C 
HETATM   15  C6          0      64.421  88.203 -26.407  1.00  0.00     0.004 C 
HETATM   16  C7          0      64.065  88.828 -27.597  1.00  0.00     0.026 C 
HETATM   17  C8          0      62.888  88.508 -28.266  1.00  0.00     0.112 C 
HETATM   18  C10         0      61.901  87.946 -27.466  1.00  0.00     0.112 C 
HETATM   19  C12         0      62.291  87.253 -26.326  1.00  0.00     0.028 C 
BRANCH  17  20
HETATM   20  O9          0      62.820  88.561 -29.647  1.00  0.00    -0.357 OA
HETATM   21  H9          0      62.893  87.798 -30.208  1.00  0.00     0.218 HD
ENDBRANCH  17  20
BRANCH  18  22
HETATM   22  O11         0      60.647  87.783 -28.037  1.00  0.00    -0.357 OA
HETATM   23  H11         0      60.603  87.276 -28.839  1.00  0.00     0.218 HD
ENDBRANCH  18  22
ENDBRANCH   4  14
BRANCH   8  24
HETATM   24  O17         0      63.467  84.202 -19.907  1.00  0.00    -0.359 OA
HETATM   25  H17         0      62.623  84.610 -19.757  1.00  0.00     0.218 HD
ENDBRANCH   8  24
TORSDOF 5
ENDMDL
