MODEL 1
REMARK VINA RESULT:      -8.4      0.000      0.000
REMARK  5 active torsions:
REMARK  status: ('A' for Active; 'I' for Inactive)
REMARK    1  A    between atoms: C4_4  and  C5_5 
REMARK    2  A    between atoms: C8_8  and  O9_9 
REMARK    3  A    between atoms: C10_11  and  O11_12 
REMARK    4  A    between atoms: C16_18  and  O17_19 
REMARK    5  A    between atoms: C19_22  and  O20_23 
ROOT
HETATM    1  O1          0      46.382  49.468  -9.283  1.00  0.00    -0.286 OA
HETATM    2  C2          0      45.701  48.431  -9.058  1.00  0.00     0.201 C 
HETATM    3  C3          0      45.501  47.926  -7.784  1.00  0.00     0.067 C 
HETATM    4  C4          0      44.832  46.725  -7.572  1.00  0.00     0.103 C 
HETATM    5  O13         0      44.363  46.068  -8.618  1.00  0.00    -0.307 OA
HETATM    6  C14         0      44.558  46.483  -9.850  1.00  0.00     0.107 C 
HETATM    7  C15         0      44.434  45.630 -10.937  1.00  0.00     0.049 C 
HETATM    8  C16         0      44.883  45.999 -12.199  1.00  0.00     0.093 C 
HETATM    9  C18         0      44.949  47.369 -12.422  1.00  0.00     0.048 C 
HETATM   10  C19         0      45.027  48.254 -11.355  1.00  0.00     0.096 C 
HETATM   11  C21         0      45.023  47.775 -10.074  1.00  0.00     0.084 C 
ENDROOT
BRANCH  10  12
HETATM   12  O20         0      45.522  49.537 -11.570  1.00  0.00    -0.359 OA
HETATM   13  H20         0      46.362  49.623 -12.004  1.00  0.00     0.218 HD
ENDBRANCH  10  12
BRANCH   4  14
HETATM   14  C5          0      45.170  45.975  -6.361  1.00  0.00     0.025 C 
HETATM   15  C6          0      46.076  44.925  -6.355  1.00  0.00     0.004 C 
HETATM   16  C7          0      46.920  44.809  -5.256  1.00  0.00     0.026 C 
HETATM   17  C8          0      46.781  45.626  -4.139  1.00  0.00     0.112 C 
HETATM   18  C10         0      45.515  46.171  -3.974  1.00  0.00     0.112 C 
HETATM   19  C12         0      44.724  46.355  -5.102  1.00  0.00     0.028 C 
BRANCH  17  20
HETATM   20  O9          0      47.886  46.010  -3.400  1.00  0.00    -0.357 OA
HETATM   21  H9          0      48.622  46.491  -3.761  1.00  0.00     0.218 HD
ENDBRANCH  17  20
BRANCH  18  22
HETATM   22  O11         0      45.268  46.837  -2.782  1.00  0.00    -0.357 OA
HETATM   23  H11         0      44.687  47.589  -2.822  1.00  0.00     0.218 HD
ENDBRANCH  18  22
ENDBRANCH   4  14
BRANCH   8  24
HETATM   24  O17         0      45.531  45.085 -13.039  1.00  0.00    -0.359 OA
HETATM   25  H17         0      45.141  44.248 -13.261  1.00  0.00     0.218 HD
ENDBRANCH   8  24
TORSDOF 5
ENDMDL
MODEL 2
REMARK VINA RESULT:      -8.0      2.351      6.453
REMARK  5 active torsions:
REMARK  status: ('A' for Active; 'I' for Inactive)
REMARK    1  A    between atoms: C4_4  and  C5_5 
REMARK    2  A    between atoms: C8_8  and  O9_9 
REMARK    3  A    between atoms: C10_11  and  O11_12 
REMARK    4  A    between atoms: C16_18  and  O17_19 
REMARK    5  A    between atoms: C19_22  and  O20_23 
ROOT
HETATM    1  O1          0      44.839  47.868  -5.974  1.00  0.00    -0.286 OA
HETATM    2  C2          0      44.723  47.299  -7.094  1.00  0.00     0.201 C 
HETATM    3  C3          0      45.303  47.793  -8.250  1.00  0.00     0.067 C 
HETATM    4  C4          0      45.075  47.204  -9.488  1.00  0.00     0.103 C 
HETATM    5  O13         0      44.301  46.134  -9.550  1.00  0.00    -0.307 OA
HETATM    6  C14         0      43.697  45.646  -8.488  1.00  0.00     0.107 C 
HETATM    7  C15         0      42.600  44.804  -8.594  1.00  0.00     0.049 C 
HETATM    8  C16         0      41.815  44.499  -7.489  1.00  0.00     0.093 C 
HETATM    9  C18         0      42.457  44.619  -6.262  1.00  0.00     0.048 C 
HETATM   10  C19         0      43.585  45.417  -6.131  1.00  0.00     0.096 C 
HETATM   11  C21         0      44.080  46.077  -7.223  1.00  0.00     0.084 C 
ENDROOT
BRANCH  10  12
HETATM   12  O20         0      43.952  45.875  -4.870  1.00  0.00    -0.359 OA
HETATM   13  H20         0      44.778  45.577  -4.510  1.00  0.00     0.218 HD
ENDBRANCH  10  12
BRANCH   4  14
HETATM   14  C5          0      45.185  48.062 -10.669  1.00  0.00     0.025 C 
HETATM   15  C6          0      45.349  49.437 -10.586  1.00  0.00     0.004 C 
HETATM   16  C7          0      46.195  50.042 -11.510  1.00  0.00     0.026 C 
HETATM   17  C8          0      46.755  49.328 -12.564  1.00  0.00     0.112 C 
HETATM   18  C10         0      46.057  48.182 -12.923  1.00  0.00     0.112 C 
HETATM   19  C12         0      45.286  47.549 -11.956  1.00  0.00     0.028 C 
BRANCH  17  20
HETATM   20  O9          0      48.012  49.645 -13.046  1.00  0.00    -0.357 OA
HETATM   21  H9          0      48.715  49.012 -13.143  1.00  0.00     0.218 HD
ENDBRANCH  17  20
BRANCH  18  22
HETATM   22  O11         0      46.463  47.538 -14.083  1.00  0.00    -0.357 OA
HETATM   23  H11         0      47.254  47.014 -14.030  1.00  0.00     0.218 HD
ENDBRANCH  18  22
ENDBRANCH   4  14
BRANCH   8  24
HETATM   24  O17         0      40.421  44.415  -7.585  1.00  0.00    -0.359 OA
HETATM   25  H17         0      39.980  44.393  -8.426  1.00  0.00     0.218 HD
ENDBRANCH   8  24
TORSDOF 5
ENDMDL
MODEL 3
REMARK VINA RESULT:      -7.7      2.093      3.171
REMARK  5 active torsions:
REMARK  status: ('A' for Active; 'I' for Inactive)
REMARK    1  A    between atoms: C4_4  and  C5_5 
REMARK    2  A    between atoms: C8_8  and  O9_9 
REMARK    3  A    between atoms: C10_11  and  O11_12 
REMARK    4  A    between atoms: C16_18  and  O17_19 
REMARK    5  A    between atoms: C19_22  and  O20_23 
ROOT
HETATM    1  O1          0      47.225  49.763 -12.630  1.00  0.00    -0.286 OA
HETATM    2  C2          0      46.385  49.013 -12.062  1.00  0.00     0.201 C 
HETATM    3  C3          0      46.209  48.986 -10.689  1.00  0.00     0.067 C 
HETATM    4  C4          0      45.350  48.077 -10.082  1.00  0.00     0.103 C 
HETATM    5  O13         0      44.674  47.236 -10.845  1.00  0.00    -0.307 OA
HETATM    6  C14         0      44.831  47.195 -12.150  1.00  0.00     0.107 C 
HETATM    7  C15         0      44.452  46.089 -12.897  1.00  0.00     0.049 C 
HETATM    8  C16         0      44.847  45.943 -14.221  1.00  0.00     0.093 C 
HETATM    9  C18         0      45.147  47.130 -14.879  1.00  0.00     0.048 C 
HETATM   10  C19         0      45.486  48.268 -14.160  1.00  0.00     0.096 C 
HETATM   11  C21         0      45.507  48.226 -12.793  1.00  0.00     0.084 C 
ENDROOT
BRANCH  10  12
HETATM   12  O20         0      46.190  49.288 -14.793  1.00  0.00    -0.359 OA
HETATM   13  H20         0      47.134  49.307 -14.691  1.00  0.00     0.218 HD
ENDBRANCH  10  12
BRANCH   4  14
HETATM   14  C5          0      45.649  47.692  -8.702  1.00  0.00     0.025 C 
HETATM   15  C6          0      45.481  48.553  -7.628  1.00  0.00     0.004 C 
HETATM   16  C7          0      44.998  48.015  -6.439  1.00  0.00     0.026 C 
HETATM   17  C8          0      44.815  46.646  -6.279  1.00  0.00     0.112 C 
HETATM   18  C10         0      45.581  45.856  -7.127  1.00  0.00     0.112 C 
HETATM   19  C12         0      45.979  46.390  -8.347  1.00  0.00     0.028 C 
BRANCH  17  20
HETATM   20  O9          0      43.794  46.155  -5.486  1.00  0.00    -0.357 OA
HETATM   21  H9          0      43.676  46.389  -4.572  1.00  0.00     0.218 HD
ENDBRANCH  17  20
BRANCH  18  22
HETATM   22  O11         0      45.580  44.490  -6.884  1.00  0.00    -0.357 OA
HETATM   23  H11         0      44.886  44.152  -6.329  1.00  0.00     0.218 HD
ENDBRANCH  18  22
ENDBRANCH   4  14
BRANCH   8  24
HETATM   24  O17         0      45.234  44.699 -14.734  1.00  0.00    -0.359 OA
HETATM   25  H17         0      45.750  44.088 -14.222  1.00  0.00     0.218 HD
ENDBRANCH   8  24
TORSDOF 5
ENDMDL
MODEL 4
REMARK VINA RESULT:      -7.6      1.702      2.448
REMARK  5 active torsions:
REMARK  status: ('A' for Active; 'I' for Inactive)
REMARK    1  A    between atoms: C4_4  and  C5_5 
REMARK    2  A    between atoms: C8_8  and  O9_9 
REMARK    3  A    between atoms: C10_11  and  O11_12 
REMARK    4  A    between atoms: C16_18  and  O17_19 
REMARK    5  A    between atoms: C19_22  and  O20_23 
ROOT
HETATM    1  O1          0      46.611  49.975 -11.406  1.00  0.00    -0.286 OA
HETATM    2  C2          0      45.902  48.936 -11.313  1.00  0.00     0.201 C 
HETATM    3  C3          0      45.420  48.463 -10.104  1.00  0.00     0.067 C 
HETATM    4  C4          0      44.728  47.260 -10.017  1.00  0.00     0.103 C 
HETATM    5  O13         0      44.515  46.568 -11.123  1.00  0.00    -0.307 OA
HETATM    6  C14         0      44.984  46.953 -12.289  1.00  0.00     0.107 C 
HETATM    7  C15         0      45.117  46.070 -13.351  1.00  0.00     0.049 C 
HETATM    8  C16         0      45.841  46.411 -14.487  1.00  0.00     0.093 C 
HETATM    9  C18         0      45.947  47.776 -14.728  1.00  0.00     0.048 C 
HETATM   10  C19         0      45.773  48.690 -13.697  1.00  0.00     0.096 C 
HETATM   11  C21         0      45.479  48.244 -12.437  1.00  0.00     0.084 C 
ENDROOT
BRANCH  10  12
HETATM   12  O20         0      46.296  49.972 -13.830  1.00  0.00    -0.359 OA
HETATM   13  H20         0      45.892  50.672 -13.330  1.00  0.00     0.218 HD
ENDBRANCH  10  12
BRANCH   4  14
HETATM   14  C5          0      44.784  46.546  -8.740  1.00  0.00     0.025 C 
HETATM   15  C6          0      45.532  45.392  -8.555  1.00  0.00     0.004 C 
HETATM   16  C7          0      46.186  45.236  -7.337  1.00  0.00     0.026 C 
HETATM   17  C8          0      45.997  46.129  -6.288  1.00  0.00     0.112 C 
HETATM   18  C10         0      44.804  46.838  -6.338  1.00  0.00     0.112 C 
HETATM   19  C12         0      44.216  47.053  -7.578  1.00  0.00     0.028 C 
BRANCH  17  20
HETATM   20  O9          0      47.024  46.415  -5.406  1.00  0.00    -0.357 OA
HETATM   21  H9          0      47.609  45.758  -5.046  1.00  0.00     0.218 HD
ENDBRANCH  17  20
BRANCH  18  22
HETATM   22  O11         0      44.479  47.600  -5.224  1.00  0.00    -0.357 OA
HETATM   23  H11         0      44.403  47.140  -4.396  1.00  0.00     0.218 HD
ENDBRANCH  18  22
ENDBRANCH   4  14
BRANCH   8  24
HETATM   24  O17         0      46.669  45.484 -15.129  1.00  0.00    -0.359 OA
HETATM   25  H17         0      46.916  44.665 -14.717  1.00  0.00     0.218 HD
ENDBRANCH   8  24
TORSDOF 5
ENDMDL
MODEL 5
REMARK VINA RESULT:      -7.6      2.013      6.828
REMARK  5 active torsions:
REMARK  status: ('A' for Active; 'I' for Inactive)
REMARK    1  A    between atoms: C4_4  and  C5_5 
REMARK    2  A    between atoms: C8_8  and  O9_9 
REMARK    3  A    between atoms: C10_11  and  O11_12 
REMARK    4  A    between atoms: C16_18  and  O17_19 
REMARK    5  A    between atoms: C19_22  and  O20_23 
ROOT
HETATM    1  O1          0      45.627  48.876  -7.262  1.00  0.00    -0.286 OA
HETATM    2  C2          0      45.323  47.958  -8.073  1.00  0.00     0.201 C 
HETATM    3  C3          0      45.551  48.054  -9.435  1.00  0.00     0.067 C 
HETATM    4  C4          0      45.114  47.072 -10.317  1.00  0.00     0.103 C 
HETATM    5  O13         0      44.485  46.017  -9.832  1.00  0.00    -0.307 OA
HETATM    6  C14         0      44.210  45.894  -8.552  1.00  0.00     0.107 C 
HETATM    7  C15         0      43.230  45.025  -8.095  1.00  0.00     0.049 C 
HETATM    8  C16         0      42.769  45.082  -6.785  1.00  0.00     0.093 C 
HETATM    9  C18         0      43.660  45.633  -5.872  1.00  0.00     0.048 C 
HETATM   10  C19         0      44.681  46.470  -6.301  1.00  0.00     0.096 C 
HETATM   11  C21         0      44.822  46.741  -7.635  1.00  0.00     0.084 C 
ENDROOT
BRANCH  10  12
HETATM   12  O20         0      45.273  47.341  -5.392  1.00  0.00    -0.359 OA
HETATM   13  H20         0      45.925  46.989  -4.797  1.00  0.00     0.218 HD
ENDBRANCH  10  12
BRANCH   4  14
HETATM   14  C5          0      44.839  47.485 -11.695  1.00  0.00     0.025 C 
HETATM   15  C6          0      45.098  48.765 -12.162  1.00  0.00     0.004 C 
HETATM   16  C7          0      45.587  48.892 -13.459  1.00  0.00     0.026 C 
HETATM   17  C8          0      45.689  47.797 -14.310  1.00  0.00     0.112 C 
HETATM   18  C10         0      44.846  46.738 -13.997  1.00  0.00     0.112 C 
HETATM   19  C12         0      44.441  46.586 -12.676  1.00  0.00     0.028 C 
BRANCH  17  20
HETATM   20  O9          0      46.704  47.719 -15.247  1.00  0.00    -0.357 OA
HETATM   21  H9          0      47.286  46.973 -15.333  1.00  0.00     0.218 HD
ENDBRANCH  17  20
BRANCH  18  22
HETATM   22  O11         0      44.769  45.702 -14.917  1.00  0.00    -0.357 OA
HETATM   23  H11         0      44.173  45.819 -15.647  1.00  0.00     0.218 HD
ENDBRANCH  18  22
ENDBRANCH   4  14
BRANCH   8  24
HETATM   24  O17         0      41.413  44.917  -6.482  1.00  0.00    -0.359 OA
HETATM   25  H17         0      40.730  45.277  -7.036  1.00  0.00     0.218 HD
ENDBRANCH   8  24
TORSDOF 5
ENDMDL
MODEL 6
REMARK VINA RESULT:      -7.3      1.882      7.184
REMARK  5 active torsions:
REMARK  status: ('A' for Active; 'I' for Inactive)
REMARK    1  A    between atoms: C4_4  and  C5_5 
REMARK    2  A    between atoms: C8_8  and  O9_9 
REMARK    3  A    between atoms: C10_11  and  O11_12 
REMARK    4  A    between atoms: C16_18  and  O17_19 
REMARK    5  A    between atoms: C19_22  and  O20_23 
ROOT
HETATM    1  O1          0      43.346  43.360  -8.908  1.00  0.00    -0.286 OA
HETATM    2  C2          0      43.785  44.532  -9.064  1.00  0.00     0.201 C 
HETATM    3  C3          0      43.893  45.133 -10.307  1.00  0.00     0.067 C 
HETATM    4  C4          0      44.475  46.385 -10.462  1.00  0.00     0.103 C 
HETATM    5  O13         0      44.915  47.018  -9.389  1.00  0.00    -0.307 OA
HETATM    6  C14         0      44.871  46.478  -8.191  1.00  0.00     0.107 C 
HETATM    7  C15         0      45.667  46.937  -7.152  1.00  0.00     0.049 C 
HETATM    8  C16         0      45.806  46.211  -5.975  1.00  0.00     0.093 C 
HETATM    9  C18         0      44.754  45.351  -5.688  1.00  0.00     0.048 C 
HETATM   10  C19         0      43.909  44.909  -6.697  1.00  0.00     0.096 C 
HETATM   11  C21         0      44.103  45.337  -7.982  1.00  0.00     0.084 C 
ENDROOT
BRANCH  10  12
HETATM   12  O20         0      43.164  43.750  -6.501  1.00  0.00    -0.359 OA
HETATM   13  H20         0      43.144  43.375  -5.629  1.00  0.00     0.218 HD
ENDBRANCH  10  12
BRANCH   4  14
HETATM   14  C5          0      45.091  46.682 -11.757  1.00  0.00     0.025 C 
HETATM   15  C6          0      45.233  45.731 -12.757  1.00  0.00     0.004 C 
HETATM   16  C7          0      45.038  46.144 -14.072  1.00  0.00     0.026 C 
HETATM   17  C8          0      44.841  47.482 -14.394  1.00  0.00     0.112 C 
HETATM   18  C10         0      45.336  48.383 -13.461  1.00  0.00     0.112 C 
HETATM   19  C12         0      45.441  47.971 -12.137  1.00  0.00     0.028 C 
BRANCH  17  20
HETATM   20  O9          0      44.028  47.843 -15.454  1.00  0.00    -0.357 OA
HETATM   21  H9          0      43.115  48.090 -15.360  1.00  0.00     0.218 HD
ENDBRANCH  17  20
BRANCH  18  22
HETATM   22  O11         0      45.336  49.723 -13.819  1.00  0.00    -0.357 OA
HETATM   23  H11         0      45.134  49.926 -14.725  1.00  0.00     0.218 HD
ENDBRANCH  18  22
ENDBRANCH   4  14
BRANCH   8  24
HETATM   24  O17         0      47.041  46.106  -5.325  1.00  0.00    -0.359 OA
HETATM   25  H17         0      47.224  46.578  -4.521  1.00  0.00     0.218 HD
ENDBRANCH   8  24
TORSDOF 5
ENDMDL
MODEL 7
REMARK VINA RESULT:      -7.0      2.602      7.413
REMARK  5 active torsions:
REMARK  status: ('A' for Active; 'I' for Inactive)
REMARK    1  A    between atoms: C4_4  and  C5_5 
REMARK    2  A    between atoms: C8_8  and  O9_9 
REMARK    3  A    between atoms: C10_11  and  O11_12 
REMARK    4  A    between atoms: C16_18  and  O17_19 
REMARK    5  A    between atoms: C19_22  and  O20_23 
ROOT
HETATM    1  O1          0      45.373  49.893 -11.216  1.00  0.00    -0.286 OA
HETATM    2  C2          0      45.253  48.639 -11.274  1.00  0.00     0.201 C 
HETATM    3  C3          0      45.103  47.954 -12.468  1.00  0.00     0.067 C 
HETATM    4  C4          0      44.870  46.583 -12.497  1.00  0.00     0.103 C 
HETATM    5  O13         0      44.813  45.925 -11.353  1.00  0.00    -0.307 OA
HETATM    6  C14         0      44.911  46.532 -10.191  1.00  0.00     0.107 C 
HETATM    7  C15         0      44.463  45.942  -9.018  1.00  0.00     0.049 C 
HETATM    8  C16         0      44.334  46.676  -7.845  1.00  0.00     0.093 C 
HETATM    9  C18         0      45.142  47.804  -7.767  1.00  0.00     0.048 C 
HETATM   10  C19         0      45.646  48.392  -8.918  1.00  0.00     0.096 C 
HETATM   11  C21         0      45.359  47.847 -10.140  1.00  0.00     0.084 C 
ENDROOT
BRANCH  10  12
HETATM   12  O20         0      46.065  49.718  -8.878  1.00  0.00    -0.359 OA
HETATM   13  H20         0      45.578  50.323  -8.331  1.00  0.00     0.218 HD
ENDBRANCH  10  12
BRANCH   4  14
HETATM   14  C5          0      44.147  46.052 -13.654  1.00  0.00     0.025 C 
HETATM   15  C6          0      43.943  46.783 -14.815  1.00  0.00     0.004 C 
HETATM   16  C7          0      44.025  46.105 -16.027  1.00  0.00     0.026 C 
HETATM   17  C8          0      44.170  44.723 -16.081  1.00  0.00     0.112 C 
HETATM   18  C10         0      43.733  44.050 -14.948  1.00  0.00     0.112 C 
HETATM   19  C12         0      43.743  44.725 -13.734  1.00  0.00     0.028 C 
BRANCH  17  20
HETATM   20  O9          0      44.888  44.125 -17.102  1.00  0.00    -0.357 OA
HETATM   21  H9          0      44.813  43.206 -17.331  1.00  0.00     0.218 HD
ENDBRANCH  17  20
BRANCH  18  22
HETATM   22  O11         0      43.679  42.665 -15.022  1.00  0.00    -0.357 OA
HETATM   23  H11         0      43.218  42.215 -14.324  1.00  0.00     0.218 HD
ENDBRANCH  18  22
ENDBRANCH   4  14
BRANCH   8  24
HETATM   24  O17         0      43.249  46.487  -6.982  1.00  0.00    -0.359 OA
HETATM   25  H17         0      42.388  46.836  -7.179  1.00  0.00     0.218 HD
ENDBRANCH   8  24
TORSDOF 5
ENDMDL
MODEL 8
REMARK VINA RESULT:      -6.6      2.116      3.685
REMARK  5 active torsions:
REMARK  status: ('A' for Active; 'I' for Inactive)
REMARK    1  A    between atoms: C4_4  and  C5_5 
REMARK    2  A    between atoms: C8_8  and  O9_9 
REMARK    3  A    between atoms: C10_11  and  O11_12 
REMARK    4  A    between atoms: C16_18  and  O17_19 
REMARK    5  A    between atoms: C19_22  and  O20_23 
ROOT
HETATM    1  O1          0      42.703  43.528 -12.100  1.00  0.00    -0.286 OA
HETATM    2  C2          0      43.418  44.354 -11.468  1.00  0.00     0.201 C 
HETATM    3  C3          0      43.426  44.437 -10.086  1.00  0.00     0.067 C 
HETATM    4  C4          0      44.144  45.422  -9.420  1.00  0.00     0.103 C 
HETATM    5  O13         0      44.850  46.284 -10.131  1.00  0.00    -0.307 OA
HETATM    6  C14         0      44.848  46.273 -11.446  1.00  0.00     0.107 C 
HETATM    7  C15         0      45.240  47.378 -12.187  1.00  0.00     0.049 C 
HETATM    8  C16         0      44.997  47.454 -13.553  1.00  0.00     0.093 C 
HETATM    9  C18         0      44.856  46.229 -14.193  1.00  0.00     0.048 C 
HETATM   10  C19         0      44.510  45.093 -13.474  1.00  0.00     0.096 C 
HETATM   11  C21         0      44.323  45.177 -12.122  1.00  0.00     0.084 C 
ENDROOT
BRANCH  10  12
HETATM   12  O20         0      43.955  44.007 -14.144  1.00  0.00    -0.359 OA
HETATM   13  H20         0      43.960  44.020 -15.094  1.00  0.00     0.218 HD
ENDBRANCH  10  12
BRANCH   4  14
HETATM   14  C5          0      43.658  45.829  -8.100  1.00  0.00     0.025 C 
HETATM   15  C6          0      43.009  44.959  -7.237  1.00  0.00     0.004 C 
HETATM   16  C7          0      43.286  45.072  -5.878  1.00  0.00     0.026 C 
HETATM   17  C8          0      44.078  46.100  -5.379  1.00  0.00     0.112 C 
HETATM   18  C10         0      44.140  47.228  -6.186  1.00  0.00     0.112 C 
HETATM   19  C12         0      43.942  47.074  -7.553  1.00  0.00     0.028 C 
BRANCH  17  20
HETATM   20  O9          0      44.888  45.899  -4.276  1.00  0.00    -0.357 OA
HETATM   21  H9          0      44.839  46.420  -3.482  1.00  0.00     0.218 HD
ENDBRANCH  17  20
BRANCH  18  22
HETATM   22  O11         0      44.757  48.350  -5.651  1.00  0.00    -0.357 OA
HETATM   23  H11         0      44.217  48.929  -5.126  1.00  0.00     0.218 HD
ENDBRANCH  18  22
ENDBRANCH   4  14
BRANCH   8  24
HETATM   24  O17         0      44.592  48.651 -14.156  1.00  0.00    -0.359 OA
HETATM   25  H17         0      43.686  48.810 -14.391  1.00  0.00     0.218 HD
ENDBRANCH   8  24
TORSDOF 5
ENDMDL
MODEL 9
REMARK VINA RESULT:      -6.6      4.759      6.376
REMARK  5 active torsions:
REMARK  status: ('A' for Active; 'I' for Inactive)
REMARK    1  A    between atoms: C4_4  and  C5_5 
REMARK    2  A    between atoms: C8_8  and  O9_9 
REMARK    3  A    between atoms: C10_11  and  O11_12 
REMARK    4  A    between atoms: C16_18  and  O17_19 
REMARK    5  A    between atoms: C19_22  and  O20_23 
ROOT
HETATM    1  O1          0      42.617  44.317 -10.273  1.00  0.00    -0.286 OA
HETATM    2  C2          0      42.480  44.352  -9.020  1.00  0.00     0.201 C 
HETATM    3  C3          0      41.395  43.791  -8.368  1.00  0.00     0.067 C 
HETATM    4  C4          0      41.216  43.933  -6.997  1.00  0.00     0.103 C 
HETATM    5  O13         0      42.120  44.604  -6.305  1.00  0.00    -0.307 OA
HETATM    6  C14         0      43.148  45.188  -6.879  1.00  0.00     0.107 C 
HETATM    7  C15         0      43.859  46.201  -6.251  1.00  0.00     0.049 C 
HETATM    8  C16         0      44.771  46.982  -6.950  1.00  0.00     0.093 C 
HETATM    9  C18         0      45.308  46.385  -8.084  1.00  0.00     0.048 C 
HETATM   10  C19         0      44.647  45.338  -8.710  1.00  0.00     0.096 C 
HETATM   11  C21         0      43.464  44.878  -8.198  1.00  0.00     0.084 C 
ENDROOT
BRANCH  10  12
HETATM   12  O20         0      44.939  45.047 -10.039  1.00  0.00    -0.359 OA
HETATM   13  H20         0      45.852  44.976 -10.289  1.00  0.00     0.218 HD
ENDBRANCH  10  12
BRANCH   4  14
HETATM   14  C5          0      39.843  43.872  -6.490  1.00  0.00     0.025 C 
HETATM   15  C6          0      39.482  43.113  -5.386  1.00  0.00     0.004 C 
HETATM   16  C7          0      38.538  43.650  -4.517  1.00  0.00     0.026 C 
HETATM   17  C8          0      37.874  44.838  -4.804  1.00  0.00     0.112 C 
HETATM   18  C10         0      37.826  45.164  -6.152  1.00  0.00     0.112 C 
HETATM   19  C12         0      38.831  44.684  -6.984  1.00  0.00     0.028 C 
BRANCH  17  20
HETATM   20  O9          0      37.495  45.700  -3.790  1.00  0.00    -0.357 OA
HETATM   21  H9          0      36.623  46.069  -3.709  1.00  0.00     0.218 HD
ENDBRANCH  17  20
BRANCH  18  22
HETATM   22  O11         0      37.018  46.233  -6.512  1.00  0.00    -0.357 OA
HETATM   23  H11         0      37.455  47.012  -6.838  1.00  0.00     0.218 HD
ENDBRANCH  18  22
ENDBRANCH   4  14
BRANCH   8  24
HETATM   24  O17         0      44.875  48.359  -6.724  1.00  0.00    -0.359 OA
HETATM   25  H17         0      44.774  48.990  -7.427  1.00  0.00     0.218 HD
ENDBRANCH   8  24
TORSDOF 5
ENDMDL
