MODEL 1
REMARK VINA RESULT:      -5.5      0.000      0.000
REMARK  5 active torsions:
REMARK  status: ('A' for Active; 'I' for Inactive)
REMARK    1  A    between atoms: C4_4  and  C5_5 
REMARK    2  A    between atoms: C8_8  and  O9_9 
REMARK    3  A    between atoms: C10_11  and  O11_12 
REMARK    4  A    between atoms: C16_18  and  O17_19 
REMARK    5  A    between atoms: C19_22  and  O20_23 
ROOT
HETATM    1  O1          0      37.973  92.468 -22.697  1.00  0.00    -0.286 OA
HETATM    2  C2          0      37.265  93.464 -23.009  1.00  0.00     0.201 C 
HETATM    3  C3          0      35.992  93.343 -23.539  1.00  0.00     0.067 C 
HETATM    4  C4          0      35.274  94.452 -23.971  1.00  0.00     0.103 C 
HETATM    5  O13         0      35.820  95.649 -23.849  1.00  0.00    -0.307 OA
HETATM    6  C14         0      37.040  95.816 -23.387  1.00  0.00     0.107 C 
HETATM    7  C15         0      37.758  96.980 -23.623  1.00  0.00     0.049 C 
HETATM    8  C16         0      39.120  97.054 -23.359  1.00  0.00     0.093 C 
HETATM    9  C18         0      39.581  96.161 -22.400  1.00  0.00     0.048 C 
HETATM   10  C19         0      38.864  95.010 -22.105  1.00  0.00     0.096 C 
HETATM   11  C21         0      37.684  94.760 -22.752  1.00  0.00     0.084 C 
ENDROOT
BRANCH  10  12
HETATM   12  O20         0      39.514  93.940 -21.498  1.00  0.00    -0.359 OA
HETATM   13  H20         0      39.257  93.061 -21.751  1.00  0.00     0.218 HD
ENDBRANCH  10  12
BRANCH   4  14
HETATM   14  C5          0      34.275  94.237 -25.019  1.00  0.00     0.025 C 
HETATM   15  C6          0      34.392  94.777 -26.292  1.00  0.00     0.004 C 
HETATM   16  C7          0      33.982  93.992 -27.365  1.00  0.00     0.026 C 
HETATM   17  C8          0      33.352  92.767 -27.174  1.00  0.00     0.112 C 
HETATM   18  C10         0      32.727  92.622 -25.942  1.00  0.00     0.112 C 
HETATM   19  C12         0      33.212  93.355 -24.866  1.00  0.00     0.028 C 
BRANCH  17  20
HETATM   20  O9          0      33.535  91.729 -28.070  1.00  0.00    -0.357 OA
HETATM   21  H9          0      32.822  91.230 -28.452  1.00  0.00     0.218 HD
ENDBRANCH  17  20
BRANCH  18  22
HETATM   22  O11         0      31.927  91.502 -25.771  1.00  0.00    -0.357 OA
HETATM   23  H11         0      31.914  91.111 -24.905  1.00  0.00     0.218 HD
ENDBRANCH  18  22
ENDBRANCH   4  14
BRANCH   8  24
HETATM   24  O17         0      39.995  97.723 -24.222  1.00  0.00    -0.359 OA
HETATM   25  H17         0      40.375  97.294 -24.980  1.00  0.00     0.218 HD
ENDBRANCH   8  24
TORSDOF 5
ENDMDL
MODEL 2
REMARK VINA RESULT:      -5.5      2.217      3.096
REMARK  5 active torsions:
REMARK  status: ('A' for Active; 'I' for Inactive)
REMARK    1  A    between atoms: C4_4  and  C5_5 
REMARK    2  A    between atoms: C8_8  and  O9_9 
REMARK    3  A    between atoms: C10_11  and  O11_12 
REMARK    4  A    between atoms: C16_18  and  O17_19 
REMARK    5  A    between atoms: C19_22  and  O20_23 
ROOT
HETATM    1  O1          0      34.295  95.005 -20.689  1.00  0.00    -0.286 OA
HETATM    2  C2          0      34.601  94.649 -21.860  1.00  0.00     0.201 C 
HETATM    3  C3          0      33.659  94.446 -22.854  1.00  0.00     0.067 C 
HETATM    4  C4          0      34.013  93.955 -24.105  1.00  0.00     0.103 C 
HETATM    5  O13         0      35.286  93.698 -24.349  1.00  0.00    -0.307 OA
HETATM    6  C14         0      36.216  93.838 -23.430  1.00  0.00     0.107 C 
HETATM    7  C15         0      37.449  93.210 -23.536  1.00  0.00     0.049 C 
HETATM    8  C16         0      38.323  93.150 -22.457  1.00  0.00     0.093 C 
HETATM    9  C18         0      38.157  94.154 -21.511  1.00  0.00     0.048 C 
HETATM   10  C19         0      36.952  94.835 -21.409  1.00  0.00     0.096 C 
HETATM   11  C21         0      35.924  94.528 -22.258  1.00  0.00     0.084 C 
ENDROOT
BRANCH  10  12
HETATM   12  O20         0      36.644  95.500 -20.226  1.00  0.00    -0.359 OA
HETATM   13  H20         0      37.306  96.066 -19.848  1.00  0.00     0.218 HD
ENDBRANCH  10  12
BRANCH   4  14
HETATM   14  C5          0      32.990  93.218 -24.850  1.00  0.00     0.025 C 
HETATM   15  C6          0      31.631  93.404 -24.645  1.00  0.00     0.004 C 
HETATM   16  C7          0      30.800  93.372 -25.760  1.00  0.00     0.026 C 
HETATM   17  C8          0      31.283  93.034 -27.020  1.00  0.00     0.112 C 
HETATM   18  C10         0      32.446  92.275 -27.011  1.00  0.00     0.112 C 
HETATM   19  C12         0      33.301  92.390 -25.921  1.00  0.00     0.028 C 
BRANCH  17  20
HETATM   20  O9          0      30.746  93.604 -28.161  1.00  0.00    -0.357 OA
HETATM   21  H9          0      29.846  93.479 -28.440  1.00  0.00     0.218 HD
ENDBRANCH  17  20
BRANCH  18  22
HETATM   22  O11         0      32.865  91.753 -28.226  1.00  0.00    -0.357 OA
HETATM   23  H11         0      32.208  91.318 -28.757  1.00  0.00     0.218 HD
ENDBRANCH  18  22
ENDBRANCH   4  14
BRANCH   8  24
HETATM   24  O17         0      39.065  91.996 -22.183  1.00  0.00    -0.359 OA
HETATM   25  H17         0      38.693  91.128 -22.285  1.00  0.00     0.218 HD
ENDBRANCH   8  24
TORSDOF 5
ENDMDL
MODEL 3
REMARK VINA RESULT:      -5.5      1.821      6.821
REMARK  5 active torsions:
REMARK  status: ('A' for Active; 'I' for Inactive)
REMARK    1  A    between atoms: C4_4  and  C5_5 
REMARK    2  A    between atoms: C8_8  and  O9_9 
REMARK    3  A    between atoms: C10_11  and  O11_12 
REMARK    4  A    between atoms: C16_18  and  O17_19 
REMARK    5  A    between atoms: C19_22  and  O20_23 
ROOT
HETATM    1  O1          0      32.598  95.952 -23.318  1.00  0.00    -0.286 OA
HETATM    2  C2          0      33.270  94.923 -23.606  1.00  0.00     0.201 C 
HETATM    3  C3          0      34.586  94.753 -23.213  1.00  0.00     0.067 C 
HETATM    4  C4          0      35.335  93.659 -23.631  1.00  0.00     0.103 C 
HETATM    5  O13         0      34.762  92.755 -24.405  1.00  0.00    -0.307 OA
HETATM    6  C14         0      33.527  92.887 -24.838  1.00  0.00     0.107 C 
HETATM    7  C15         0      33.059  92.185 -25.939  1.00  0.00     0.049 C 
HETATM    8  C16         0      31.851  92.512 -26.543  1.00  0.00     0.093 C 
HETATM    9  C18         0      30.938  93.159 -25.719  1.00  0.00     0.048 C 
HETATM   10  C19         0      31.367  93.832 -24.583  1.00  0.00     0.096 C 
HETATM   11  C21         0      32.698  93.845 -24.263  1.00  0.00     0.084 C 
ENDROOT
BRANCH  10  12
HETATM   12  O20         0      30.553  94.813 -24.025  1.00  0.00    -0.359 OA
HETATM   13  H20         0      30.808  95.180 -23.187  1.00  0.00     0.218 HD
ENDBRANCH  10  12
BRANCH   4  14
HETATM   14  C5          0      36.788  93.830 -23.704  1.00  0.00     0.025 C 
HETATM   15  C6          0      37.385  94.979 -24.202  1.00  0.00     0.004 C 
HETATM   16  C7          0      38.537  95.433 -23.568  1.00  0.00     0.026 C 
HETATM   17  C8          0      39.151  94.700 -22.558  1.00  0.00     0.112 C 
HETATM   18  C10         0      38.872  93.340 -22.578  1.00  0.00     0.112 C 
HETATM   19  C12         0      37.674  92.920 -23.142  1.00  0.00     0.028 C 
BRANCH  17  20
HETATM   20  O9          0      39.803  95.335 -21.517  1.00  0.00    -0.357 OA
HETATM   21  H9          0      40.090  94.894 -20.726  1.00  0.00     0.218 HD
ENDBRANCH  17  20
BRANCH  18  22
HETATM   22  O11         0      39.604  92.536 -21.715  1.00  0.00    -0.357 OA
HETATM   23  H11         0      40.196  92.975 -21.116  1.00  0.00     0.218 HD
ENDBRANCH  18  22
ENDBRANCH   4  14
BRANCH   8  24
HETATM   24  O17         0      31.705  92.499 -27.935  1.00  0.00    -0.359 OA
HETATM   25  H17         0      30.859  92.627 -28.349  1.00  0.00     0.218 HD
ENDBRANCH   8  24
TORSDOF 5
ENDMDL
MODEL 4
REMARK VINA RESULT:      -5.3      2.748      6.028
REMARK  5 active torsions:
REMARK  status: ('A' for Active; 'I' for Inactive)
REMARK    1  A    between atoms: C4_4  and  C5_5 
REMARK    2  A    between atoms: C8_8  and  O9_9 
REMARK    3  A    between atoms: C10_11  and  O11_12 
REMARK    4  A    between atoms: C16_18  and  O17_19 
REMARK    5  A    between atoms: C19_22  and  O20_23 
ROOT
HETATM    1  O1          0      35.507  94.696 -25.142  1.00  0.00    -0.286 OA
HETATM    2  C2          0      36.490  95.310 -24.642  1.00  0.00     0.201 C 
HETATM    3  C3          0      36.994  96.483 -25.177  1.00  0.00     0.067 C 
HETATM    4  C4          0      38.139  97.083 -24.667  1.00  0.00     0.103 C 
HETATM    5  O13         0      38.743  96.523 -23.633  1.00  0.00    -0.307 OA
HETATM    6  C14         0      38.327  95.390 -23.111  1.00  0.00     0.107 C 
HETATM    7  C15         0      39.152  94.604 -22.319  1.00  0.00     0.049 C 
HETATM    8  C16         0      38.804  93.302 -21.984  1.00  0.00     0.093 C 
HETATM    9  C18         0      37.440  93.034 -22.010  1.00  0.00     0.048 C 
HETATM   10  C19         0      36.579  93.828 -22.754  1.00  0.00     0.096 C 
HETATM   11  C21         0      37.075  94.894 -23.455  1.00  0.00     0.084 C 
ENDROOT
BRANCH  10  12
HETATM   12  O20         0      35.338  93.322 -23.127  1.00  0.00    -0.359 OA
HETATM   13  H20         0      34.826  92.869 -22.468  1.00  0.00     0.218 HD
ENDBRANCH  10  12
BRANCH   4  14
HETATM   14  C5          0      38.931  97.904 -25.585  1.00  0.00     0.025 C 
HETATM   15  C6          0      40.110  98.530 -25.208  1.00  0.00     0.004 C 
HETATM   16  C7          0      41.145  98.568 -26.137  1.00  0.00     0.026 C 
HETATM   17  C8          0      40.970  98.121 -27.442  1.00  0.00     0.112 C 
HETATM   18  C10         0      39.654  98.121 -27.884  1.00  0.00     0.112 C 
HETATM   19  C12         0      38.641  97.995 -26.940  1.00  0.00     0.028 C 
BRANCH  17  20
HETATM   20  O9          0      42.013  97.533 -28.135  1.00  0.00    -0.357 OA
HETATM   21  H9          0      42.573  98.002 -28.744  1.00  0.00     0.218 HD
ENDBRANCH  17  20
BRANCH  18  22
HETATM   22  O11         0      39.443  97.865 -29.231  1.00  0.00    -0.357 OA
HETATM   23  H11         0      40.210  97.854 -29.792  1.00  0.00     0.218 HD
ENDBRANCH  18  22
ENDBRANCH   4  14
BRANCH   8  24
HETATM   24  O17         0      39.755  92.275 -21.959  1.00  0.00    -0.359 OA
HETATM   25  H17         0      40.335  92.115 -22.693  1.00  0.00     0.218 HD
ENDBRANCH   8  24
TORSDOF 5
ENDMDL
MODEL 5
REMARK VINA RESULT:      -5.3      1.782      6.742
REMARK  5 active torsions:
REMARK  status: ('A' for Active; 'I' for Inactive)
REMARK    1  A    between atoms: C4_4  and  C5_5 
REMARK    2  A    between atoms: C8_8  and  O9_9 
REMARK    3  A    between atoms: C10_11  and  O11_12 
REMARK    4  A    between atoms: C16_18  and  O17_19 
REMARK    5  A    between atoms: C19_22  and  O20_23 
ROOT
HETATM    1  O1          0      33.944  96.761 -25.834  1.00  0.00    -0.286 OA
HETATM    2  C2          0      34.031  95.665 -25.214  1.00  0.00     0.201 C 
HETATM    3  C3          0      34.722  95.530 -24.022  1.00  0.00     0.067 C 
HETATM    4  C4          0      34.890  94.292 -23.414  1.00  0.00     0.103 C 
HETATM    5  O13         0      34.357  93.226 -23.985  1.00  0.00    -0.307 OA
HETATM    6  C14         0      33.723  93.293 -25.135  1.00  0.00     0.107 C 
HETATM    7  C15         0      33.518  92.170 -25.923  1.00  0.00     0.049 C 
HETATM    8  C16         0      33.083  92.280 -27.238  1.00  0.00     0.093 C 
HETATM    9  C18         0      32.381  93.444 -27.528  1.00  0.00     0.048 C 
HETATM   10  C19         0      32.527  94.572 -26.733  1.00  0.00     0.096 C 
HETATM   11  C21         0      33.355  94.534 -25.645  1.00  0.00     0.084 C 
ENDROOT
BRANCH  10  12
HETATM   12  O20         0      32.189  95.818 -27.252  1.00  0.00    -0.359 OA
HETATM   13  H20         0      31.482  96.297 -26.836  1.00  0.00     0.218 HD
ENDBRANCH  10  12
BRANCH   4  14
HETATM   14  C5          0      36.068  94.119 -22.561  1.00  0.00     0.025 C 
HETATM   15  C6          0      36.656  92.883 -22.332  1.00  0.00     0.004 C 
HETATM   16  C7          0      38.044  92.833 -22.261  1.00  0.00     0.026 C 
HETATM   17  C8          0      38.817  93.989 -22.282  1.00  0.00     0.112 C 
HETATM   18  C10         0      38.152  95.139 -21.877  1.00  0.00     0.112 C 
HETATM   19  C12         0      36.773  95.195 -22.038  1.00  0.00     0.028 C 
BRANCH  17  20
HETATM   20  O9          0      40.072  93.992 -22.865  1.00  0.00    -0.357 OA
HETATM   21  H9          0      40.827  94.432 -22.490  1.00  0.00     0.218 HD
ENDBRANCH  17  20
BRANCH  18  22
HETATM   22  O11         0      38.922  96.280 -21.698  1.00  0.00    -0.357 OA
HETATM   23  H11         0      39.133  96.520 -20.803  1.00  0.00     0.218 HD
ENDBRANCH  18  22
ENDBRANCH   4  14
BRANCH   8  24
HETATM   24  O17         0      33.599  91.461 -28.249  1.00  0.00    -0.359 OA
HETATM   25  H17         0      33.703  90.525 -28.127  1.00  0.00     0.218 HD
ENDBRANCH   8  24
TORSDOF 5
ENDMDL
MODEL 6
REMARK VINA RESULT:      -5.0      1.939      3.134
REMARK  5 active torsions:
REMARK  status: ('A' for Active; 'I' for Inactive)
REMARK    1  A    between atoms: C4_4  and  C5_5 
REMARK    2  A    between atoms: C8_8  and  O9_9 
REMARK    3  A    between atoms: C10_11  and  O11_12 
REMARK    4  A    between atoms: C16_18  and  O17_19 
REMARK    5  A    between atoms: C19_22  and  O20_23 
ROOT
HETATM    1  O1          0      36.638  96.501 -25.701  1.00  0.00    -0.286 OA
HETATM    2  C2          0      36.030  95.472 -25.297  1.00  0.00     0.201 C 
HETATM    3  C3          0      34.872  95.003 -25.893  1.00  0.00     0.067 C 
HETATM    4  C4          0      34.165  93.928 -25.366  1.00  0.00     0.103 C 
HETATM    5  O13         0      34.630  93.334 -24.281  1.00  0.00    -0.307 OA
HETATM    6  C14         0      35.704  93.762 -23.655  1.00  0.00     0.107 C 
HETATM    7  C15         0      35.968  93.419 -22.337  1.00  0.00     0.049 C 
HETATM    8  C16         0      36.954  94.069 -21.605  1.00  0.00     0.093 C 
HETATM    9  C18         0      37.963  94.648 -22.365  1.00  0.00     0.048 C 
HETATM   10  C19         0      37.749  94.961 -23.701  1.00  0.00     0.096 C 
HETATM   11  C21         0      36.540  94.683 -24.278  1.00  0.00     0.084 C 
ENDROOT
BRANCH  10  12
HETATM   12  O20         0      38.564  95.906 -24.317  1.00  0.00    -0.359 OA
HETATM   13  H20         0      39.280  95.592 -24.856  1.00  0.00     0.218 HD
ENDBRANCH  10  12
BRANCH   4  14
HETATM   14  C5          0      32.728  93.873 -25.638  1.00  0.00     0.025 C 
HETATM   15  C6          0      32.141  94.523 -26.714  1.00  0.00     0.004 C 
HETATM   16  C7          0      31.107  93.870 -27.376  1.00  0.00     0.026 C 
HETATM   17  C8          0      30.581  92.671 -26.905  1.00  0.00     0.112 C 
HETATM   18  C10         0      30.775  92.446 -25.549  1.00  0.00     0.112 C 
HETATM   19  C12         0      31.867  93.044 -24.930  1.00  0.00     0.028 C 
BRANCH  17  20
HETATM   20  O9          0      30.103  91.714 -27.782  1.00  0.00    -0.357 OA
HETATM   21  H9          0      29.967  91.868 -28.710  1.00  0.00     0.218 HD
ENDBRANCH  17  20
BRANCH  18  22
HETATM   22  O11         0      30.112  91.363 -24.990  1.00  0.00    -0.357 OA
HETATM   23  H11         0      29.164  91.362 -25.052  1.00  0.00     0.218 HD
ENDBRANCH  18  22
ENDBRANCH   4  14
BRANCH   8  24
HETATM   24  O17         0      36.764  94.402 -20.259  1.00  0.00    -0.359 OA
HETATM   25  H17         0      37.463  94.318 -19.621  1.00  0.00     0.218 HD
ENDBRANCH   8  24
TORSDOF 5
ENDMDL
MODEL 7
REMARK VINA RESULT:      -4.9      2.136      6.266
REMARK  5 active torsions:
REMARK  status: ('A' for Active; 'I' for Inactive)
REMARK    1  A    between atoms: C4_4  and  C5_5 
REMARK    2  A    between atoms: C8_8  and  O9_9 
REMARK    3  A    between atoms: C10_11  and  O11_12 
REMARK    4  A    between atoms: C16_18  and  O17_19 
REMARK    5  A    between atoms: C19_22  and  O20_23 
ROOT
HETATM    1  O1          0      37.978  97.862 -26.582  1.00  0.00    -0.286 OA
HETATM    2  C2          0      37.145  97.083 -26.042  1.00  0.00     0.201 C 
HETATM    3  C3          0      37.214  96.718 -24.709  1.00  0.00     0.067 C 
HETATM    4  C4          0      36.345  95.778 -24.165  1.00  0.00     0.103 C 
HETATM    5  O13         0      35.422  95.241 -24.944  1.00  0.00    -0.307 OA
HETATM    6  C14         0      35.338  95.525 -26.225  1.00  0.00     0.107 C 
HETATM    7  C15         0      34.665  94.699 -27.114  1.00  0.00     0.049 C 
HETATM    8  C16         0      34.792  94.861 -28.488  1.00  0.00     0.093 C 
HETATM    9  C18         0      35.152  96.140 -28.897  1.00  0.00     0.048 C 
HETATM   10  C19         0      35.784  97.010 -28.019  1.00  0.00     0.096 C 
HETATM   11  C21         0      36.041  96.611 -26.735  1.00  0.00     0.084 C 
ENDROOT
BRANCH  10  12
HETATM   12  O20         0      36.515  98.078 -28.528  1.00  0.00    -0.359 OA
HETATM   13  H20         0      37.169  97.895 -29.192  1.00  0.00     0.218 HD
ENDBRANCH  10  12
BRANCH   4  14
HETATM   14  C5          0      36.820  95.018 -23.008  1.00  0.00     0.025 C 
HETATM   15  C6          0      36.232  93.831 -22.595  1.00  0.00     0.004 C 
HETATM   16  C7          0      37.071  92.823 -22.130  1.00  0.00     0.026 C 
HETATM   17  C8          0      38.434  93.033 -21.953  1.00  0.00     0.112 C 
HETATM   18  C10         0      38.799  94.362 -21.779  1.00  0.00     0.112 C 
HETATM   19  C12         0      37.986  95.347 -22.329  1.00  0.00     0.028 C 
BRANCH  17  20
HETATM   20  O9          0      39.341  92.008 -22.153  1.00  0.00    -0.357 OA
HETATM   21  H9          0      39.482  91.300 -21.535  1.00  0.00     0.218 HD
ENDBRANCH  17  20
BRANCH  18  22
HETATM   22  O11         0      40.113  94.610 -21.412  1.00  0.00    -0.357 OA
HETATM   23  H11         0      40.732  94.776 -22.114  1.00  0.00     0.218 HD
ENDBRANCH  18  22
ENDBRANCH   4  14
BRANCH   8  24
HETATM   24  O17         0      34.885  93.761 -29.347  1.00  0.00    -0.359 OA
HETATM   25  H17         0      35.497  93.745 -30.074  1.00  0.00     0.218 HD
ENDBRANCH   8  24
TORSDOF 5
ENDMDL
MODEL 8
REMARK VINA RESULT:      -4.4      7.682     10.148
REMARK  5 active torsions:
REMARK  status: ('A' for Active; 'I' for Inactive)
REMARK    1  A    between atoms: C4_4  and  C5_5 
REMARK    2  A    between atoms: C8_8  and  O9_9 
REMARK    3  A    between atoms: C10_11  and  O11_12 
REMARK    4  A    between atoms: C16_18  and  O17_19 
REMARK    5  A    between atoms: C19_22  and  O20_23 
ROOT
HETATM    1  O1          0      46.147  96.928 -26.227  1.00  0.00    -0.286 OA
HETATM    2  C2          0      45.254  97.730 -25.837  1.00  0.00     0.201 C 
HETATM    3  C3          0      45.265  98.313 -24.581  1.00  0.00     0.067 C 
HETATM    4  C4          0      44.216  99.112 -24.140  1.00  0.00     0.103 C 
HETATM    5  O13         0      43.199  99.331 -24.954  1.00  0.00    -0.307 OA
HETATM    6  C14         0      43.121  98.772 -26.142  1.00  0.00     0.107 C 
HETATM    7  C15         0      41.917  98.666 -26.823  1.00  0.00     0.049 C 
HETATM    8  C16         0      41.792  97.858 -27.947  1.00  0.00     0.093 C 
HETATM    9  C18         0      42.977  97.620 -28.632  1.00  0.00     0.048 C 
HETATM   10  C19         0      44.202  97.762 -27.995  1.00  0.00     0.096 C 
HETATM   11  C21         0      44.244  98.157 -26.686  1.00  0.00     0.084 C 
ENDROOT
BRANCH  10  12
HETATM   12  O20         0      45.320  97.121 -28.519  1.00  0.00    -0.359 OA
HETATM   13  H20         0      45.534  96.257 -28.189  1.00  0.00     0.218 HD
ENDBRANCH  10  12
BRANCH   4  14
HETATM   14  C5          0      43.990  99.183 -22.695  1.00  0.00     0.025 C 
HETATM   15  C6          0      43.039 100.015 -22.123  1.00  0.00     0.004 C 
HETATM   16  C7          0      42.329  99.526 -21.030  1.00  0.00     0.026 C 
HETATM   17  C8          0      42.646  98.307 -20.441  1.00  0.00     0.112 C 
HETATM   18  C10         0      43.949  97.879 -20.657  1.00  0.00     0.112 C 
HETATM   19  C12         0      44.606  98.316 -21.802  1.00  0.00     0.028 C 
BRANCH  17  20
HETATM   20  O9          0      41.661  97.515 -19.878  1.00  0.00    -0.357 OA
HETATM   21  H9          0      41.262  97.689 -19.034  1.00  0.00     0.218 HD
ENDBRANCH  17  20
BRANCH  18  22
HETATM   22  O11         0      44.374  96.770 -19.940  1.00  0.00    -0.357 OA
HETATM   23  H11         0      45.200  96.380 -20.201  1.00  0.00     0.218 HD
ENDBRANCH  18  22
ENDBRANCH   4  14
BRANCH   8  24
HETATM   24  O17         0      40.646  97.085 -28.166  1.00  0.00    -0.359 OA
HETATM   25  H17         0      40.688  96.138 -28.228  1.00  0.00     0.218 HD
ENDBRANCH   8  24
TORSDOF 5
ENDMDL
MODEL 9
REMARK VINA RESULT:      -4.4      3.965      7.204
REMARK  5 active torsions:
REMARK  status: ('A' for Active; 'I' for Inactive)
REMARK    1  A    between atoms: C4_4  and  C5_5 
REMARK    2  A    between atoms: C8_8  and  O9_9 
REMARK    3  A    between atoms: C10_11  and  O11_12 
REMARK    4  A    between atoms: C16_18  and  O17_19 
REMARK    5  A    between atoms: C19_22  and  O20_23 
ROOT
HETATM    1  O1          0      35.966  97.352 -21.959  1.00  0.00    -0.286 OA
HETATM    2  C2          0      37.194  97.080 -22.062  1.00  0.00     0.201 C 
HETATM    3  C3          0      38.153  98.038 -22.342  1.00  0.00     0.067 C 
HETATM    4  C4          0      39.485  97.696 -22.552  1.00  0.00     0.103 C 
HETATM    5  O13         0      39.835  96.425 -22.459  1.00  0.00    -0.307 OA
HETATM    6  C14         0      38.958  95.472 -22.232  1.00  0.00     0.107 C 
HETATM    7  C15         0      39.230  94.144 -22.526  1.00  0.00     0.049 C 
HETATM    8  C16         0      38.224  93.185 -22.526  1.00  0.00     0.093 C 
HETATM    9  C18         0      37.123  93.489 -21.735  1.00  0.00     0.048 C 
HETATM   10  C19         0      36.848  94.804 -21.384  1.00  0.00     0.096 C 
HETATM   11  C21         0      37.677  95.807 -21.806  1.00  0.00     0.084 C 
ENDROOT
BRANCH  10  12
HETATM   12  O20         0      35.559  95.147 -20.987  1.00  0.00    -0.359 OA
HETATM   13  H20         0      35.439  95.487 -20.109  1.00  0.00     0.218 HD
ENDBRANCH  10  12
BRANCH   4  14
HETATM   14  C5          0      40.280  98.587 -23.399  1.00  0.00     0.025 C 
HETATM   15  C6          0      41.295  99.390 -22.901  1.00  0.00     0.004 C 
HETATM   16  C7          0      42.438  99.542 -23.680  1.00  0.00     0.026 C 
HETATM   17  C8          0      42.517  99.024 -24.968  1.00  0.00     0.112 C 
HETATM   18  C10         0      41.290  98.817 -25.585  1.00  0.00     0.112 C 
HETATM   19  C12         0      40.179  98.583 -24.784  1.00  0.00     0.028 C 
BRANCH  17  20
HETATM   20  O9          0      43.720  98.567 -25.476  1.00  0.00    -0.357 OA
HETATM   21  H9          0      43.789  97.944 -26.190  1.00  0.00     0.218 HD
ENDBRANCH  17  20
BRANCH  18  22
HETATM   22  O11         0      41.314  98.482 -26.932  1.00  0.00    -0.357 OA
HETATM   23  H11         0      41.901  97.781 -27.191  1.00  0.00     0.218 HD
ENDBRANCH  18  22
ENDBRANCH   4  14
BRANCH   8  24
HETATM   24  O17         0      38.178  92.177 -23.496  1.00  0.00    -0.359 OA
HETATM   25  H17         0      38.955  91.694 -23.751  1.00  0.00     0.218 HD
ENDBRANCH   8  24
TORSDOF 5
ENDMDL
