MODEL 1
REMARK VINA RESULT:      -5.0      0.000      0.000
REMARK  5 active torsions:
REMARK  status: ('A' for Active; 'I' for Inactive)
REMARK    1  A    between atoms: C4_4  and  C5_5 
REMARK    2  A    between atoms: C8_8  and  O9_9 
REMARK    3  A    between atoms: C10_11  and  O11_12 
REMARK    4  A    between atoms: C16_18  and  O17_19 
REMARK    5  A    between atoms: C19_22  and  O20_23 
ROOT
HETATM    1  O1          0      60.194  -0.643 -19.407  1.00  0.00    -0.286 OA
HETATM    2  C2          0      61.400  -0.312 -19.240  1.00  0.00     0.201 C 
HETATM    3  C3          0      62.262  -1.010 -18.411  1.00  0.00     0.067 C 
HETATM    4  C4          0      63.556  -0.566 -18.166  1.00  0.00     0.103 C 
HETATM    5  O13         0      63.971   0.540 -18.759  1.00  0.00    -0.307 OA
HETATM    6  C14         0      63.182   1.260 -19.525  1.00  0.00     0.107 C 
HETATM    7  C15         0      63.459   2.588 -19.817  1.00  0.00     0.049 C 
HETATM    8  C16         0      62.508   3.411 -20.407  1.00  0.00     0.093 C 
HETATM    9  C18         0      61.534   2.749 -21.144  1.00  0.00     0.048 C 
HETATM   10  C19         0      61.263   1.407 -20.910  1.00  0.00     0.096 C 
HETATM   11  C21         0      61.972   0.728 -19.957  1.00  0.00     0.084 C 
ENDROOT
BRANCH  10  12
HETATM   12  O20         0      60.040   0.880 -21.313  1.00  0.00    -0.359 OA
HETATM   13  H20         0      60.005   0.425 -22.146  1.00  0.00     0.218 HD
ENDBRANCH  10  12
BRANCH   4  14
HETATM   14  C5          0      64.169  -0.956 -16.894  1.00  0.00     0.025 C 
HETATM   15  C6          0      64.744  -0.041 -16.025  1.00  0.00     0.004 C 
HETATM   16  C7          0      64.563  -0.247 -14.661  1.00  0.00     0.026 C 
HETATM   17  C8          0      63.947  -1.393 -14.171  1.00  0.00     0.112 C 
HETATM   18  C10         0      63.990  -2.485 -15.028  1.00  0.00     0.112 C 
HETATM   19  C12         0      64.086  -2.249 -16.394  1.00  0.00     0.028 C 
BRANCH  17  20
HETATM   20  O9          0      63.182  -1.350 -13.019  1.00  0.00    -0.357 OA
HETATM   21  H9          0      63.466  -1.702 -12.183  1.00  0.00     0.218 HD
ENDBRANCH  17  20
BRANCH  18  22
HETATM   22  O11         0      63.561  -3.702 -14.517  1.00  0.00    -0.357 OA
HETATM   23  H11         0      64.208  -4.232 -14.068  1.00  0.00     0.218 HD
ENDBRANCH  18  22
ENDBRANCH   4  14
BRANCH   8  24
HETATM   24  O17         0      62.351   4.744 -20.011  1.00  0.00    -0.359 OA
HETATM   25  H17         0      61.874   4.978 -19.223  1.00  0.00     0.218 HD
ENDBRANCH   8  24
TORSDOF 5
ENDMDL
MODEL 2
REMARK VINA RESULT:      -4.8      3.893      6.541
REMARK  5 active torsions:
REMARK  status: ('A' for Active; 'I' for Inactive)
REMARK    1  A    between atoms: C4_4  and  C5_5 
REMARK    2  A    between atoms: C8_8  and  O9_9 
REMARK    3  A    between atoms: C10_11  and  O11_12 
REMARK    4  A    between atoms: C16_18  and  O17_19 
REMARK    5  A    between atoms: C19_22  and  O20_23 
ROOT
HETATM    1  O1          0      60.245   6.571 -22.880  1.00  0.00    -0.286 OA
HETATM    2  C2          0      61.258   6.132 -22.270  1.00  0.00     0.201 C 
HETATM    3  C3          0      61.575   4.786 -22.214  1.00  0.00     0.067 C 
HETATM    4  C4          0      62.639   4.319 -21.450  1.00  0.00     0.103 C 
HETATM    5  O13         0      63.370   5.192 -20.780  1.00  0.00    -0.307 OA
HETATM    6  C14         0      63.090   6.477 -20.768  1.00  0.00     0.107 C 
HETATM    7  C15         0      63.579   7.323 -19.784  1.00  0.00     0.049 C 
HETATM    8  C16         0      63.081   8.611 -19.627  1.00  0.00     0.093 C 
HETATM    9  C18         0      62.511   9.163 -20.768  1.00  0.00     0.048 C 
HETATM   10  C19         0      62.053   8.347 -21.793  1.00  0.00     0.096 C 
HETATM   11  C21         0      62.180   6.988 -21.688  1.00  0.00     0.084 C 
ENDROOT
BRANCH  10  12
HETATM   12  O20         0      61.119   8.847 -22.695  1.00  0.00    -0.359 OA
HETATM   13  H20         0      60.946   8.343 -23.481  1.00  0.00     0.218 HD
ENDBRANCH  10  12
BRANCH   4  14
HETATM   14  C5          0      62.556   2.943 -20.956  1.00  0.00     0.025 C 
HETATM   15  C6          0      62.772   2.606 -19.628  1.00  0.00     0.004 C 
HETATM   16  C7          0      61.967   1.615 -19.075  1.00  0.00     0.026 C 
HETATM   17  C8          0      61.070   0.887 -19.850  1.00  0.00     0.112 C 
HETATM   18  C10         0      61.375   0.846 -21.204  1.00  0.00     0.112 C 
HETATM   19  C12         0      62.108   1.894 -21.748  1.00  0.00     0.028 C 
BRANCH  17  20
HETATM   20  O9          0      59.875   0.439 -19.317  1.00  0.00    -0.357 OA
HETATM   21  H9          0      59.528   0.729 -18.482  1.00  0.00     0.218 HD
ENDBRANCH  17  20
BRANCH  18  22
HETATM   22  O11         0      60.625  -0.016 -21.991  1.00  0.00    -0.357 OA
HETATM   23  H11         0      61.102  -0.564 -22.604  1.00  0.00     0.218 HD
ENDBRANCH  18  22
ENDBRANCH   4  14
BRANCH   8  24
HETATM   24  O17         0      62.868   9.161 -18.358  1.00  0.00    -0.359 OA
HETATM   25  H17         0      62.604   8.625 -17.620  1.00  0.00     0.218 HD
ENDBRANCH   8  24
TORSDOF 5
ENDMDL
MODEL 3
REMARK VINA RESULT:      -4.6      3.261      7.432
REMARK  5 active torsions:
REMARK  status: ('A' for Active; 'I' for Inactive)
REMARK    1  A    between atoms: C4_4  and  C5_5 
REMARK    2  A    between atoms: C8_8  and  O9_9 
REMARK    3  A    between atoms: C10_11  and  O11_12 
REMARK    4  A    between atoms: C16_18  and  O17_19 
REMARK    5  A    between atoms: C19_22  and  O20_23 
ROOT
HETATM    1  O1          0      64.972   2.182 -22.516  1.00  0.00    -0.286 OA
HETATM    2  C2          0      64.138   2.854 -21.850  1.00  0.00     0.201 C 
HETATM    3  C3          0      63.998   4.224 -21.987  1.00  0.00     0.067 C 
HETATM    4  C4          0      63.144   4.955 -21.169  1.00  0.00     0.103 C 
HETATM    5  O13         0      62.438   4.313 -20.255  1.00  0.00    -0.307 OA
HETATM    6  C14         0      62.561   3.019 -20.058  1.00  0.00     0.107 C 
HETATM    7  C15         0      62.149   2.417 -18.878  1.00  0.00     0.049 C 
HETATM    8  C16         0      62.508   1.110 -18.571  1.00  0.00     0.093 C 
HETATM    9  C18         0      62.806   0.310 -19.667  1.00  0.00     0.048 C 
HETATM   10  C19         0      63.176   0.881 -20.877  1.00  0.00     0.096 C 
HETATM   11  C21         0      63.232   2.243 -20.996  1.00  0.00     0.084 C 
ENDROOT
BRANCH  10  12
HETATM   12  O20         0      63.876   0.116 -21.805  1.00  0.00    -0.359 OA
HETATM   13  H20         0      64.494  -0.526 -21.477  1.00  0.00     0.218 HD
ENDBRANCH  10  12
BRANCH   4  14
HETATM   14  C5          0      63.474   6.364 -20.945  1.00  0.00     0.025 C 
HETATM   15  C6          0      62.623   7.401 -21.300  1.00  0.00     0.004 C 
HETATM   16  C7          0      62.544   8.492 -20.440  1.00  0.00     0.026 C 
HETATM   17  C8          0      63.379   8.612 -19.335  1.00  0.00     0.112 C 
HETATM   18  C10         0      64.566   7.896 -19.424  1.00  0.00     0.112 C 
HETATM   19  C12         0      64.593   6.760 -20.224  1.00  0.00     0.028 C 
BRANCH  17  20
HETATM   20  O9          0      62.938   9.226 -18.176  1.00  0.00    -0.357 OA
HETATM   21  H9          0      62.643   8.753 -17.407  1.00  0.00     0.218 HD
ENDBRANCH  17  20
BRANCH  18  22
HETATM   22  O11         0      65.515   8.129 -18.439  1.00  0.00    -0.357 OA
HETATM   23  H11         0      65.206   8.508 -17.625  1.00  0.00     0.218 HD
ENDBRANCH  18  22
ENDBRANCH   4  14
BRANCH   8  24
HETATM   24  O17         0      62.867   0.739 -17.270  1.00  0.00    -0.359 OA
HETATM   25  H17         0      62.595  -0.090 -16.895  1.00  0.00     0.218 HD
ENDBRANCH   8  24
TORSDOF 5
ENDMDL
MODEL 4
REMARK VINA RESULT:      -4.5      2.274      3.534
REMARK  5 active torsions:
REMARK  status: ('A' for Active; 'I' for Inactive)
REMARK    1  A    between atoms: C4_4  and  C5_5 
REMARK    2  A    between atoms: C8_8  and  O9_9 
REMARK    3  A    between atoms: C10_11  and  O11_12 
REMARK    4  A    between atoms: C16_18  and  O17_19 
REMARK    5  A    between atoms: C19_22  and  O20_23 
ROOT
HETATM    1  O1          0      62.533   2.948 -18.885  1.00  0.00    -0.286 OA
HETATM    2  C2          0      61.944   1.981 -19.442  1.00  0.00     0.201 C 
HETATM    3  C3          0      61.798   0.743 -18.839  1.00  0.00     0.067 C 
HETATM    4  C4          0      61.236  -0.334 -19.515  1.00  0.00     0.103 C 
HETATM    5  O13         0      60.817  -0.157 -20.755  1.00  0.00    -0.307 OA
HETATM    6  C14         0      60.966   0.987 -21.387  1.00  0.00     0.107 C 
HETATM    7  C15         0      60.906   1.071 -22.770  1.00  0.00     0.049 C 
HETATM    8  C16         0      61.312   2.218 -23.442  1.00  0.00     0.093 C 
HETATM    9  C18         0      61.259   3.387 -22.692  1.00  0.00     0.048 C 
HETATM   10  C19         0      61.270   3.337 -21.305  1.00  0.00     0.096 C 
HETATM   11  C21         0      61.316   2.126 -20.670  1.00  0.00     0.084 C 
ENDROOT
BRANCH  10  12
HETATM   12  O20         0      61.651   4.466 -20.586  1.00  0.00    -0.359 OA
HETATM   13  H20         0      61.841   4.362 -19.662  1.00  0.00     0.218 HD
ENDBRANCH  10  12
BRANCH   4  14
HETATM   14  C5          0      61.646  -1.675 -19.094  1.00  0.00     0.025 C 
HETATM   15  C6          0      62.957  -2.123 -19.181  1.00  0.00     0.004 C 
HETATM   16  C7          0      63.433  -2.924 -18.148  1.00  0.00     0.026 C 
HETATM   17  C8          0      62.599  -3.377 -17.131  1.00  0.00     0.112 C 
HETATM   18  C10         0      61.252  -3.417 -17.462  1.00  0.00     0.112 C 
HETATM   19  C12         0      60.785  -2.546 -18.439  1.00  0.00     0.028 C 
BRANCH  17  20
HETATM   20  O9          0      63.081  -3.557 -15.847  1.00  0.00    -0.357 OA
HETATM   21  H9          0      63.956  -3.871 -15.650  1.00  0.00     0.218 HD
ENDBRANCH  17  20
BRANCH  18  22
HETATM   22  O11         0      60.401  -4.036 -16.557  1.00  0.00    -0.357 OA
HETATM   23  H11         0      60.117  -3.520 -15.812  1.00  0.00     0.218 HD
ENDBRANCH  18  22
ENDBRANCH   4  14
BRANCH   8  24
HETATM   24  O17         0      62.029   2.145 -24.641  1.00  0.00    -0.359 OA
HETATM   25  H17         0      62.829   1.638 -24.715  1.00  0.00     0.218 HD
ENDBRANCH   8  24
TORSDOF 5
ENDMDL
MODEL 5
REMARK VINA RESULT:      -4.3      2.051      7.064
REMARK  5 active torsions:
REMARK  status: ('A' for Active; 'I' for Inactive)
REMARK    1  A    between atoms: C4_4  and  C5_5 
REMARK    2  A    between atoms: C8_8  and  O9_9 
REMARK    3  A    between atoms: C10_11  and  O11_12 
REMARK    4  A    between atoms: C16_18  and  O17_19 
REMARK    5  A    between atoms: C19_22  and  O20_23 
ROOT
HETATM    1  O1          0      63.999  -0.407 -13.634  1.00  0.00    -0.286 OA
HETATM    2  C2          0      64.082  -0.951 -14.769  1.00  0.00     0.201 C 
HETATM    3  C3          0      64.032  -0.233 -15.951  1.00  0.00     0.067 C 
HETATM    4  C4          0      64.023  -0.867 -17.189  1.00  0.00     0.103 C 
HETATM    5  O13         0      64.084  -2.186 -17.227  1.00  0.00    -0.307 OA
HETATM    6  C14         0      64.095  -2.917 -16.134  1.00  0.00     0.107 C 
HETATM    7  C15         0      63.760  -4.263 -16.151  1.00  0.00     0.049 C 
HETATM    8  C16         0      63.526  -4.964 -14.974  1.00  0.00     0.093 C 
HETATM    9  C18         0      64.143  -4.438 -13.845  1.00  0.00     0.048 C 
HETATM   10  C19         0      64.534  -3.106 -13.811  1.00  0.00     0.096 C 
HETATM   11  C21         0      64.326  -2.309 -14.904  1.00  0.00     0.084 C 
ENDROOT
BRANCH  10  12
HETATM   12  O20         0      64.735  -2.487 -12.582  1.00  0.00    -0.359 OA
HETATM   13  H20         0      65.334  -1.752 -12.546  1.00  0.00     0.218 HD
ENDBRANCH  10  12
BRANCH   4  14
HETATM   14  C5          0      63.383  -0.158 -18.299  1.00  0.00     0.025 C 
HETATM   15  C6          0      63.960  -0.052 -19.556  1.00  0.00     0.004 C 
HETATM   16  C7          0      63.120  -0.139 -20.661  1.00  0.00     0.026 C 
HETATM   17  C8          0      61.737  -0.193 -20.523  1.00  0.00     0.112 C 
HETATM   18  C10         0      61.252   0.334 -19.333  1.00  0.00     0.112 C 
HETATM   19  C12         0      62.085   0.330 -18.221  1.00  0.00     0.028 C 
BRANCH  17  20
HETATM   20  O9          0      60.963  -0.911 -21.417  1.00  0.00    -0.357 OA
HETATM   21  H9          0      60.714  -0.590 -22.276  1.00  0.00     0.218 HD
ENDBRANCH  17  20
BRANCH  18  22
HETATM   22  O11         0      59.876   0.477 -19.224  1.00  0.00    -0.357 OA
HETATM   23  H11         0      59.438   0.964 -19.913  1.00  0.00     0.218 HD
ENDBRANCH  18  22
ENDBRANCH   4  14
BRANCH   8  24
HETATM   24  O17         0      62.495  -5.904 -14.878  1.00  0.00    -0.359 OA
HETATM   25  H17         0      62.153  -6.186 -14.037  1.00  0.00     0.218 HD
ENDBRANCH   8  24
TORSDOF 5
ENDMDL
MODEL 6
REMARK VINA RESULT:      -4.2      2.809      5.272
REMARK  5 active torsions:
REMARK  status: ('A' for Active; 'I' for Inactive)
REMARK    1  A    between atoms: C4_4  and  C5_5 
REMARK    2  A    between atoms: C8_8  and  O9_9 
REMARK    3  A    between atoms: C10_11  and  O11_12 
REMARK    4  A    between atoms: C16_18  and  O17_19 
REMARK    5  A    between atoms: C19_22  and  O20_23 
ROOT
HETATM    1  O1          0      64.700   5.264 -20.091  1.00  0.00    -0.286 OA
HETATM    2  C2          0      63.599   4.721 -20.382  1.00  0.00     0.201 C 
HETATM    3  C3          0      63.220   3.484 -19.889  1.00  0.00     0.067 C 
HETATM    4  C4          0      62.048   2.862 -20.306  1.00  0.00     0.103 C 
HETATM    5  O13         0      61.275   3.484 -21.179  1.00  0.00    -0.307 OA
HETATM    6  C14         0      61.607   4.642 -21.706  1.00  0.00     0.107 C 
HETATM    7  C15         0      61.033   5.101 -22.882  1.00  0.00     0.049 C 
HETATM    8  C16         0      61.561   6.190 -23.566  1.00  0.00     0.093 C 
HETATM    9  C18         0      62.296   7.074 -22.785  1.00  0.00     0.048 C 
HETATM   10  C19         0      62.845   6.660 -21.579  1.00  0.00     0.096 C 
HETATM   11  C21         0      62.648   5.377 -21.148  1.00  0.00     0.084 C 
ENDROOT
BRANCH  10  12
HETATM   12  O20         0      63.907   7.375 -21.034  1.00  0.00    -0.359 OA
HETATM   13  H20         0      64.487   6.923 -20.434  1.00  0.00     0.218 HD
ENDBRANCH  10  12
BRANCH   4  14
HETATM   14  C5          0      62.008   1.399 -20.246  1.00  0.00     0.025 C 
HETATM   15  C6          0      63.136   0.609 -20.413  1.00  0.00     0.004 C 
HETATM   16  C7          0      63.250  -0.527 -19.618  1.00  0.00     0.026 C 
HETATM   17  C8          0      62.219  -0.938 -18.781  1.00  0.00     0.112 C 
HETATM   18  C10         0      60.959  -0.483 -19.146  1.00  0.00     0.112 C 
HETATM   19  C12         0      60.869   0.701 -19.869  1.00  0.00     0.028 C 
BRANCH  17  20
HETATM   20  O9          0      62.490  -1.566 -17.578  1.00  0.00    -0.357 OA
HETATM   21  H9          0      63.179  -1.293 -16.984  1.00  0.00     0.218 HD
ENDBRANCH  17  20
BRANCH  18  22
HETATM   22  O11         0      59.876  -1.014 -18.461  1.00  0.00    -0.357 OA
HETATM   23  H11         0      59.073  -1.136 -18.954  1.00  0.00     0.218 HD
ENDBRANCH  18  22
ENDBRANCH   4  14
BRANCH   8  24
HETATM   24  O17         0      61.634   6.208 -24.964  1.00  0.00    -0.359 OA
HETATM   25  H17         0      62.366   5.822 -25.430  1.00  0.00     0.218 HD
ENDBRANCH   8  24
TORSDOF 5
ENDMDL
MODEL 7
REMARK VINA RESULT:      -4.2      1.978      6.813
REMARK  5 active torsions:
REMARK  status: ('A' for Active; 'I' for Inactive)
REMARK    1  A    between atoms: C4_4  and  C5_5 
REMARK    2  A    between atoms: C8_8  and  O9_9 
REMARK    3  A    between atoms: C10_11  and  O11_12 
REMARK    4  A    between atoms: C16_18  and  O17_19 
REMARK    5  A    between atoms: C19_22  and  O20_23 
ROOT
HETATM    1  O1          0      64.824  -0.733 -16.672  1.00  0.00    -0.286 OA
HETATM    2  C2          0      63.930  -0.811 -17.559  1.00  0.00     0.201 C 
HETATM    3  C3          0      63.614   0.242 -18.400  1.00  0.00     0.067 C 
HETATM    4  C4          0      62.555   0.164 -19.298  1.00  0.00     0.103 C 
HETATM    5  O13         0      61.854  -0.954 -19.357  1.00  0.00    -0.307 OA
HETATM    6  C14         0      62.088  -1.970 -18.555  1.00  0.00     0.107 C 
HETATM    7  C15         0      61.140  -2.957 -18.329  1.00  0.00     0.049 C 
HETATM    8  C16         0      61.289  -3.879 -17.300  1.00  0.00     0.093 C 
HETATM    9  C18         0      62.599  -4.097 -16.892  1.00  0.00     0.048 C 
HETATM   10  C19         0      63.583  -3.150 -17.143  1.00  0.00     0.096 C 
HETATM   11  C21         0      63.264  -2.000 -17.813  1.00  0.00     0.084 C 
ENDROOT
BRANCH  10  12
HETATM   12  O20         0      64.746  -3.159 -16.380  1.00  0.00    -0.359 OA
HETATM   13  H20         0      65.559  -3.400 -16.809  1.00  0.00     0.218 HD
ENDBRANCH  10  12
BRANCH   4  14
HETATM   14  C5          0      61.913   1.421 -19.687  1.00  0.00     0.025 C 
HETATM   15  C6          0      62.137   2.617 -19.021  1.00  0.00     0.004 C 
HETATM   16  C7          0      62.215   3.776 -19.786  1.00  0.00     0.026 C 
HETATM   17  C8          0      61.947   3.768 -21.151  1.00  0.00     0.112 C 
HETATM   18  C10         0      61.144   2.719 -21.578  1.00  0.00     0.112 C 
HETATM   19  C12         0      61.150   1.541 -20.841  1.00  0.00     0.028 C 
BRANCH  17  20
HETATM   20  O9          0      62.614   4.623 -22.010  1.00  0.00    -0.357 OA
HETATM   21  H9          0      62.987   5.455 -21.742  1.00  0.00     0.218 HD
ENDBRANCH  17  20
BRANCH  18  22
HETATM   22  O11         0      60.691   2.767 -22.889  1.00  0.00    -0.357 OA
HETATM   23  H11         0      60.186   2.024 -23.197  1.00  0.00     0.218 HD
ENDBRANCH  18  22
ENDBRANCH   4  14
BRANCH   8  24
HETATM   24  O17         0      60.199  -4.285 -16.522  1.00  0.00    -0.359 OA
HETATM   25  H17         0      59.682  -3.664 -16.023  1.00  0.00     0.218 HD
ENDBRANCH   8  24
TORSDOF 5
ENDMDL
MODEL 8
REMARK VINA RESULT:      -4.2      5.261      7.857
REMARK  5 active torsions:
REMARK  status: ('A' for Active; 'I' for Inactive)
REMARK    1  A    between atoms: C4_4  and  C5_5 
REMARK    2  A    between atoms: C8_8  and  O9_9 
REMARK    3  A    between atoms: C10_11  and  O11_12 
REMARK    4  A    between atoms: C16_18  and  O17_19 
REMARK    5  A    between atoms: C19_22  and  O20_23 
ROOT
HETATM    1  O1          0      68.901  -1.854 -14.715  1.00  0.00    -0.286 OA
HETATM    2  C2          0      68.210  -0.798 -14.729  1.00  0.00     0.201 C 
HETATM    3  C3          0      68.764   0.463 -14.583  1.00  0.00     0.067 C 
HETATM    4  C4          0      67.971   1.602 -14.498  1.00  0.00     0.103 C 
HETATM    5  O13         0      66.659   1.469 -14.581  1.00  0.00    -0.307 OA
HETATM    6  C14         0      66.080   0.293 -14.683  1.00  0.00     0.107 C 
HETATM    7  C15         0      64.741   0.108 -14.372  1.00  0.00     0.049 C 
HETATM    8  C16         0      64.201  -1.166 -14.235  1.00  0.00     0.093 C 
HETATM    9  C18         0      64.879  -2.167 -14.919  1.00  0.00     0.048 C 
HETATM   10  C19         0      66.207  -1.996 -15.287  1.00  0.00     0.096 C 
HETATM   11  C21         0      66.849  -0.826 -14.988  1.00  0.00     0.084 C 
ENDROOT
BRANCH  10  12
HETATM   12  O20         0      66.986  -3.116 -15.562  1.00  0.00    -0.359 OA
HETATM   13  H20         0      67.646  -3.365 -14.927  1.00  0.00     0.218 HD
ENDBRANCH  10  12
BRANCH   4  14
HETATM   14  C5          0      68.519   2.747 -13.769  1.00  0.00     0.025 C 
HETATM   15  C6          0      67.857   3.962 -13.670  1.00  0.00     0.004 C 
HETATM   16  C7          0      67.934   4.641 -12.458  1.00  0.00     0.026 C 
HETATM   17  C8          0      68.751   4.197 -11.424  1.00  0.00     0.112 C 
HETATM   18  C10         0      69.808   3.390 -11.825  1.00  0.00     0.112 C 
HETATM   19  C12         0      69.670   2.656 -12.997  1.00  0.00     0.028 C 
BRANCH  17  20
HETATM   20  O9          0      68.387   4.385 -10.103  1.00  0.00    -0.357 OA
HETATM   21  H9          0      67.488   4.484  -9.812  1.00  0.00     0.218 HD
ENDBRANCH  17  20
BRANCH  18  22
HETATM   22  O11         0      70.758   3.076 -10.864  1.00  0.00    -0.357 OA
HETATM   23  H11         0      70.707   3.545 -10.039  1.00  0.00     0.218 HD
ENDBRANCH  18  22
ENDBRANCH   4  14
BRANCH   8  24
HETATM   24  O17         0      63.273  -1.459 -13.230  1.00  0.00    -0.359 OA
HETATM   25  H17         0      62.509  -0.915 -13.081  1.00  0.00     0.218 HD
ENDBRANCH   8  24
TORSDOF 5
ENDMDL
MODEL 9
REMARK VINA RESULT:      -4.1      2.947      7.544
REMARK  5 active torsions:
REMARK  status: ('A' for Active; 'I' for Inactive)
REMARK    1  A    between atoms: C4_4  and  C5_5 
REMARK    2  A    between atoms: C8_8  and  O9_9 
REMARK    3  A    between atoms: C10_11  and  O11_12 
REMARK    4  A    between atoms: C16_18  and  O17_19 
REMARK    5  A    between atoms: C19_22  and  O20_23 
ROOT
HETATM    1  O1          0      61.146   0.666 -23.012  1.00  0.00    -0.286 OA
HETATM    2  C2          0      61.189   1.601 -22.166  1.00  0.00     0.201 C 
HETATM    3  C3          0      61.071   2.935 -22.516  1.00  0.00     0.067 C 
HETATM    4  C4          0      61.226   3.951 -21.579  1.00  0.00     0.103 C 
HETATM    5  O13         0      61.470   3.623 -20.323  1.00  0.00    -0.307 OA
HETATM    6  C14         0      61.629   2.373 -19.944  1.00  0.00     0.107 C 
HETATM    7  C15         0      62.266   2.044 -18.757  1.00  0.00     0.049 C 
HETATM    8  C16         0      62.656   0.739 -18.484  1.00  0.00     0.093 C 
HETATM    9  C18         0      61.935  -0.241 -19.156  1.00  0.00     0.048 C 
HETATM   10  C19         0      61.247   0.064 -20.323  1.00  0.00     0.096 C 
HETATM   11  C21         0      61.265   1.344 -20.806  1.00  0.00     0.084 C 
ENDROOT
BRANCH  10  12
HETATM   12  O20         0      60.910  -0.960 -21.202  1.00  0.00    -0.359 OA
HETATM   13  H20         0      60.891  -0.762 -22.130  1.00  0.00     0.218 HD
ENDBRANCH  10  12
BRANCH   4  14
HETATM   14  C5          0      61.684   5.251 -22.070  1.00  0.00     0.025 C 
HETATM   15  C6          0      60.823   6.199 -22.605  1.00  0.00     0.004 C 
HETATM   16  C7          0      61.070   7.535 -22.305  1.00  0.00     0.026 C 
HETATM   17  C8          0      62.208   7.929 -21.610  1.00  0.00     0.112 C 
HETATM   18  C10         0      63.270   7.037 -21.684  1.00  0.00     0.112 C 
HETATM   19  C12         0      62.990   5.693 -21.900  1.00  0.00     0.028 C 
BRANCH  17  20
HETATM   20  O9          0      62.176   9.016 -20.755  1.00  0.00    -0.357 OA
HETATM   21  H9          0      62.097   9.917 -21.048  1.00  0.00     0.218 HD
ENDBRANCH  17  20
BRANCH  18  22
HETATM   22  O11         0      64.486   7.465 -21.171  1.00  0.00    -0.357 OA
HETATM   23  H11         0      64.582   8.396 -21.010  1.00  0.00     0.218 HD
ENDBRANCH  18  22
ENDBRANCH   4  14
BRANCH   8  24
HETATM   24  O17         0      63.876   0.457 -17.861  1.00  0.00    -0.359 OA
HETATM   25  H17         0      64.005   0.593 -16.930  1.00  0.00     0.218 HD
ENDBRANCH   8  24
TORSDOF 5
ENDMDL
