MODEL 1
REMARK VINA RESULT:      -5.0      0.000      0.000
REMARK  5 active torsions:
REMARK  status: ('A' for Active; 'I' for Inactive)
REMARK    1  A    between atoms: C4_4  and  C5_5 
REMARK    2  A    between atoms: C8_8  and  O9_9 
REMARK    3  A    between atoms: C10_11  and  O11_12 
REMARK    4  A    between atoms: C16_18  and  O17_19 
REMARK    5  A    between atoms: C19_22  and  O20_23 
ROOT
HETATM    1  O1          0      50.994   9.531  37.329  1.00  0.00    -0.286 OA
HETATM    2  C2          0      50.934   8.569  36.515  1.00  0.00     0.201 C 
HETATM    3  C3          0      52.058   7.908  36.050  1.00  0.00     0.067 C 
HETATM    4  C4          0      51.972   6.920  35.076  1.00  0.00     0.103 C 
HETATM    5  O13         0      50.781   6.597  34.604  1.00  0.00    -0.307 OA
HETATM    6  C14         0      49.686   7.218  34.984  1.00  0.00     0.107 C 
HETATM    7  C15         0      48.522   7.175  34.230  1.00  0.00     0.049 C 
HETATM    8  C16         0      47.458   8.029  34.495  1.00  0.00     0.093 C 
HETATM    9  C18         0      47.399   8.505  35.799  1.00  0.00     0.048 C 
HETATM   10  C19         0      48.535   8.519  36.597  1.00  0.00     0.096 C 
HETATM   11  C21         0      49.719   8.045  36.102  1.00  0.00     0.084 C 
ENDROOT
BRANCH  10  12
HETATM   12  O20         0      48.582   9.369  37.698  1.00  0.00    -0.359 OA
HETATM   13  H20         0      48.997  10.216  37.589  1.00  0.00     0.218 HD
ENDBRANCH  10  12
BRANCH   4  14
HETATM   14  C5          0      53.147   6.711  34.228  1.00  0.00     0.025 C 
HETATM   15  C6          0      53.317   7.350  33.009  1.00  0.00     0.004 C 
HETATM   16  C7          0      54.601   7.769  32.675  1.00  0.00     0.026 C 
HETATM   17  C8          0      55.701   7.447  33.462  1.00  0.00     0.112 C 
HETATM   18  C10         0      55.535   6.323  34.260  1.00  0.00     0.112 C 
HETATM   19  C12         0      54.247   5.975  34.649  1.00  0.00     0.028 C 
BRANCH  17  20
HETATM   20  O9          0      56.771   8.318  33.575  1.00  0.00    -0.357 OA
HETATM   21  H9          0      56.776   9.077  34.146  1.00  0.00     0.218 HD
ENDBRANCH  17  20
BRANCH  18  22
HETATM   22  O11         0      56.659   5.848  34.920  1.00  0.00    -0.357 OA
HETATM   23  H11         0      57.468   6.330  34.792  1.00  0.00     0.218 HD
ENDBRANCH  18  22
ENDBRANCH   4  14
BRANCH   8  24
HETATM   24  O17         0      46.722   8.620  33.462  1.00  0.00    -0.359 OA
HETATM   25  H17         0      46.138   9.352  33.621  1.00  0.00     0.218 HD
ENDBRANCH   8  24
TORSDOF 5
ENDMDL
MODEL 2
REMARK VINA RESULT:      -4.9      1.497      1.986
REMARK  5 active torsions:
REMARK  status: ('A' for Active; 'I' for Inactive)
REMARK    1  A    between atoms: C4_4  and  C5_5 
REMARK    2  A    between atoms: C8_8  and  O9_9 
REMARK    3  A    between atoms: C10_11  and  O11_12 
REMARK    4  A    between atoms: C16_18  and  O17_19 
REMARK    5  A    between atoms: C19_22  and  O20_23 
ROOT
HETATM    1  O1          0      49.746   9.502  37.651  1.00  0.00    -0.286 OA
HETATM    2  C2          0      49.652   8.667  36.711  1.00  0.00     0.201 C 
HETATM    3  C3          0      50.713   7.879  36.298  1.00  0.00     0.067 C 
HETATM    4  C4          0      50.613   7.041  35.193  1.00  0.00     0.103 C 
HETATM    5  O13         0      49.466   6.988  34.539  1.00  0.00    -0.307 OA
HETATM    6  C14         0      48.439   7.743  34.866  1.00  0.00     0.107 C 
HETATM    7  C15         0      47.403   7.992  33.977  1.00  0.00     0.049 C 
HETATM    8  C16         0      46.461   8.982  34.227  1.00  0.00     0.093 C 
HETATM    9  C18         0      46.291   9.306  35.568  1.00  0.00     0.048 C 
HETATM   10  C19         0      47.289   9.028  36.492  1.00  0.00     0.096 C 
HETATM   11  C21         0      48.442   8.415  36.083  1.00  0.00     0.084 C 
ENDROOT
BRANCH  10  12
HETATM   12  O20         0      47.311   9.722  37.698  1.00  0.00    -0.359 OA
HETATM   13  H20         0      47.416   9.221  38.498  1.00  0.00     0.218 HD
ENDBRANCH  10  12
BRANCH   4  14
HETATM   14  C5          0      51.849   6.730  34.474  1.00  0.00     0.025 C 
HETATM   15  C6          0      51.930   5.731  33.514  1.00  0.00     0.004 C 
HETATM   16  C7          0      52.717   5.976  32.394  1.00  0.00     0.026 C 
HETATM   17  C8          0      53.505   7.118  32.291  1.00  0.00     0.112 C 
HETATM   18  C10         0      53.843   7.700  33.506  1.00  0.00     0.112 C 
HETATM   19  C12         0      52.993   7.509  34.589  1.00  0.00     0.028 C 
BRANCH  17  20
HETATM   20  O9          0      53.733   7.714  31.064  1.00  0.00    -0.357 OA
HETATM   21  H9          0      53.972   8.627  30.957  1.00  0.00     0.218 HD
ENDBRANCH  17  20
BRANCH  18  22
HETATM   22  O11         0      54.778   8.724  33.473  1.00  0.00    -0.357 OA
HETATM   23  H11         0      54.743   9.361  34.177  1.00  0.00     0.218 HD
ENDBRANCH  18  22
ENDBRANCH   4  14
BRANCH   8  24
HETATM   24  O17         0      45.982   9.808  33.204  1.00  0.00    -0.359 OA
HETATM   25  H17         0      45.589   9.451  32.417  1.00  0.00     0.218 HD
ENDBRANCH   8  24
TORSDOF 5
ENDMDL
MODEL 3
REMARK VINA RESULT:      -4.7      1.670      6.616
REMARK  5 active torsions:
REMARK  status: ('A' for Active; 'I' for Inactive)
REMARK    1  A    between atoms: C4_4  and  C5_5 
REMARK    2  A    between atoms: C8_8  and  O9_9 
REMARK    3  A    between atoms: C10_11  and  O11_12 
REMARK    4  A    between atoms: C16_18  and  O17_19 
REMARK    5  A    between atoms: C19_22  and  O20_23 
ROOT
HETATM    1  O1          0      55.420   5.957  36.257  1.00  0.00    -0.286 OA
HETATM    2  C2          0      54.577   6.591  35.565  1.00  0.00     0.201 C 
HETATM    3  C3          0      53.396   7.086  36.091  1.00  0.00     0.067 C 
HETATM    4  C4          0      52.437   7.691  35.286  1.00  0.00     0.103 C 
HETATM    5  O13         0      52.677   7.810  33.993  1.00  0.00    -0.307 OA
HETATM    6  C14         0      53.765   7.324  33.436  1.00  0.00     0.107 C 
HETATM    7  C15         0      53.845   7.085  32.072  1.00  0.00     0.049 C 
HETATM    8  C16         0      54.886   6.343  31.529  1.00  0.00     0.093 C 
HETATM    9  C18         0      56.052   6.327  32.284  1.00  0.00     0.048 C 
HETATM   10  C19         0      56.016   6.607  33.644  1.00  0.00     0.096 C 
HETATM   11  C21         0      54.825   6.918  34.241  1.00  0.00     0.084 C 
ENDROOT
BRANCH  10  12
HETATM   12  O20         0      57.059   6.174  34.456  1.00  0.00    -0.359 OA
HETATM   13  H20         0      57.543   5.403  34.186  1.00  0.00     0.218 HD
ENDBRANCH  10  12
BRANCH   4  14
HETATM   14  C5          0      51.047   7.634  35.743  1.00  0.00     0.025 C 
HETATM   15  C6          0      50.615   8.239  36.914  1.00  0.00     0.004 C 
HETATM   16  C7          0      49.361   8.842  36.904  1.00  0.00     0.026 C 
HETATM   17  C8          0      48.508   8.733  35.811  1.00  0.00     0.112 C 
HETATM   18  C10         0      48.745   7.632  34.998  1.00  0.00     0.112 C 
HETATM   19  C12         0      50.029   7.101  34.963  1.00  0.00     0.028 C 
BRANCH  17  20
HETATM   20  O9          0      47.651   9.766  35.475  1.00  0.00    -0.357 OA
HETATM   21  H9          0      46.741   9.639  35.234  1.00  0.00     0.218 HD
ENDBRANCH  17  20
BRANCH  18  22
HETATM   22  O11         0      47.810   7.371  34.006  1.00  0.00    -0.357 OA
HETATM   23  H11         0      47.361   8.119  33.630  1.00  0.00     0.218 HD
ENDBRANCH  18  22
ENDBRANCH   4  14
BRANCH   8  24
HETATM   24  O17         0      54.666   5.425  30.496  1.00  0.00    -0.359 OA
HETATM   25  H17         0      53.833   5.374  30.042  1.00  0.00     0.218 HD
ENDBRANCH   8  24
TORSDOF 5
ENDMDL
MODEL 4
REMARK VINA RESULT:      -4.5      1.915      7.147
REMARK  5 active torsions:
REMARK  status: ('A' for Active; 'I' for Inactive)
REMARK    1  A    between atoms: C4_4  and  C5_5 
REMARK    2  A    between atoms: C8_8  and  O9_9 
REMARK    3  A    between atoms: C10_11  and  O11_12 
REMARK    4  A    between atoms: C16_18  and  O17_19 
REMARK    5  A    between atoms: C19_22  and  O20_23 
ROOT
HETATM    1  O1          0      49.608   5.660  33.062  1.00  0.00    -0.286 OA
HETATM    2  C2          0      49.885   6.425  34.027  1.00  0.00     0.201 C 
HETATM    3  C3          0      48.916   7.073  34.773  1.00  0.00     0.067 C 
HETATM    4  C4          0      49.251   7.990  35.763  1.00  0.00     0.103 C 
HETATM    5  O13         0      50.529   8.226  36.004  1.00  0.00    -0.307 OA
HETATM    6  C14         0      51.488   7.666  35.299  1.00  0.00     0.107 C 
HETATM    7  C15         0      52.772   8.191  35.265  1.00  0.00     0.049 C 
HETATM    8  C16         0      53.705   7.755  34.332  1.00  0.00     0.093 C 
HETATM    9  C18         0      53.487   6.474  33.838  1.00  0.00     0.048 C 
HETATM   10  C19         0      52.225   5.900  33.899  1.00  0.00     0.096 C 
HETATM   11  C21         0      51.190   6.594  34.465  1.00  0.00     0.084 C 
ENDROOT
BRANCH  10  12
HETATM   12  O20         0      51.914   4.848  33.043  1.00  0.00    -0.359 OA
HETATM   13  H20         0      52.527   4.125  32.985  1.00  0.00     0.218 HD
ENDBRANCH  10  12
BRANCH   4  14
HETATM   14  C5          0      48.272   9.035  36.068  1.00  0.00     0.025 C 
HETATM   15  C6          0      47.335   9.478  35.147  1.00  0.00     0.004 C 
HETATM   16  C7          0      46.060   9.777  35.617  1.00  0.00     0.026 C 
HETATM   17  C8          0      45.763   9.765  36.976  1.00  0.00     0.112 C 
HETATM   18  C10         0      46.858   9.940  37.810  1.00  0.00     0.112 C 
HETATM   19  C12         0      48.110   9.553  37.346  1.00  0.00     0.028 C 
BRANCH  17  20
HETATM   20  O9          0      44.507   9.395  37.423  1.00  0.00    -0.357 OA
HETATM   21  H9          0      43.968   8.737  37.000  1.00  0.00     0.218 HD
ENDBRANCH  17  20
BRANCH  18  22
HETATM   22  O11         0      46.597  10.125  39.160  1.00  0.00    -0.357 OA
HETATM   23  H11         0      47.286  10.520  39.682  1.00  0.00     0.218 HD
ENDBRANCH  18  22
ENDBRANCH   4  14
BRANCH   8  24
HETATM   24  O17         0      54.578   8.648  33.701  1.00  0.00    -0.359 OA
HETATM   25  H17         0      55.136   8.377  32.983  1.00  0.00     0.218 HD
ENDBRANCH   8  24
TORSDOF 5
ENDMDL
MODEL 5
REMARK VINA RESULT:      -4.4      2.021      2.992
REMARK  5 active torsions:
REMARK  status: ('A' for Active; 'I' for Inactive)
REMARK    1  A    between atoms: C4_4  and  C5_5 
REMARK    2  A    between atoms: C8_8  and  O9_9 
REMARK    3  A    between atoms: C10_11  and  O11_12 
REMARK    4  A    between atoms: C16_18  and  O17_19 
REMARK    5  A    between atoms: C19_22  and  O20_23 
ROOT
HETATM    1  O1          0      47.694   9.124  35.339  1.00  0.00    -0.286 OA
HETATM    2  C2          0      48.134   8.077  34.790  1.00  0.00     0.201 C 
HETATM    3  C3          0      49.392   7.563  35.055  1.00  0.00     0.067 C 
HETATM    4  C4          0      49.893   6.468  34.361  1.00  0.00     0.103 C 
HETATM    5  O13         0      49.133   5.897  33.442  1.00  0.00    -0.307 OA
HETATM    6  C14         0      47.947   6.367  33.126  1.00  0.00     0.107 C 
HETATM    7  C15         0      47.328   6.042  31.927  1.00  0.00     0.049 C 
HETATM    8  C16         0      46.205   6.731  31.485  1.00  0.00     0.093 C 
HETATM    9  C18         0      45.458   7.340  32.486  1.00  0.00     0.048 C 
HETATM   10  C19         0      46.033   7.637  33.714  1.00  0.00     0.096 C 
HETATM   11  C21         0      47.342   7.312  33.947  1.00  0.00     0.084 C 
ENDROOT
BRANCH  10  12
HETATM   12  O20         0      45.448   8.605  34.524  1.00  0.00    -0.359 OA
HETATM   13  H20         0      45.482   9.509  34.234  1.00  0.00     0.218 HD
ENDBRANCH  10  12
BRANCH   4  14
HETATM   14  C5          0      51.348   6.360  34.238  1.00  0.00     0.025 C 
HETATM   15  C6          0      51.992   6.223  33.017  1.00  0.00     0.004 C 
HETATM   16  C7          0      53.198   6.895  32.846  1.00  0.00     0.026 C 
HETATM   17  C8          0      53.812   7.570  33.895  1.00  0.00     0.112 C 
HETATM   18  C10         0      53.449   7.129  35.160  1.00  0.00     0.112 C 
HETATM   19  C12         0      52.201   6.537  35.320  1.00  0.00     0.028 C 
BRANCH  17  20
HETATM   20  O9          0      54.551   8.717  33.664  1.00  0.00    -0.357 OA
HETATM   21  H9          0      55.083   8.855  32.889  1.00  0.00     0.218 HD
ENDBRANCH  17  20
BRANCH  18  22
HETATM   22  O11         0      54.168   7.635  36.233  1.00  0.00    -0.357 OA
HETATM   23  H11         0      54.242   8.581  36.294  1.00  0.00     0.218 HD
ENDBRANCH  18  22
ENDBRANCH   4  14
BRANCH   8  24
HETATM   24  O17         0      46.039   7.066  30.137  1.00  0.00    -0.359 OA
HETATM   25  H17         0      45.576   7.852  29.870  1.00  0.00     0.218 HD
ENDBRANCH   8  24
TORSDOF 5
ENDMDL
MODEL 6
REMARK VINA RESULT:      -4.2      2.052      6.510
REMARK  5 active torsions:
REMARK  status: ('A' for Active; 'I' for Inactive)
REMARK    1  A    between atoms: C4_4  and  C5_5 
REMARK    2  A    between atoms: C8_8  and  O9_9 
REMARK    3  A    between atoms: C10_11  and  O11_12 
REMARK    4  A    between atoms: C16_18  and  O17_19 
REMARK    5  A    between atoms: C19_22  and  O20_23 
ROOT
HETATM    1  O1          0      55.016   5.773  36.409  1.00  0.00    -0.286 OA
HETATM    2  C2          0      54.298   6.659  35.871  1.00  0.00     0.201 C 
HETATM    3  C3          0      53.237   7.264  36.523  1.00  0.00     0.067 C 
HETATM    4  C4          0      52.398   8.162  35.874  1.00  0.00     0.103 C 
HETATM    5  O13         0      52.640   8.455  34.608  1.00  0.00    -0.307 OA
HETATM    6  C14         0      53.611   7.882  33.931  1.00  0.00     0.107 C 
HETATM    7  C15         0      53.626   7.870  32.544  1.00  0.00     0.049 C 
HETATM    8  C16         0      54.503   7.054  31.839  1.00  0.00     0.093 C 
HETATM    9  C18         0      55.655   6.697  32.529  1.00  0.00     0.048 C 
HETATM   10  C19         0      55.689   6.742  33.916  1.00  0.00     0.096 C 
HETATM   11  C21         0      54.585   7.158  34.609  1.00  0.00     0.084 C 
ENDROOT
BRANCH  10  12
HETATM   12  O20         0      56.644   5.993  34.598  1.00  0.00    -0.359 OA
HETATM   13  H20         0      57.064   6.388  35.352  1.00  0.00     0.218 HD
ENDBRANCH  10  12
BRANCH   4  14
HETATM   14  C5          0      51.028   8.283  36.376  1.00  0.00     0.025 C 
HETATM   15  C6          0      49.922   7.870  35.647  1.00  0.00     0.004 C 
HETATM   16  C7          0      48.880   7.266  36.344  1.00  0.00     0.026 C 
HETATM   17  C8          0      48.877   7.193  37.733  1.00  0.00     0.112 C 
HETATM   18  C10         0      49.657   8.152  38.365  1.00  0.00     0.112 C 
HETATM   19  C12         0      50.744   8.678  37.676  1.00  0.00     0.028 C 
BRANCH  17  20
HETATM   20  O9          0      48.306   6.115  38.385  1.00  0.00    -0.357 OA
HETATM   21  H9          0      48.634   5.225  38.321  1.00  0.00     0.218 HD
ENDBRANCH  17  20
BRANCH  18  22
HETATM   22  O11         0      49.543   8.246  39.745  1.00  0.00    -0.357 OA
HETATM   23  H11         0      48.665   8.208  40.107  1.00  0.00     0.218 HD
ENDBRANCH  18  22
ENDBRANCH   4  14
BRANCH   8  24
HETATM   24  O17         0      54.102   6.382  30.679  1.00  0.00    -0.359 OA
HETATM   25  H17         0      54.545   6.511  29.849  1.00  0.00     0.218 HD
ENDBRANCH   8  24
TORSDOF 5
ENDMDL
MODEL 7
REMARK VINA RESULT:      -4.2      1.848      3.331
REMARK  5 active torsions:
REMARK  status: ('A' for Active; 'I' for Inactive)
REMARK    1  A    between atoms: C4_4  and  C5_5 
REMARK    2  A    between atoms: C8_8  and  O9_9 
REMARK    3  A    between atoms: C10_11  and  O11_12 
REMARK    4  A    between atoms: C16_18  and  O17_19 
REMARK    5  A    between atoms: C19_22  and  O20_23 
ROOT
HETATM    1  O1          0      48.821   6.181  36.139  1.00  0.00    -0.286 OA
HETATM    2  C2          0      49.874   6.874  36.186  1.00  0.00     0.201 C 
HETATM    3  C3          0      50.770   6.950  35.133  1.00  0.00     0.067 C 
HETATM    4  C4          0      51.973   7.638  35.248  1.00  0.00     0.103 C 
HETATM    5  O13         0      52.248   8.248  36.387  1.00  0.00    -0.307 OA
HETATM    6  C14         0      51.450   8.177  37.429  1.00  0.00     0.107 C 
HETATM    7  C15         0      51.897   8.458  38.713  1.00  0.00     0.049 C 
HETATM    8  C16         0      51.133   8.138  39.829  1.00  0.00     0.093 C 
HETATM    9  C18         0      49.766   8.043  39.596  1.00  0.00     0.048 C 
HETATM   10  C19         0      49.282   7.809  38.316  1.00  0.00     0.096 C 
HETATM   11  C21         0      50.158   7.689  37.272  1.00  0.00     0.084 C 
ENDROOT
BRANCH  10  12
HETATM   12  O20         0      48.001   7.291  38.157  1.00  0.00    -0.359 OA
HETATM   13  H20         0      47.688   6.670  38.805  1.00  0.00     0.218 HD
ENDBRANCH  10  12
BRANCH   4  14
HETATM   14  C5          0      53.080   7.197  34.398  1.00  0.00     0.025 C 
HETATM   15  C6          0      53.333   7.743  33.149  1.00  0.00     0.004 C 
HETATM   16  C7          0      54.663   7.925  32.782  1.00  0.00     0.026 C 
HETATM   17  C8          0      55.708   7.458  33.572  1.00  0.00     0.112 C 
HETATM   18  C10         0      55.370   6.414  34.423  1.00  0.00     0.112 C 
HETATM   19  C12         0      54.049   6.305  34.841  1.00  0.00     0.028 C 
BRANCH  17  20
HETATM   20  O9          0      56.910   8.140  33.633  1.00  0.00    -0.357 OA
HETATM   21  H9          0      56.983   9.066  33.835  1.00  0.00     0.218 HD
ENDBRANCH  17  20
BRANCH  18  22
HETATM   22  O11         0      56.411   5.787  35.092  1.00  0.00    -0.357 OA
HETATM   23  H11         0      56.948   6.330  35.657  1.00  0.00     0.218 HD
ENDBRANCH  18  22
ENDBRANCH   4  14
BRANCH   8  24
HETATM   24  O17         0      51.719   7.627  40.992  1.00  0.00    -0.359 OA
HETATM   25  H17         0      51.404   7.864  41.856  1.00  0.00     0.218 HD
ENDBRANCH   8  24
TORSDOF 5
ENDMDL
MODEL 8
REMARK VINA RESULT:      -4.2      2.053      3.554
REMARK  5 active torsions:
REMARK  status: ('A' for Active; 'I' for Inactive)
REMARK    1  A    between atoms: C4_4  and  C5_5 
REMARK    2  A    between atoms: C8_8  and  O9_9 
REMARK    3  A    between atoms: C10_11  and  O11_12 
REMARK    4  A    between atoms: C16_18  and  O17_19 
REMARK    5  A    between atoms: C19_22  and  O20_23 
ROOT
HETATM    1  O1          0      50.187   6.849  34.329  1.00  0.00    -0.286 OA
HETATM    2  C2          0      51.368   7.148  34.660  1.00  0.00     0.201 C 
HETATM    3  C3          0      52.463   6.876  33.859  1.00  0.00     0.067 C 
HETATM    4  C4          0      53.761   7.123  34.291  1.00  0.00     0.103 C 
HETATM    5  O13         0      53.942   7.648  35.490  1.00  0.00    -0.307 OA
HETATM    6  C14         0      52.939   7.890  36.306  1.00  0.00     0.107 C 
HETATM    7  C15         0      53.129   8.053  37.670  1.00  0.00     0.049 C 
HETATM    8  C16         0      52.057   8.053  38.554  1.00  0.00     0.093 C 
HETATM    9  C18         0      50.837   8.415  37.995  1.00  0.00     0.048 C 
HETATM   10  C19         0      50.628   8.309  36.627  1.00  0.00     0.096 C 
HETATM   11  C21         0      51.637   7.860  35.819  1.00  0.00     0.084 C 
ENDROOT
BRANCH  10  12
HETATM   12  O20         0      49.326   8.247  36.140  1.00  0.00    -0.359 OA
HETATM   13  H20         0      48.621   8.516  36.718  1.00  0.00     0.218 HD
ENDBRANCH  10  12
BRANCH   4  14
HETATM   14  C5          0      54.827   6.302  33.714  1.00  0.00     0.025 C 
HETATM   15  C6          0      54.881   5.980  32.365  1.00  0.00     0.004 C 
HETATM   16  C7          0      56.133   5.957  31.758  1.00  0.00     0.026 C 
HETATM   17  C8          0      57.303   6.114  32.493  1.00  0.00     0.112 C 
HETATM   18  C10         0      57.190   5.795  33.839  1.00  0.00     0.112 C 
HETATM   19  C12         0      55.942   5.909  34.442  1.00  0.00     0.028 C 
BRANCH  17  20
HETATM   20  O9          0      58.407   6.741  31.942  1.00  0.00    -0.357 OA
HETATM   21  H9          0      59.094   7.148  32.457  1.00  0.00     0.218 HD
ENDBRANCH  17  20
BRANCH  18  22
HETATM   22  O11         0      58.364   5.753  34.576  1.00  0.00    -0.357 OA
HETATM   23  H11         0      58.461   6.397  35.269  1.00  0.00     0.218 HD
ENDBRANCH  18  22
ENDBRANCH   4  14
BRANCH   8  24
HETATM   24  O17         0      52.137   7.419  39.798  1.00  0.00    -0.359 OA
HETATM   25  H17         0      51.683   7.757  40.561  1.00  0.00     0.218 HD
ENDBRANCH   8  24
TORSDOF 5
ENDMDL
MODEL 9
REMARK VINA RESULT:      -4.2      2.499      6.463
REMARK  5 active torsions:
REMARK  status: ('A' for Active; 'I' for Inactive)
REMARK    1  A    between atoms: C4_4  and  C5_5 
REMARK    2  A    between atoms: C8_8  and  O9_9 
REMARK    3  A    between atoms: C10_11  and  O11_12 
REMARK    4  A    between atoms: C16_18  and  O17_19 
REMARK    5  A    between atoms: C19_22  and  O20_23 
ROOT
HETATM    1  O1          0      56.790   6.091  33.021  1.00  0.00    -0.286 OA
HETATM    2  C2          0      55.571   6.412  33.065  1.00  0.00     0.201 C 
HETATM    3  C3          0      54.995   7.020  34.168  1.00  0.00     0.067 C 
HETATM    4  C4          0      53.629   7.270  34.231  1.00  0.00     0.103 C 
HETATM    5  O13         0      52.873   6.934  33.200  1.00  0.00    -0.307 OA
HETATM    6  C14         0      53.364   6.321  32.145  1.00  0.00     0.107 C 
HETATM    7  C15         0      52.552   5.621  31.264  1.00  0.00     0.049 C 
HETATM    8  C16         0      53.092   4.771  30.306  1.00  0.00     0.093 C 
HETATM    9  C18         0      54.398   5.062  29.933  1.00  0.00     0.048 C 
HETATM   10  C19         0      55.223   5.800  30.770  1.00  0.00     0.096 C 
HETATM   11  C21         0      54.741   6.261  31.965  1.00  0.00     0.084 C 
ENDROOT
BRANCH  10  12
HETATM   12  O20         0      56.603   5.717  30.612  1.00  0.00    -0.359 OA
HETATM   13  H20         0      57.125   6.475  30.847  1.00  0.00     0.218 HD
ENDBRANCH  10  12
BRANCH   4  14
HETATM   14  C5          0      53.019   7.330  35.561  1.00  0.00     0.025 C 
HETATM   15  C6          0      53.683   6.926  36.711  1.00  0.00     0.004 C 
HETATM   16  C7          0      53.483   7.674  37.867  1.00  0.00     0.026 C 
HETATM   17  C8          0      52.553   8.707  37.915  1.00  0.00     0.112 C 
HETATM   18  C10         0      51.536   8.616  36.975  1.00  0.00     0.112 C 
HETATM   19  C12         0      51.790   7.935  35.790  1.00  0.00     0.028 C 
BRANCH  17  20
HETATM   20  O9          0      52.774   9.823  38.703  1.00  0.00    -0.357 OA
HETATM   21  H9          0      52.306  10.000  39.511  1.00  0.00     0.218 HD
ENDBRANCH  17  20
BRANCH  18  22
HETATM   22  O11         0      50.482   9.511  37.099  1.00  0.00    -0.357 OA
HETATM   23  H11         0      50.677  10.429  36.948  1.00  0.00     0.218 HD
ENDBRANCH  18  22
ENDBRANCH   4  14
BRANCH   8  24
HETATM   24  O17         0      52.497   3.541  30.004  1.00  0.00    -0.359 OA
HETATM   25  H17         0      51.664   3.283  30.383  1.00  0.00     0.218 HD
ENDBRANCH   8  24
TORSDOF 5
ENDMDL
