MODEL 1
REMARK VINA RESULT:      -0.0      0.000      0.000
REMARK  5 active torsions:
REMARK  status: ('A' for Active; 'I' for Inactive)
REMARK    1  A    between atoms: C4_4  and  C5_5 
REMARK    2  A    between atoms: C8_8  and  O9_9 
REMARK    3  A    between atoms: C10_11  and  O11_12 
REMARK    4  A    between atoms: C16_18  and  O17_19 
REMARK    5  A    between atoms: C19_22  and  O20_23 
ROOT
HETATM    1  O1          0      67.807 117.120  26.968  1.00  0.00    -0.286 OA
HETATM    2  C2          0      67.166 117.400  28.018  1.00  0.00     0.201 C 
HETATM    3  C3          0      67.754 117.429  29.271  1.00  0.00     0.067 C 
HETATM    4  C4          0      67.004 117.639  30.423  1.00  0.00     0.103 C 
HETATM    5  O13         0      65.703 117.836  30.306  1.00  0.00    -0.307 OA
HETATM    6  C14         0      65.089 117.782  29.145  1.00  0.00     0.107 C 
HETATM    7  C15         0      63.719 117.587  29.050  1.00  0.00     0.049 C 
HETATM    8  C16         0      63.115 117.278  27.837  1.00  0.00     0.093 C 
HETATM    9  C18         0      63.816 117.691  26.711  1.00  0.00     0.048 C 
HETATM   10  C19         0      65.180 117.940  26.781  1.00  0.00     0.096 C 
HETATM   11  C21         0      65.837 117.794  27.972  1.00  0.00     0.084 C 
ENDROOT
BRANCH  10  12
HETATM   12  O20         0      65.936 117.921  25.613  1.00  0.00    -0.359 OA
HETATM   13  H20         0      66.348 118.730  25.336  1.00  0.00     0.218 HD
ENDBRANCH  10  12
BRANCH   4  14
HETATM   14  C5          0      67.523 117.077  31.672  1.00  0.00     0.025 C 
HETATM   15  C6          0      66.705 116.726  32.735  1.00  0.00     0.004 C 
HETATM   16  C7          0      67.031 115.576  33.447  1.00  0.00     0.026 C 
HETATM   17  C8          0      68.204 114.872  33.198  1.00  0.00     0.112 C 
HETATM   18  C10         0      69.213 115.619  32.604  1.00  0.00     0.112 C 
HETATM   19  C12         0      68.854 116.714  31.828  1.00  0.00     0.028 C 
BRANCH  17  20
HETATM   20  O9          0      68.250 113.497  33.345  1.00  0.00    -0.357 OA
HETATM   21  H9          0      69.013 112.969  33.137  1.00  0.00     0.218 HD
ENDBRANCH  17  20
BRANCH  18  22
HETATM   22  O11         0      70.462 115.022  32.507  1.00  0.00    -0.357 OA
HETATM   23  H11         0      70.948 114.907  33.315  1.00  0.00     0.218 HD
ENDBRANCH  18  22
ENDBRANCH   4  14
BRANCH   8  24
HETATM   24  O17         0      62.079 116.341  27.756  1.00  0.00    -0.359 OA
HETATM   25  H17         0      61.520 116.281  26.991  1.00  0.00     0.218 HD
ENDBRANCH   8  24
TORSDOF 5
ENDMDL
MODEL 2
REMARK VINA RESULT:      -0.0      8.105      9.147
REMARK  5 active torsions:
REMARK  status: ('A' for Active; 'I' for Inactive)
REMARK    1  A    between atoms: C4_4  and  C5_5 
REMARK    2  A    between atoms: C8_8  and  O9_9 
REMARK    3  A    between atoms: C10_11  and  O11_12 
REMARK    4  A    between atoms: C16_18  and  O17_19 
REMARK    5  A    between atoms: C19_22  and  O20_23 
ROOT
HETATM    1  O1          0      70.629 113.028  24.387  1.00  0.00    -0.286 OA
HETATM    2  C2          0      71.869 113.225  24.506  1.00  0.00     0.201 C 
HETATM    3  C3          0      72.624 112.666  25.522  1.00  0.00     0.067 C 
HETATM    4  C4          0      73.968 112.981  25.690  1.00  0.00     0.103 C 
HETATM    5  O13         0      74.534 113.820  24.841  1.00  0.00    -0.307 OA
HETATM    6  C14         0      73.854 114.408  23.882  1.00  0.00     0.107 C 
HETATM    7  C15         0      74.315 115.559  23.258  1.00  0.00     0.049 C 
HETATM    8  C16         0      73.488 116.315  22.435  1.00  0.00     0.093 C 
HETATM    9  C18         0      72.432 115.616  21.864  1.00  0.00     0.048 C 
HETATM   10  C19         0      71.975 114.436  22.435  1.00  0.00     0.096 C 
HETATM   11  C21         0      72.581 113.948  23.561  1.00  0.00     0.084 C 
ENDROOT
BRANCH  10  12
HETATM   12  O20         0      70.691 113.990  22.140  1.00  0.00    -0.359 OA
HETATM   13  H20         0      70.360 113.239  22.618  1.00  0.00     0.218 HD
ENDBRANCH  10  12
BRANCH   4  14
HETATM   14  C5          0      74.519 112.867  27.042  1.00  0.00     0.025 C 
HETATM   15  C6          0      75.602 113.616  27.478  1.00  0.00     0.004 C 
HETATM   16  C7          0      75.577 114.084  28.788  1.00  0.00     0.026 C 
HETATM   17  C8          0      74.575 113.709  29.677  1.00  0.00     0.112 C 
HETATM   18  C10         0      73.940 112.515  29.365  1.00  0.00     0.112 C 
HETATM   19  C12         0      73.906 112.113  28.034  1.00  0.00     0.028 C 
BRANCH  17  20
HETATM   20  O9          0      74.133 114.582  30.655  1.00  0.00    -0.357 OA
HETATM   21  H9          0      74.325 114.479  31.580  1.00  0.00     0.218 HD
ENDBRANCH  17  20
BRANCH  18  22
HETATM   22  O11         0      73.068 112.000  30.313  1.00  0.00    -0.357 OA
HETATM   23  H11         0      73.198 111.094  30.570  1.00  0.00     0.218 HD
ENDBRANCH  18  22
ENDBRANCH   4  14
BRANCH   8  24
HETATM   24  O17         0      73.520 117.713  22.457  1.00  0.00    -0.359 OA
HETATM   25  H17         0      73.141 118.232  21.757  1.00  0.00     0.218 HD
ENDBRANCH   8  24
TORSDOF 5
ENDMDL
MODEL 3
REMARK VINA RESULT:       0.0      4.312      5.951
REMARK  5 active torsions:
REMARK  status: ('A' for Active; 'I' for Inactive)
REMARK    1  A    between atoms: C4_4  and  C5_5 
REMARK    2  A    between atoms: C8_8  and  O9_9 
REMARK    3  A    between atoms: C10_11  and  O11_12 
REMARK    4  A    between atoms: C16_18  and  O17_19 
REMARK    5  A    between atoms: C19_22  and  O20_23 
ROOT
HETATM    1  O1          0      65.921 111.316  32.407  1.00  0.00    -0.286 OA
HETATM    2  C2          0      66.328 111.910  31.371  1.00  0.00     0.201 C 
HETATM    3  C3          0      67.390 111.450  30.611  1.00  0.00     0.067 C 
HETATM    4  C4          0      67.883 112.178  29.534  1.00  0.00     0.103 C 
HETATM    5  O13         0      67.306 113.326  29.225  1.00  0.00    -0.307 OA
HETATM    6  C14         0      66.319 113.826  29.937  1.00  0.00     0.107 C 
HETATM    7  C15         0      65.983 115.170  29.877  1.00  0.00     0.049 C 
HETATM    8  C16         0      65.122 115.741  30.806  1.00  0.00     0.093 C 
HETATM    9  C18         0      64.243 114.853  31.415  1.00  0.00     0.048 C 
HETATM   10  C19         0      64.526 113.495  31.452  1.00  0.00     0.096 C 
HETATM   11  C21         0      65.671 113.024  30.870  1.00  0.00     0.084 C 
ENDROOT
BRANCH  10  12
HETATM   12  O20         0      63.903 112.696  32.406  1.00  0.00    -0.359 OA
HETATM   13  H20         0      63.359 111.980  32.100  1.00  0.00     0.218 HD
ENDBRANCH  10  12
BRANCH   4  14
HETATM   14  C5          0      69.290 111.980  29.180  1.00  0.00     0.025 C 
HETATM   15  C6          0      70.051 112.952  28.548  1.00  0.00     0.004 C 
HETATM   16  C7          0      71.379 113.087  28.939  1.00  0.00     0.026 C 
HETATM   17  C8          0      71.971 112.199  29.830  1.00  0.00     0.112 C 
HETATM   18  C10         0      71.360 110.954  29.900  1.00  0.00     0.112 C 
HETATM   19  C12         0      70.009 110.863  29.585  1.00  0.00     0.028 C 
BRANCH  17  20
HETATM   20  O9          0      72.949 112.624  30.712  1.00  0.00    -0.357 OA
HETATM   21  H9          0      73.309 112.081  31.403  1.00  0.00     0.218 HD
ENDBRANCH  17  20
BRANCH  18  22
HETATM   22  O11         0      72.016 109.971  30.627  1.00  0.00    -0.357 OA
HETATM   23  H11         0      71.913 109.074  30.330  1.00  0.00     0.218 HD
ENDBRANCH  18  22
ENDBRANCH   4  14
BRANCH   8  24
HETATM   24  O17         0      65.352 117.020  31.325  1.00  0.00    -0.359 OA
HETATM   25  H17         0      65.052 117.269  32.191  1.00  0.00     0.218 HD
ENDBRANCH   8  24
TORSDOF 5
ENDMDL
MODEL 4
REMARK VINA RESULT:       0.0     10.637     11.549
REMARK  5 active torsions:
REMARK  status: ('A' for Active; 'I' for Inactive)
REMARK    1  A    between atoms: C4_4  and  C5_5 
REMARK    2  A    between atoms: C8_8  and  O9_9 
REMARK    3  A    between atoms: C10_11  and  O11_12 
REMARK    4  A    between atoms: C16_18  and  O17_19 
REMARK    5  A    between atoms: C19_22  and  O20_23 
ROOT
HETATM    1  O1          0      76.850 111.844  30.126  1.00  0.00    -0.286 OA
HETATM    2  C2          0      75.850 111.188  30.529  1.00  0.00     0.201 C 
HETATM    3  C3          0      75.175 111.493  31.698  1.00  0.00     0.067 C 
HETATM    4  C4          0      74.140 110.693  32.172  1.00  0.00     0.103 C 
HETATM    5  O13         0      73.788 109.630  31.470  1.00  0.00    -0.307 OA
HETATM    6  C14         0      74.420 109.275  30.373  1.00  0.00     0.107 C 
HETATM    7  C15         0      74.334 107.988  29.864  1.00  0.00     0.049 C 
HETATM    8  C16         0      75.193 107.548  28.864  1.00  0.00     0.093 C 
HETATM    9  C18         0      75.731 108.553  28.069  1.00  0.00     0.048 C 
HETATM   10  C19         0      75.790 109.862  28.529  1.00  0.00     0.096 C 
HETATM   11  C21         0      75.299 110.168  29.769  1.00  0.00     0.084 C 
ENDROOT
BRANCH  10  12
HETATM   12  O20         0      76.691 110.748  27.947  1.00  0.00    -0.359 OA
HETATM   13  H20         0      77.577 110.769  28.287  1.00  0.00     0.218 HD
ENDBRANCH  10  12
BRANCH   4  14
HETATM   14  C5          0      73.898 110.697  33.616  1.00  0.00     0.025 C 
HETATM   15  C6          0      73.328 109.624  34.285  1.00  0.00     0.004 C 
HETATM   16  C7          0      73.822 109.316  35.549  1.00  0.00     0.026 C 
HETATM   17  C8          0      74.757 110.127  36.183  1.00  0.00     0.112 C 
HETATM   18  C10         0      74.777 111.443  35.742  1.00  0.00     0.112 C 
HETATM   19  C12         0      74.358 111.712  34.445  1.00  0.00     0.028 C 
BRANCH  17  20
HETATM   20  O9          0      75.712 109.583  37.024  1.00  0.00    -0.357 OA
HETATM   21  H9          0      76.466 110.064  37.347  1.00  0.00     0.218 HD
ENDBRANCH  17  20
BRANCH  18  22
HETATM   22  O11         0      75.553 112.337  36.467  1.00  0.00    -0.357 OA
HETATM   23  H11         0      75.191 113.203  36.611  1.00  0.00     0.218 HD
ENDBRANCH  18  22
ENDBRANCH   4  14
BRANCH   8  24
HETATM   24  O17         0      75.729 106.256  28.879  1.00  0.00    -0.359 OA
HETATM   25  H17         0      75.198 105.493  28.687  1.00  0.00     0.218 HD
ENDBRANCH   8  24
TORSDOF 5
ENDMDL
MODEL 5
REMARK VINA RESULT:       0.0      6.324      8.429
REMARK  5 active torsions:
REMARK  status: ('A' for Active; 'I' for Inactive)
REMARK    1  A    between atoms: C4_4  and  C5_5 
REMARK    2  A    between atoms: C8_8  and  O9_9 
REMARK    3  A    between atoms: C10_11  and  O11_12 
REMARK    4  A    between atoms: C16_18  and  O17_19 
REMARK    5  A    between atoms: C19_22  and  O20_23 
ROOT
HETATM    1  O1          0      65.441 112.828  34.347  1.00  0.00    -0.286 OA
HETATM    2  C2          0      65.183 111.714  33.815  1.00  0.00     0.201 C 
HETATM    3  C3          0      65.148 110.530  34.531  1.00  0.00     0.067 C 
HETATM    4  C4          0      64.962 109.303  33.903  1.00  0.00     0.103 C 
HETATM    5  O13         0      64.795 109.280  32.593  1.00  0.00    -0.307 OA
HETATM    6  C14         0      64.857 110.371  31.861  1.00  0.00     0.107 C 
HETATM    7  C15         0      65.083 110.322  30.493  1.00  0.00     0.049 C 
HETATM    8  C16         0      65.399 111.467  29.772  1.00  0.00     0.093 C 
HETATM    9  C18         0      64.963 112.657  30.340  1.00  0.00     0.048 C 
HETATM   10  C19         0      64.682 112.730  31.698  1.00  0.00     0.096 C 
HETATM   11  C21         0      64.820 111.616  32.480  1.00  0.00     0.084 C 
ENDROOT
BRANCH  10  12
HETATM   12  O20         0      64.677 113.971  32.326  1.00  0.00    -0.359 OA
HETATM   13  H20         0      63.885 114.238  32.778  1.00  0.00     0.218 HD
ENDBRANCH  10  12
BRANCH   4  14
HETATM   14  C5          0      65.519 108.121  34.564  1.00  0.00     0.025 C 
HETATM   15  C6          0      65.896 106.980  33.871  1.00  0.00     0.004 C 
HETATM   16  C7          0      67.042 106.317  34.296  1.00  0.00     0.026 C 
HETATM   17  C8          0      67.717 106.694  35.452  1.00  0.00     0.112 C 
HETATM   18  C10         0      66.943 107.384  36.376  1.00  0.00     0.112 C 
HETATM   19  C12         0      65.851 108.109  35.912  1.00  0.00     0.028 C 
BRANCH  17  20
HETATM   20  O9          0      69.091 106.565  35.546  1.00  0.00    -0.357 OA
HETATM   21  H9          0      69.548 105.734  35.488  1.00  0.00     0.218 HD
ENDBRANCH  17  20
BRANCH  18  22
HETATM   22  O11         0      67.509 107.619  37.621  1.00  0.00    -0.357 OA
HETATM   23  H11         0      68.441 107.451  37.708  1.00  0.00     0.218 HD
ENDBRANCH  18  22
ENDBRANCH   4  14
BRANCH   8  24
HETATM   24  O17         0      66.360 111.446  28.754  1.00  0.00    -0.359 OA
HETATM   25  H17         0      66.649 110.632  28.358  1.00  0.00     0.218 HD
ENDBRANCH   8  24
TORSDOF 5
ENDMDL
MODEL 6
REMARK VINA RESULT:       0.0      4.095      5.295
REMARK  5 active torsions:
REMARK  status: ('A' for Active; 'I' for Inactive)
REMARK    1  A    between atoms: C4_4  and  C5_5 
REMARK    2  A    between atoms: C8_8  and  O9_9 
REMARK    3  A    between atoms: C10_11  and  O11_12 
REMARK    4  A    between atoms: C16_18  and  O17_19 
REMARK    5  A    between atoms: C19_22  and  O20_23 
ROOT
HETATM    1  O1          0      66.094 119.058  27.271  1.00  0.00    -0.286 OA
HETATM    2  C2          0      64.923 118.668  27.008  1.00  0.00     0.201 C 
HETATM    3  C3          0      64.063 118.173  27.974  1.00  0.00     0.067 C 
HETATM    4  C4          0      62.817 117.655  27.642  1.00  0.00     0.103 C 
HETATM    5  O13         0      62.445 117.658  26.374  1.00  0.00    -0.307 OA
HETATM    6  C14         0      63.237 118.082  25.414  1.00  0.00     0.107 C 
HETATM    7  C15         0      63.033 117.728  24.089  1.00  0.00     0.049 C 
HETATM    8  C16         0      64.004 117.961  23.122  1.00  0.00     0.093 C 
HETATM    9  C18         0      64.890 118.990  23.416  1.00  0.00     0.048 C 
HETATM   10  C19         0      65.084 119.401  24.728  1.00  0.00     0.096 C 
HETATM   11  C21         0      64.384 118.799  25.738  1.00  0.00     0.084 C 
ENDROOT
BRANCH  10  12
HETATM   12  O20         0      66.245 120.091  25.060  1.00  0.00    -0.359 OA
HETATM   13  H20         0      66.652 120.627  24.390  1.00  0.00     0.218 HD
ENDBRANCH  10  12
BRANCH   4  14
HETATM   14  C5          0      62.250 116.647  28.541  1.00  0.00     0.025 C 
HETATM   15  C6          0      61.349 115.682  28.115  1.00  0.00     0.004 C 
HETATM   16  C7          0      61.468 114.406  28.656  1.00  0.00     0.026 C 
HETATM   17  C8          0      62.364 114.130  29.683  1.00  0.00     0.112 C 
HETATM   18  C10         0      62.733 115.232  30.443  1.00  0.00     0.112 C 
HETATM   19  C12         0      62.685 116.488  29.850  1.00  0.00     0.028 C 
BRANCH  17  20
HETATM   20  O9          0      62.978 112.893  29.775  1.00  0.00    -0.357 OA
HETATM   21  H9          0      63.312 112.413  29.026  1.00  0.00     0.218 HD
ENDBRANCH  17  20
BRANCH  18  22
HETATM   22  O11         0      63.472 114.985  31.591  1.00  0.00    -0.357 OA
HETATM   23  H11         0      64.281 115.472  31.694  1.00  0.00     0.218 HD
ENDBRANCH  18  22
ENDBRANCH   4  14
BRANCH   8  24
HETATM   24  O17         0      64.270 117.026  22.115  1.00  0.00    -0.359 OA
HETATM   25  H17         0      64.863 117.219  21.399  1.00  0.00     0.218 HD
ENDBRANCH   8  24
TORSDOF 5
ENDMDL
MODEL 7
REMARK VINA RESULT:       0.0      9.053     10.981
REMARK  5 active torsions:
REMARK  status: ('A' for Active; 'I' for Inactive)
REMARK    1  A    between atoms: C4_4  and  C5_5 
REMARK    2  A    between atoms: C8_8  and  O9_9 
REMARK    3  A    between atoms: C10_11  and  O11_12 
REMARK    4  A    between atoms: C16_18  and  O17_19 
REMARK    5  A    between atoms: C19_22  and  O20_23 
ROOT
HETATM    1  O1          0      66.496 106.081  31.706  1.00  0.00    -0.286 OA
HETATM    2  C2          0      66.230 106.775  30.686  1.00  0.00     0.201 C 
HETATM    3  C3          0      66.120 106.231  29.418  1.00  0.00     0.067 C 
HETATM    4  C4          0      65.928 107.031  28.297  1.00  0.00     0.103 C 
HETATM    5  O13         0      65.829 108.339  28.459  1.00  0.00    -0.307 OA
HETATM    6  C14         0      65.964 108.909  29.637  1.00  0.00     0.107 C 
HETATM    7  C15         0      66.260 110.258  29.766  1.00  0.00     0.049 C 
HETATM    8  C16         0      66.651 110.798  30.985  1.00  0.00     0.093 C 
HETATM    9  C18         0      66.224 110.092  32.103  1.00  0.00     0.048 C 
HETATM   10  C19         0      65.875 108.752  32.001  1.00  0.00     0.096 C 
HETATM   11  C21         0      65.935 108.126  30.786  1.00  0.00     0.084 C 
ENDROOT
BRANCH  10  12
HETATM   12  O20         0      65.876 107.959  33.144  1.00  0.00    -0.359 OA
HETATM   13  H20         0      66.702 107.826  33.592  1.00  0.00     0.218 HD
ENDBRANCH  10  12
BRANCH   4  14
HETATM   14  C5          0      66.411 106.514  27.015  1.00  0.00     0.025 C 
HETATM   15  C6          0      66.787 107.340  25.965  1.00  0.00     0.004 C 
HETATM   16  C7          0      67.887 106.956  25.205  1.00  0.00     0.026 C 
HETATM   17  C8          0      68.512 105.728  25.395  1.00  0.00     0.112 C 
HETATM   18  C10         0      67.713 104.756  25.983  1.00  0.00     0.112 C 
HETATM   19  C12         0      66.672 105.166  26.806  1.00  0.00     0.028 C 
BRANCH  17  20
HETATM   20  O9          0      69.875 105.589  25.201  1.00  0.00    -0.357 OA
HETATM   21  H9          0      70.298 104.760  25.007  1.00  0.00     0.218 HD
ENDBRANCH  17  20
BRANCH  18  22
HETATM   22  O11         0      68.221 103.465  26.022  1.00  0.00    -0.357 OA
HETATM   23  H11         0      69.069 103.324  25.617  1.00  0.00     0.218 HD
ENDBRANCH  18  22
ENDBRANCH   4  14
BRANCH   8  24
HETATM   24  O17         0      67.662 111.762  31.066  1.00  0.00    -0.359 OA
HETATM   25  H17         0      68.576 111.520  31.158  1.00  0.00     0.218 HD
ENDBRANCH   8  24
TORSDOF 5
ENDMDL
MODEL 8
REMARK VINA RESULT:       0.0      7.514      8.219
REMARK  5 active torsions:
REMARK  status: ('A' for Active; 'I' for Inactive)
REMARK    1  A    between atoms: C4_4  and  C5_5 
REMARK    2  A    between atoms: C8_8  and  O9_9 
REMARK    3  A    between atoms: C10_11  and  O11_12 
REMARK    4  A    between atoms: C16_18  and  O17_19 
REMARK    5  A    between atoms: C19_22  and  O20_23 
ROOT
HETATM    1  O1          0      68.074 106.810  28.086  1.00  0.00    -0.286 OA
HETATM    2  C2          0      67.551 107.886  27.686  1.00  0.00     0.201 C 
HETATM    3  C3          0      68.266 109.064  27.554  1.00  0.00     0.067 C 
HETATM    4  C4          0      67.643 110.259  27.210  1.00  0.00     0.103 C 
HETATM    5  O13         0      66.341 110.255  26.987  1.00  0.00    -0.307 OA
HETATM    6  C14         0      65.610 109.173  27.135  1.00  0.00     0.107 C 
HETATM    7  C15         0      64.233 109.237  27.297  1.00  0.00     0.049 C 
HETATM    8  C16         0      63.502 108.128  27.706  1.00  0.00     0.093 C 
HETATM    9  C18         0      64.091 106.901  27.425  1.00  0.00     0.048 C 
HETATM   10  C19         0      65.459 106.808  27.211  1.00  0.00     0.096 C 
HETATM   11  C21         0      66.232 107.936  27.260  1.00  0.00     0.084 C 
ENDROOT
BRANCH  10  12
HETATM   12  O20         0      66.090 105.577  27.366  1.00  0.00    -0.359 OA
HETATM   13  H20         0      66.344 105.315  28.242  1.00  0.00     0.218 HD
ENDBRANCH  10  12
BRANCH   4  14
HETATM   14  C5          0      68.277 111.499  27.662  1.00  0.00     0.025 C 
HETATM   15  C6          0      67.567 112.669  27.884  1.00  0.00     0.004 C 
HETATM   16  C7          0      67.942 113.456  28.969  1.00  0.00     0.026 C 
HETATM   17  C8          0      69.069 113.161  29.728  1.00  0.00     0.112 C 
HETATM   18  C10         0      70.026 112.397  29.073  1.00  0.00     0.112 C 
HETATM   19  C12         0      69.611 111.555  28.048  1.00  0.00     0.028 C 
BRANCH  17  20
HETATM   20  O9          0      69.104 113.439  31.083  1.00  0.00    -0.357 OA
HETATM   21  H9          0      68.731 114.222  31.471  1.00  0.00     0.218 HD
ENDBRANCH  17  20
BRANCH  18  22
HETATM   22  O11         0      71.246 112.234  29.713  1.00  0.00    -0.357 OA
HETATM   23  H11         0      71.866 112.951  29.646  1.00  0.00     0.218 HD
ENDBRANCH  18  22
ENDBRANCH   4  14
BRANCH   8  24
HETATM   24  O17         0      62.444 108.246  28.614  1.00  0.00    -0.359 OA
HETATM   25  H17         0      61.612 108.629  28.364  1.00  0.00     0.218 HD
ENDBRANCH   8  24
TORSDOF 5
ENDMDL
MODEL 9
REMARK VINA RESULT:       0.0      9.752     11.501
REMARK  5 active torsions:
REMARK  status: ('A' for Active; 'I' for Inactive)
REMARK    1  A    between atoms: C4_4  and  C5_5 
REMARK    2  A    between atoms: C8_8  and  O9_9 
REMARK    3  A    between atoms: C10_11  and  O11_12 
REMARK    4  A    between atoms: C16_18  and  O17_19 
REMARK    5  A    between atoms: C19_22  and  O20_23 
ROOT
HETATM    1  O1          0      74.945 118.811  30.917  1.00  0.00    -0.286 OA
HETATM    2  C2          0      75.836 118.000  31.292  1.00  0.00     0.201 C 
HETATM    3  C3          0      76.680 117.351  30.407  1.00  0.00     0.067 C 
HETATM    4  C4          0      77.583 116.386  30.837  1.00  0.00     0.103 C 
HETATM    5  O13         0      77.643 116.102  32.126  1.00  0.00    -0.307 OA
HETATM    6  C14         0      76.838 116.661  33.003  1.00  0.00     0.107 C 
HETATM    7  C15         0      76.615 116.100  34.252  1.00  0.00     0.049 C 
HETATM    8  C16         0      75.583 116.545  35.070  1.00  0.00     0.093 C 
HETATM    9  C18         0      75.170 117.851  34.834  1.00  0.00     0.048 C 
HETATM   10  C19         0      75.418 118.459  33.611  1.00  0.00     0.096 C 
HETATM   11  C21         0      76.091 117.774  32.636  1.00  0.00     0.084 C 
ENDROOT
BRANCH  10  12
HETATM   12  O20         0      74.649 119.554  33.227  1.00  0.00    -0.359 OA
HETATM   13  H20         0      74.302 119.567  32.343  1.00  0.00     0.218 HD
ENDBRANCH  10  12
BRANCH   4  14
HETATM   14  C5          0      77.977 115.359  29.870  1.00  0.00     0.025 C 
HETATM   15  C6          0      78.396 114.091  30.248  1.00  0.00     0.004 C 
HETATM   16  C7          0      77.991 113.018  29.462  1.00  0.00     0.026 C 
HETATM   17  C8          0      77.307 113.207  28.266  1.00  0.00     0.112 C 
HETATM   18  C10         0      77.497 114.451  27.680  1.00  0.00     0.112 C 
HETATM   19  C12         0      77.817 115.526  28.501  1.00  0.00     0.028 C 
BRANCH  17  20
HETATM   20  O9          0      76.361 112.292  27.838  1.00  0.00    -0.357 OA
HETATM   21  H9          0      75.673 112.497  27.215  1.00  0.00     0.218 HD
ENDBRANCH  17  20
BRANCH  18  22
HETATM   22  O11         0      76.993 114.626  26.398  1.00  0.00    -0.357 OA
HETATM   23  H11         0      76.132 115.020  26.325  1.00  0.00     0.218 HD
ENDBRANCH  18  22
ENDBRANCH   4  14
BRANCH   8  24
HETATM   24  O17         0      74.810 115.653  35.820  1.00  0.00    -0.359 OA
HETATM   25  H17         0      74.556 114.803  35.478  1.00  0.00     0.218 HD
ENDBRANCH   8  24
TORSDOF 5
ENDMDL
