MODEL 1
REMARK VINA RESULT:      -4.1      0.000      0.000
REMARK  5 active torsions:
REMARK  status: ('A' for Active; 'I' for Inactive)
REMARK    1  A    between atoms: C4_4  and  C5_5 
REMARK    2  A    between atoms: C8_8  and  O9_9 
REMARK    3  A    between atoms: C10_11  and  O11_12 
REMARK    4  A    between atoms: C16_18  and  O17_19 
REMARK    5  A    between atoms: C19_22  and  O20_23 
ROOT
HETATM    1  O1          0      25.422  73.487  20.093  1.00  0.00    -0.286 OA
HETATM    2  C2          0      24.948  73.906  21.184  1.00  0.00     0.201 C 
HETATM    3  C3          0      25.403  75.054  21.809  1.00  0.00     0.067 C 
HETATM    4  C4          0      24.935  75.437  23.061  1.00  0.00     0.103 C 
HETATM    5  O13         0      24.019  74.691  23.651  1.00  0.00    -0.307 OA
HETATM    6  C14         0      23.580  73.571  23.119  1.00  0.00     0.107 C 
HETATM    7  C15         0      22.945  72.600  23.879  1.00  0.00     0.049 C 
HETATM    8  C16         0      22.714  71.325  23.376  1.00  0.00     0.093 C 
HETATM    9  C18         0      22.650  71.245  21.990  1.00  0.00     0.048 C 
HETATM   10  C19         0      23.234  72.224  21.199  1.00  0.00     0.096 C 
HETATM   11  C21         0      23.864  73.287  21.788  1.00  0.00     0.084 C 
ENDROOT
BRANCH  10  12
HETATM   12  O20         0      23.549  71.932  19.875  1.00  0.00    -0.359 OA
HETATM   13  H20         0      23.764  72.655  19.298  1.00  0.00     0.218 HD
ENDBRANCH  10  12
BRANCH   4  14
HETATM   14  C5          0      25.830  76.244  23.893  1.00  0.00     0.025 C 
HETATM   15  C6          0      27.186  76.375  23.630  1.00  0.00     0.004 C 
HETATM   16  C7          0      27.766  77.621  23.845  1.00  0.00     0.026 C 
HETATM   17  C8          0      27.057  78.665  24.430  1.00  0.00     0.112 C 
HETATM   18  C10         0      25.978  78.268  25.209  1.00  0.00     0.112 C 
HETATM   19  C12         0      25.363  77.057  24.917  1.00  0.00     0.028 C 
BRANCH  17  20
HETATM   20  O9          0      27.302  79.978  24.070  1.00  0.00    -0.357 OA
HETATM   21  H9          0      27.816  80.582  24.594  1.00  0.00     0.218 HD
ENDBRANCH  17  20
BRANCH  18  22
HETATM   22  O11         0      25.354  79.250  25.964  1.00  0.00    -0.357 OA
HETATM   23  H11         0      24.731  78.958  26.620  1.00  0.00     0.218 HD
ENDBRANCH  18  22
ENDBRANCH   4  14
BRANCH   8  24
HETATM   24  O17         0      22.874  70.186  24.172  1.00  0.00    -0.359 OA
HETATM   25  H17         0      22.396  70.075  24.985  1.00  0.00     0.218 HD
ENDBRANCH   8  24
TORSDOF 5
ENDMDL
MODEL 2
REMARK VINA RESULT:      -4.0      2.429      6.846
REMARK  5 active torsions:
REMARK  status: ('A' for Active; 'I' for Inactive)
REMARK    1  A    between atoms: C4_4  and  C5_5 
REMARK    2  A    between atoms: C8_8  and  O9_9 
REMARK    3  A    between atoms: C10_11  and  O11_12 
REMARK    4  A    between atoms: C16_18  and  O17_19 
REMARK    5  A    between atoms: C19_22  and  O20_23 
ROOT
HETATM    1  O1          0      28.308  73.284  24.980  1.00  0.00    -0.286 OA
HETATM    2  C2          0      27.565  74.174  24.482  1.00  0.00     0.201 C 
HETATM    3  C3          0      26.328  73.893  23.927  1.00  0.00     0.067 C 
HETATM    4  C4          0      25.575  74.875  23.293  1.00  0.00     0.103 C 
HETATM    5  O13         0      26.051  76.107  23.243  1.00  0.00    -0.307 OA
HETATM    6  C14         0      27.236  76.418  23.721  1.00  0.00     0.107 C 
HETATM    7  C15         0      27.902  77.571  23.330  1.00  0.00     0.049 C 
HETATM    8  C16         0      29.244  77.767  23.634  1.00  0.00     0.093 C 
HETATM    9  C18         0      29.703  77.067  24.743  1.00  0.00     0.048 C 
HETATM   10  C19         0      29.033  75.936  25.190  1.00  0.00     0.096 C 
HETATM   11  C21         0      27.902  75.517  24.544  1.00  0.00     0.084 C 
ENDROOT
BRANCH  10  12
HETATM   12  O20         0      29.708  75.017  25.988  1.00  0.00    -0.359 OA
HETATM   13  H20         0      29.732  75.173  26.924  1.00  0.00     0.218 HD
ENDBRANCH  10  12
BRANCH   4  14
HETATM   14  C5          0      24.643  74.437  22.253  1.00  0.00     0.025 C 
HETATM   15  C6          0      25.058  73.814  21.085  1.00  0.00     0.004 C 
HETATM   16  C7          0      24.269  72.781  20.590  1.00  0.00     0.026 C 
HETATM   17  C8          0      23.039  72.465  21.158  1.00  0.00     0.112 C 
HETATM   18  C10         0      22.445  73.501  21.866  1.00  0.00     0.112 C 
HETATM   19  C12         0      23.265  74.476  22.424  1.00  0.00     0.028 C 
BRANCH  17  20
HETATM   20  O9          0      22.581  71.160  21.177  1.00  0.00    -0.357 OA
HETATM   21  H9          0      23.108  70.420  21.456  1.00  0.00     0.218 HD
ENDBRANCH  17  20
BRANCH  18  22
HETATM   22  O11         0      21.139  73.304  22.292  1.00  0.00    -0.357 OA
HETATM   23  H11         0      20.448  73.617  21.720  1.00  0.00     0.218 HD
ENDBRANCH  18  22
ENDBRANCH   4  14
BRANCH   8  24
HETATM   24  O17         0      30.124  78.343  22.711  1.00  0.00    -0.359 OA
HETATM   25  H17         0      29.908  78.407  21.788  1.00  0.00     0.218 HD
ENDBRANCH   8  24
TORSDOF 5
ENDMDL
MODEL 3
REMARK VINA RESULT:      -3.8      1.265      1.668
REMARK  5 active torsions:
REMARK  status: ('A' for Active; 'I' for Inactive)
REMARK    1  A    between atoms: C4_4  and  C5_5 
REMARK    2  A    between atoms: C8_8  and  O9_9 
REMARK    3  A    between atoms: C10_11  and  O11_12 
REMARK    4  A    between atoms: C16_18  and  O17_19 
REMARK    5  A    between atoms: C19_22  and  O20_23 
ROOT
HETATM    1  O1          0      25.013  73.466  20.164  1.00  0.00    -0.286 OA
HETATM    2  C2          0      24.791  73.771  21.368  1.00  0.00     0.201 C 
HETATM    3  C3          0      25.441  74.812  22.010  1.00  0.00     0.067 C 
HETATM    4  C4          0      25.254  75.062  23.365  1.00  0.00     0.103 C 
HETATM    5  O13         0      24.418  74.295  24.042  1.00  0.00    -0.307 OA
HETATM    6  C14         0      23.805  73.272  23.490  1.00  0.00     0.107 C 
HETATM    7  C15         0      23.261  72.247  24.252  1.00  0.00     0.049 C 
HETATM    8  C16         0      22.846  71.056  23.669  1.00  0.00     0.093 C 
HETATM    9  C18         0      22.508  71.148  22.324  1.00  0.00     0.048 C 
HETATM   10  C19         0      22.997  72.186  21.543  1.00  0.00     0.096 C 
HETATM   11  C21         0      23.804  73.137  22.106  1.00  0.00     0.084 C 
ENDROOT
BRANCH  10  12
HETATM   12  O20         0      23.026  72.042  20.160  1.00  0.00    -0.359 OA
HETATM   13  H20         0      23.740  72.450  19.684  1.00  0.00     0.218 HD
ENDBRANCH  10  12
BRANCH   4  14
HETATM   14  C5          0      26.349  75.717  24.082  1.00  0.00     0.025 C 
HETATM   15  C6          0      27.337  75.011  24.753  1.00  0.00     0.004 C 
HETATM   16  C7          0      28.636  75.505  24.694  1.00  0.00     0.026 C 
HETATM   17  C8          0      28.924  76.730  24.102  1.00  0.00     0.112 C 
HETATM   18  C10         0      27.853  77.612  24.044  1.00  0.00     0.112 C 
HETATM   19  C12         0      26.566  77.087  24.019  1.00  0.00     0.028 C 
BRANCH  17  20
HETATM   20  O9          0      30.125  76.935  23.446  1.00  0.00    -0.357 OA
HETATM   21  H9          0      30.443  76.382  22.742  1.00  0.00     0.218 HD
ENDBRANCH  17  20
BRANCH  18  22
HETATM   22  O11         0      28.129  78.910  23.638  1.00  0.00    -0.357 OA
HETATM   23  H11         0      28.435  79.513  24.305  1.00  0.00     0.218 HD
ENDBRANCH  18  22
ENDBRANCH   4  14
BRANCH   8  24
HETATM   24  O17         0      23.075  69.822  24.288  1.00  0.00    -0.359 OA
HETATM   25  H17         0      22.819  69.661  25.188  1.00  0.00     0.218 HD
ENDBRANCH   8  24
TORSDOF 5
ENDMDL
MODEL 4
REMARK VINA RESULT:      -3.6      3.774      6.012
REMARK  5 active torsions:
REMARK  status: ('A' for Active; 'I' for Inactive)
REMARK    1  A    between atoms: C4_4  and  C5_5 
REMARK    2  A    between atoms: C8_8  and  O9_9 
REMARK    3  A    between atoms: C10_11  and  O11_12 
REMARK    4  A    between atoms: C16_18  and  O17_19 
REMARK    5  A    between atoms: C19_22  and  O20_23 
ROOT
HETATM    1  O1          0      19.842  68.692  20.507  1.00  0.00    -0.286 OA
HETATM    2  C2          0      20.174  69.901  20.360  1.00  0.00     0.201 C 
HETATM    3  C3          0      21.493  70.310  20.268  1.00  0.00     0.067 C 
HETATM    4  C4          0      21.836  71.656  20.209  1.00  0.00     0.103 C 
HETATM    5  O13         0      20.871  72.558  20.223  1.00  0.00    -0.307 OA
HETATM    6  C14         0      19.605  72.225  20.347  1.00  0.00     0.107 C 
HETATM    7  C15         0      18.645  73.139  20.758  1.00  0.00     0.049 C 
HETATM    8  C16         0      17.371  72.729  21.131  1.00  0.00     0.093 C 
HETATM    9  C18         0      16.959  71.521  20.583  1.00  0.00     0.048 C 
HETATM   10  C19         0      17.891  70.603  20.118  1.00  0.00     0.096 C 
HETATM   11  C21         0      19.225  70.897  20.186  1.00  0.00     0.084 C 
ENDROOT
BRANCH  10  12
HETATM   12  O20         0      17.523  69.267  19.986  1.00  0.00    -0.359 OA
HETATM   13  H20         0      16.868  69.048  19.334  1.00  0.00     0.218 HD
ENDBRANCH  10  12
BRANCH   4  14
HETATM   14  C5          0      23.159  72.032  20.710  1.00  0.00     0.025 C 
HETATM   15  C6          0      24.246  72.250  19.875  1.00  0.00     0.004 C 
HETATM   16  C7          0      25.114  73.286  20.204  1.00  0.00     0.026 C 
HETATM   17  C8          0      24.986  73.996  21.393  1.00  0.00     0.112 C 
HETATM   18  C10         0      24.315  73.319  22.402  1.00  0.00     0.112 C 
HETATM   19  C12         0      23.389  72.347  22.043  1.00  0.00     0.028 C 
BRANCH  17  20
HETATM   20  O9          0      25.320  75.337  21.457  1.00  0.00    -0.357 OA
HETATM   21  H9          0      26.167  75.683  21.202  1.00  0.00     0.218 HD
ENDBRANCH  17  20
BRANCH  18  22
HETATM   22  O11         0      24.323  73.901  23.662  1.00  0.00    -0.357 OA
HETATM   23  H11         0      24.181  74.840  23.703  1.00  0.00     0.218 HD
ENDBRANCH  18  22
ENDBRANCH   4  14
BRANCH   8  24
HETATM   24  O17         0      16.709  73.306  22.221  1.00  0.00    -0.359 OA
HETATM   25  H17         0      15.762  73.365  22.255  1.00  0.00     0.218 HD
ENDBRANCH   8  24
TORSDOF 5
ENDMDL
MODEL 5
REMARK VINA RESULT:      -3.5      1.479      3.048
REMARK  5 active torsions:
REMARK  status: ('A' for Active; 'I' for Inactive)
REMARK    1  A    between atoms: C4_4  and  C5_5 
REMARK    2  A    between atoms: C8_8  and  O9_9 
REMARK    3  A    between atoms: C10_11  and  O11_12 
REMARK    4  A    between atoms: C16_18  and  O17_19 
REMARK    5  A    between atoms: C19_22  and  O20_23 
ROOT
HETATM    1  O1          0      22.831  73.152  25.622  1.00  0.00    -0.286 OA
HETATM    2  C2          0      23.653  73.482  24.724  1.00  0.00     0.201 C 
HETATM    3  C3          0      24.617  74.457  24.911  1.00  0.00     0.067 C 
HETATM    4  C4          0      25.443  74.874  23.873  1.00  0.00     0.103 C 
HETATM    5  O13         0      25.309  74.305  22.688  1.00  0.00    -0.307 OA
HETATM    6  C14         0      24.385  73.401  22.446  1.00  0.00     0.107 C 
HETATM    7  C15         0      23.976  73.100  21.155  1.00  0.00     0.049 C 
HETATM    8  C16         0      22.836  72.342  20.917  1.00  0.00     0.093 C 
HETATM    9  C18         0      22.466  71.496  21.956  1.00  0.00     0.048 C 
HETATM   10  C19         0      22.896  71.742  23.253  1.00  0.00     0.096 C 
HETATM   11  C21         0      23.704  72.816  23.508  1.00  0.00     0.084 C 
ENDROOT
BRANCH  10  12
HETATM   12  O20         0      22.197  71.183  24.318  1.00  0.00    -0.359 OA
HETATM   13  H20         0      22.450  70.315  24.610  1.00  0.00     0.218 HD
ENDBRANCH  10  12
BRANCH   4  14
HETATM   14  C5          0      25.972  76.237  23.944  1.00  0.00     0.025 C 
HETATM   15  C6          0      25.451  77.203  24.793  1.00  0.00     0.004 C 
HETATM   16  C7          0      26.346  78.073  25.407  1.00  0.00     0.026 C 
HETATM   17  C8          0      27.699  78.072  25.087  1.00  0.00     0.112 C 
HETATM   18  C10         0      27.999  77.555  23.834  1.00  0.00     0.112 C 
HETATM   19  C12         0      27.130  76.622  23.280  1.00  0.00     0.028 C 
BRANCH  17  20
HETATM   20  O9          0      28.654  78.370  26.043  1.00  0.00    -0.357 OA
HETATM   21  H9          0      28.490  78.345  26.979  1.00  0.00     0.218 HD
ENDBRANCH  17  20
BRANCH  18  22
HETATM   22  O11         0      29.304  77.703  23.388  1.00  0.00    -0.357 OA
HETATM   23  H11         0      29.653  78.586  23.364  1.00  0.00     0.218 HD
ENDBRANCH  18  22
ENDBRANCH   4  14
BRANCH   8  24
HETATM   24  O17         0      21.957  72.656  19.875  1.00  0.00    -0.359 OA
HETATM   25  H17         0      22.113  72.363  18.985  1.00  0.00     0.218 HD
ENDBRANCH   8  24
TORSDOF 5
ENDMDL
MODEL 6
REMARK VINA RESULT:      -3.5      3.153      6.585
REMARK  5 active torsions:
REMARK  status: ('A' for Active; 'I' for Inactive)
REMARK    1  A    between atoms: C4_4  and  C5_5 
REMARK    2  A    between atoms: C8_8  and  O9_9 
REMARK    3  A    between atoms: C10_11  and  O11_12 
REMARK    4  A    between atoms: C16_18  and  O17_19 
REMARK    5  A    between atoms: C19_22  and  O20_23 
ROOT
HETATM    1  O1          0      24.289  72.132  26.570  1.00  0.00    -0.286 OA
HETATM    2  C2          0      24.754  72.805  25.609  1.00  0.00     0.201 C 
HETATM    3  C3          0      24.008  73.127  24.488  1.00  0.00     0.067 C 
HETATM    4  C4          0      24.573  73.779  23.399  1.00  0.00     0.103 C 
HETATM    5  O13         0      25.851  74.114  23.453  1.00  0.00    -0.307 OA
HETATM    6  C14         0      26.613  73.799  24.476  1.00  0.00     0.107 C 
HETATM    7  C15         0      27.997  73.781  24.379  1.00  0.00     0.049 C 
HETATM    8  C16         0      28.783  73.208  25.371  1.00  0.00     0.093 C 
HETATM    9  C18         0      28.196  73.158  26.630  1.00  0.00     0.048 C 
HETATM   10  C19         0      26.816  73.221  26.767  1.00  0.00     0.096 C 
HETATM   11  C21         0      26.028  73.350  25.655  1.00  0.00     0.084 C 
ENDROOT
BRANCH  10  12
HETATM   12  O20         0      26.225  72.742  27.933  1.00  0.00    -0.359 OA
HETATM   13  H20         0      25.277  72.703  27.968  1.00  0.00     0.218 HD
ENDBRANCH  10  12
BRANCH   4  14
HETATM   14  C5          0      23.959  73.554  22.089  1.00  0.00     0.025 C 
HETATM   15  C6          0      24.693  73.218  20.962  1.00  0.00     0.004 C 
HETATM   16  C7          0      24.136  72.296  20.081  1.00  0.00     0.026 C 
HETATM   17  C8          0      22.838  71.825  20.243  1.00  0.00     0.112 C 
HETATM   18  C10         0      22.005  72.660  20.976  1.00  0.00     0.112 C 
HETATM   19  C12         0      22.582  73.511  21.911  1.00  0.00     0.028 C 
BRANCH  17  20
HETATM   20  O9          0      22.501  70.534  19.875  1.00  0.00    -0.357 OA
HETATM   21  H9          0      22.851  69.757  20.296  1.00  0.00     0.218 HD
ENDBRANCH  17  20
BRANCH  18  22
HETATM   22  O11         0      20.657  72.333  21.008  1.00  0.00    -0.357 OA
HETATM   23  H11         0      20.073  72.956  21.424  1.00  0.00     0.218 HD
ENDBRANCH  18  22
ENDBRANCH   4  14
BRANCH   8  24
HETATM   24  O17         0      29.915  72.447  25.057  1.00  0.00    -0.359 OA
HETATM   25  H17         0      30.662  72.826  24.608  1.00  0.00     0.218 HD
ENDBRANCH   8  24
TORSDOF 5
ENDMDL
MODEL 7
REMARK VINA RESULT:      -3.4      1.863      3.029
REMARK  5 active torsions:
REMARK  status: ('A' for Active; 'I' for Inactive)
REMARK    1  A    between atoms: C4_4  and  C5_5 
REMARK    2  A    between atoms: C8_8  and  O9_9 
REMARK    3  A    between atoms: C10_11  and  O11_12 
REMARK    4  A    between atoms: C16_18  and  O17_19 
REMARK    5  A    between atoms: C19_22  and  O20_23 
ROOT
HETATM    1  O1          0      24.825  72.499  26.027  1.00  0.00    -0.286 OA
HETATM    2  C2          0      25.176  73.251  25.077  1.00  0.00     0.201 C 
HETATM    3  C3          0      26.329  74.016  25.112  1.00  0.00     0.067 C 
HETATM    4  C4          0      26.640  74.913  24.097  1.00  0.00     0.103 C 
HETATM    5  O13         0      25.818  75.016  23.068  1.00  0.00    -0.307 OA
HETATM    6  C14         0      24.691  74.341  23.002  1.00  0.00     0.107 C 
HETATM    7  C15         0      23.657  74.724  22.161  1.00  0.00     0.049 C 
HETATM    8  C16         0      22.388  74.169  22.278  1.00  0.00     0.093 C 
HETATM    9  C18         0      22.350  72.908  22.862  1.00  0.00     0.048 C 
HETATM   10  C19         0      23.391  72.475  23.672  1.00  0.00     0.096 C 
HETATM   11  C21         0      24.470  73.288  23.884  1.00  0.00     0.084 C 
ENDROOT
BRANCH  10  12
HETATM   12  O20         0      23.163  71.443  24.578  1.00  0.00    -0.359 OA
HETATM   13  H20         0      23.906  70.921  24.853  1.00  0.00     0.218 HD
ENDBRANCH  10  12
BRANCH   4  14
HETATM   14  C5          0      27.473  76.064  24.451  1.00  0.00     0.025 C 
HETATM   15  C6          0      28.859  76.012  24.469  1.00  0.00     0.004 C 
HETATM   16  C7          0      29.552  77.130  24.017  1.00  0.00     0.026 C 
HETATM   17  C8          0      28.895  78.310  23.684  1.00  0.00     0.112 C 
HETATM   18  C10         0      27.653  78.471  24.284  1.00  0.00     0.112 C 
HETATM   19  C12         0      26.944  77.333  24.649  1.00  0.00     0.028 C 
BRANCH  17  20
HETATM   20  O9          0      29.372  79.127  22.674  1.00  0.00    -0.357 OA
HETATM   21  H9          0      29.530  78.830  21.786  1.00  0.00     0.218 HD
ENDBRANCH  17  20
BRANCH  18  22
HETATM   22  O11         0      27.040  79.708  24.138  1.00  0.00    -0.357 OA
HETATM   23  H11         0      27.484  80.346  23.591  1.00  0.00     0.218 HD
ENDBRANCH  18  22
ENDBRANCH   4  14
BRANCH   8  24
HETATM   24  O17         0      21.235  74.949  22.136  1.00  0.00    -0.359 OA
HETATM   25  H17         0      20.533  74.700  21.546  1.00  0.00     0.218 HD
ENDBRANCH   8  24
TORSDOF 5
ENDMDL
MODEL 8
REMARK VINA RESULT:      -3.1      1.918      3.050
REMARK  5 active torsions:
REMARK  status: ('A' for Active; 'I' for Inactive)
REMARK    1  A    between atoms: C4_4  and  C5_5 
REMARK    2  A    between atoms: C8_8  and  O9_9 
REMARK    3  A    between atoms: C10_11  and  O11_12 
REMARK    4  A    between atoms: C16_18  and  O17_19 
REMARK    5  A    between atoms: C19_22  and  O20_23 
ROOT
HETATM    1  O1          0      22.396  77.005  23.468  1.00  0.00    -0.286 OA
HETATM    2  C2          0      23.431  76.296  23.596  1.00  0.00     0.201 C 
HETATM    3  C3          0      24.569  76.741  24.248  1.00  0.00     0.067 C 
HETATM    4  C4          0      25.731  75.980  24.286  1.00  0.00     0.103 C 
HETATM    5  O13         0      25.734  74.795  23.701  1.00  0.00    -0.307 OA
HETATM    6  C14         0      24.693  74.341  23.037  1.00  0.00     0.107 C 
HETATM    7  C15         0      24.809  73.318  22.107  1.00  0.00     0.049 C 
HETATM    8  C16         0      23.771  73.018  21.232  1.00  0.00     0.093 C 
HETATM    9  C18         0      22.506  73.389  21.672  1.00  0.00     0.048 C 
HETATM   10  C19         0      22.356  74.376  22.637  1.00  0.00     0.096 C 
HETATM   11  C21         0      23.463  74.977  23.171  1.00  0.00     0.084 C 
ENDROOT
BRANCH  10  12
HETATM   12  O20         0      21.137  75.036  22.751  1.00  0.00    -0.359 OA
HETATM   13  H20         0      20.355  74.510  22.871  1.00  0.00     0.218 HD
ENDBRANCH  10  12
BRANCH   4  14
HETATM   14  C5          0      26.999  76.699  24.426  1.00  0.00     0.025 C 
HETATM   15  C6          0      28.232  76.065  24.376  1.00  0.00     0.004 C 
HETATM   16  C7          0      29.271  76.729  23.731  1.00  0.00     0.026 C 
HETATM   17  C8          0      29.129  78.033  23.270  1.00  0.00     0.112 C 
HETATM   18  C10         0      28.139  78.769  23.907  1.00  0.00     0.112 C 
HETATM   19  C12         0      27.068  78.085  24.470  1.00  0.00     0.028 C 
BRANCH  17  20
HETATM   20  O9          0      29.788  78.458  22.129  1.00  0.00    -0.357 OA
HETATM   21  H9          0      30.419  77.928  21.656  1.00  0.00     0.218 HD
ENDBRANCH  17  20
BRANCH  18  22
HETATM   22  O11         0      28.081  80.125  23.621  1.00  0.00    -0.357 OA
HETATM   23  H11         0      28.471  80.716  24.254  1.00  0.00     0.218 HD
ENDBRANCH  18  22
ENDBRANCH   4  14
BRANCH   8  24
HETATM   24  O17         0      24.018  72.688  19.895  1.00  0.00    -0.359 OA
HETATM   25  H17         0      24.454  73.290  19.304  1.00  0.00     0.218 HD
ENDBRANCH   8  24
TORSDOF 5
ENDMDL
MODEL 9
REMARK VINA RESULT:      -3.1      3.216      4.577
REMARK  5 active torsions:
REMARK  status: ('A' for Active; 'I' for Inactive)
REMARK    1  A    between atoms: C4_4  and  C5_5 
REMARK    2  A    between atoms: C8_8  and  O9_9 
REMARK    3  A    between atoms: C10_11  and  O11_12 
REMARK    4  A    between atoms: C16_18  and  O17_19 
REMARK    5  A    between atoms: C19_22  and  O20_23 
ROOT
HETATM    1  O1          0      20.756  69.999  22.168  1.00  0.00    -0.286 OA
HETATM    2  C2          0      21.050  71.203  21.936  1.00  0.00     0.201 C 
HETATM    3  C3          0      22.356  71.659  21.878  1.00  0.00     0.067 C 
HETATM    4  C4          0      22.651  73.009  21.723  1.00  0.00     0.103 C 
HETATM    5  O13         0      21.653  73.867  21.607  1.00  0.00    -0.307 OA
HETATM    6  C14         0      20.395  73.492  21.692  1.00  0.00     0.107 C 
HETATM    7  C15         0      19.381  74.396  21.972  1.00  0.00     0.049 C 
HETATM    8  C16         0      18.104  73.965  22.312  1.00  0.00     0.093 C 
HETATM    9  C18         0      17.769  72.699  21.848  1.00  0.00     0.048 C 
HETATM   10  C19         0      18.760  71.785  21.514  1.00  0.00     0.096 C 
HETATM   11  C21         0      20.076  72.140  21.626  1.00  0.00     0.084 C 
ENDROOT
BRANCH  10  12
HETATM   12  O20         0      18.450  70.429  21.478  1.00  0.00    -0.359 OA
HETATM   13  H20         0      17.831  70.131  20.823  1.00  0.00     0.218 HD
ENDBRANCH  10  12
BRANCH   4  14
HETATM   14  C5          0      23.929  73.481  22.258  1.00  0.00     0.025 C 
HETATM   15  C6          0      24.805  74.271  21.528  1.00  0.00     0.004 C 
HETATM   16  C7          0      25.480  75.281  22.205  1.00  0.00     0.026 C 
HETATM   17  C8          0      25.393  75.418  23.586  1.00  0.00     0.112 C 
HETATM   18  C10         0      25.040  74.258  24.263  1.00  0.00     0.112 C 
HETATM   19  C12         0      24.291  73.301  23.587  1.00  0.00     0.028 C 
BRANCH  17  20
HETATM   20  O9          0      25.448  76.667  24.180  1.00  0.00    -0.357 OA
HETATM   21  H9          0      25.717  77.456  23.724  1.00  0.00     0.218 HD
ENDBRANCH  17  20
BRANCH  18  22
HETATM   22  O11         0      25.122  74.288  25.647  1.00  0.00    -0.357 OA
HETATM   23  H11         0      24.353  74.007  26.130  1.00  0.00     0.218 HD
ENDBRANCH  18  22
ENDBRANCH   4  14
BRANCH   8  24
HETATM   24  O17         0      17.361  74.603  23.311  1.00  0.00    -0.359 OA
HETATM   25  H17         0      16.531  75.027  23.123  1.00  0.00     0.218 HD
ENDBRANCH   8  24
TORSDOF 5
ENDMDL
