MODEL 1
REMARK VINA RESULT:      -5.9      0.000      0.000
REMARK  5 active torsions:
REMARK  status: ('A' for Active; 'I' for Inactive)
REMARK    1  A    between atoms: C4_4  and  C5_5 
REMARK    2  A    between atoms: C8_8  and  O9_9 
REMARK    3  A    between atoms: C10_11  and  O11_12 
REMARK    4  A    between atoms: C16_18  and  O17_19 
REMARK    5  A    between atoms: C19_22  and  O20_23 
ROOT
HETATM    1  O1          0      27.151  24.066   4.026  1.00  0.00    -0.286 OA
HETATM    2  C2          0      26.589  22.970   3.753  1.00  0.00     0.201 C 
HETATM    3  C3          0      26.187  22.070   4.726  1.00  0.00     0.067 C 
HETATM    4  C4          0      25.664  20.826   4.395  1.00  0.00     0.103 C 
HETATM    5  O13         0      25.531  20.511   3.118  1.00  0.00    -0.307 OA
HETATM    6  C14         0      25.931  21.313   2.156  1.00  0.00     0.107 C 
HETATM    7  C15         0      26.168  20.850   0.870  1.00  0.00     0.049 C 
HETATM    8  C16         0      26.828  21.634  -0.069  1.00  0.00     0.093 C 
HETATM    9  C18         0      26.748  23.004   0.150  1.00  0.00     0.048 C 
HETATM   10  C19         0      26.466  23.501   1.415  1.00  0.00     0.096 C 
HETATM   11  C21         0      26.249  22.635   2.452  1.00  0.00     0.084 C 
ENDROOT
BRANCH  10  12
HETATM   12  O20         0      26.812  24.813   1.723  1.00  0.00    -0.359 OA
HETATM   13  H20         0      26.416  25.509   1.213  1.00  0.00     0.218 HD
ENDBRANCH  10  12
BRANCH   4  14
HETATM   14  C5          0      25.829  19.748   5.373  1.00  0.00     0.025 C 
HETATM   15  C6          0      25.626  18.412   5.060  1.00  0.00     0.004 C 
HETATM   16  C7          0      26.487  17.479   5.629  1.00  0.00     0.026 C 
HETATM   17  C8          0      27.432  17.845   6.581  1.00  0.00     0.112 C 
HETATM   18  C10         0      27.140  19.015   7.269  1.00  0.00     0.112 C 
HETATM   19  C12         0      26.346  19.968   6.643  1.00  0.00     0.028 C 
BRANCH  17  20
HETATM   20  O9          0      28.650  17.192   6.658  1.00  0.00    -0.357 OA
HETATM   21  H9          0      28.772  16.352   7.085  1.00  0.00     0.218 HD
ENDBRANCH  17  20
BRANCH  18  22
HETATM   22  O11         0      27.947  19.324   8.354  1.00  0.00    -0.357 OA
HETATM   23  H11         0      28.585  20.018   8.232  1.00  0.00     0.218 HD
ENDBRANCH  18  22
ENDBRANCH   4  14
BRANCH   8  24
HETATM   24  O17         0      27.765  21.083  -0.950  1.00  0.00    -0.359 OA
HETATM   25  H17         0      27.662  21.148  -1.893  1.00  0.00     0.218 HD
ENDBRANCH   8  24
TORSDOF 5
ENDMDL
MODEL 2
REMARK VINA RESULT:      -5.6      3.017      3.656
REMARK  5 active torsions:
REMARK  status: ('A' for Active; 'I' for Inactive)
REMARK    1  A    between atoms: C4_4  and  C5_5 
REMARK    2  A    between atoms: C8_8  and  O9_9 
REMARK    3  A    between atoms: C10_11  and  O11_12 
REMARK    4  A    between atoms: C16_18  and  O17_19 
REMARK    5  A    between atoms: C19_22  and  O20_23 
ROOT
HETATM    1  O1          0      25.287  23.834   5.234  1.00  0.00    -0.286 OA
HETATM    2  C2          0      25.200  22.717   4.654  1.00  0.00     0.201 C 
HETATM    3  C3          0      24.136  21.852   4.847  1.00  0.00     0.067 C 
HETATM    4  C4          0      24.115  20.585   4.275  1.00  0.00     0.103 C 
HETATM    5  O13         0      25.130  20.214   3.515  1.00  0.00    -0.307 OA
HETATM    6  C14         0      26.181  20.982   3.330  1.00  0.00     0.107 C 
HETATM    7  C15         0      27.392  20.469   2.886  1.00  0.00     0.049 C 
HETATM    8  C16         0      28.557  21.224   2.935  1.00  0.00     0.093 C 
HETATM    9  C18         0      28.365  22.600   2.928  1.00  0.00     0.048 C 
HETATM   10  C19         0      27.151  23.145   3.321  1.00  0.00     0.096 C 
HETATM   11  C21         0      26.128  22.320   3.703  1.00  0.00     0.084 C 
ENDROOT
BRANCH  10  12
HETATM   12  O20         0      27.101  24.476   3.726  1.00  0.00    -0.359 OA
HETATM   13  H20         0      27.252  25.146   3.070  1.00  0.00     0.218 HD
ENDBRANCH  10  12
BRANCH   4  14
HETATM   14  C5          0      23.335  19.554   4.963  1.00  0.00     0.025 C 
HETATM   15  C6          0      23.890  18.362   5.406  1.00  0.00     0.004 C 
HETATM   16  C7          0      23.446  17.858   6.624  1.00  0.00     0.026 C 
HETATM   17  C8          0      22.390  18.444   7.315  1.00  0.00     0.112 C 
HETATM   18  C10         0      21.525  19.190   6.526  1.00  0.00     0.112 C 
HETATM   19  C12         0      22.018  19.754   5.355  1.00  0.00     0.028 C 
BRANCH  17  20
HETATM   20  O9          0      22.359  18.440   8.698  1.00  0.00    -0.357 OA
HETATM   21  H9          0      21.576  18.264   9.208  1.00  0.00     0.218 HD
ENDBRANCH  17  20
BRANCH  18  22
HETATM   22  O11         0      20.356  19.638   7.126  1.00  0.00    -0.357 OA
HETATM   23  H11         0      19.797  18.980   7.523  1.00  0.00     0.218 HD
ENDBRANCH  18  22
ENDBRANCH   4  14
BRANCH   8  24
HETATM   24  O17         0      29.781  20.654   3.303  1.00  0.00    -0.359 OA
HETATM   25  H17         0      29.993  19.751   3.097  1.00  0.00     0.218 HD
ENDBRANCH   8  24
TORSDOF 5
ENDMDL
MODEL 3
REMARK VINA RESULT:      -5.5      2.864      5.957
REMARK  5 active torsions:
REMARK  status: ('A' for Active; 'I' for Inactive)
REMARK    1  A    between atoms: C4_4  and  C5_5 
REMARK    2  A    between atoms: C8_8  and  O9_9 
REMARK    3  A    between atoms: C10_11  and  O11_12 
REMARK    4  A    between atoms: C16_18  and  O17_19 
REMARK    5  A    between atoms: C19_22  and  O20_23 
ROOT
HETATM    1  O1          0      25.307  23.733   4.906  1.00  0.00    -0.286 OA
HETATM    2  C2          0      25.546  22.614   4.375  1.00  0.00     0.201 C 
HETATM    3  C3          0      26.619  22.399   3.527  1.00  0.00     0.067 C 
HETATM    4  C4          0      26.800  21.185   2.874  1.00  0.00     0.103 C 
HETATM    5  O13         0      25.933  20.212   3.090  1.00  0.00    -0.307 OA
HETATM    6  C14         0      24.876  20.375   3.856  1.00  0.00     0.107 C 
HETATM    7  C15         0      23.778  19.532   3.776  1.00  0.00     0.049 C 
HETATM    8  C16         0      22.575  19.852   4.394  1.00  0.00     0.093 C 
HETATM    9  C18         0      22.684  20.715   5.477  1.00  0.00     0.048 C 
HETATM   10  C19         0      23.792  21.540   5.614  1.00  0.00     0.096 C 
HETATM   11  C21         0      24.794  21.490   4.683  1.00  0.00     0.084 C 
ENDROOT
BRANCH  10  12
HETATM   12  O20         0      23.702  22.674   6.416  1.00  0.00    -0.359 OA
HETATM   13  H20         0      22.989  23.279   6.252  1.00  0.00     0.218 HD
ENDBRANCH  10  12
BRANCH   4  14
HETATM   14  C5          0      27.529  21.210   1.604  1.00  0.00     0.025 C 
HETATM   15  C6          0      27.048  20.611   0.449  1.00  0.00     0.004 C 
HETATM   16  C7          0      27.263  21.271  -0.757  1.00  0.00     0.026 C 
HETATM   17  C8          0      28.046  22.418  -0.831  1.00  0.00     0.112 C 
HETATM   18  C10         0      28.964  22.561   0.201  1.00  0.00     0.112 C 
HETATM   19  C12         0      28.683  21.962   1.423  1.00  0.00     0.028 C 
BRANCH  17  20
HETATM   20  O9          0      27.759  23.414  -1.748  1.00  0.00    -0.357 OA
HETATM   21  H9          0      27.179  24.145  -1.569  1.00  0.00     0.218 HD
ENDBRANCH  17  20
BRANCH  18  22
HETATM   22  O11         0      29.895  23.583   0.077  1.00  0.00    -0.357 OA
HETATM   23  H11         0      30.766  23.414   0.416  1.00  0.00     0.218 HD
ENDBRANCH  18  22
ENDBRANCH   4  14
BRANCH   8  24
HETATM   24  O17         0      21.346  19.602   3.772  1.00  0.00    -0.359 OA
HETATM   25  H17         0      20.634  20.229   3.805  1.00  0.00     0.218 HD
ENDBRANCH   8  24
TORSDOF 5
ENDMDL
MODEL 4
REMARK VINA RESULT:      -5.5      2.630      6.531
REMARK  5 active torsions:
REMARK  status: ('A' for Active; 'I' for Inactive)
REMARK    1  A    between atoms: C4_4  and  C5_5 
REMARK    2  A    between atoms: C8_8  and  O9_9 
REMARK    3  A    between atoms: C10_11  and  O11_12 
REMARK    4  A    between atoms: C16_18  and  O17_19 
REMARK    5  A    between atoms: C19_22  and  O20_23 
ROOT
HETATM    1  O1          0      26.148  19.316   6.915  1.00  0.00    -0.286 OA
HETATM    2  C2          0      25.598  19.773   5.875  1.00  0.00     0.201 C 
HETATM    3  C3          0      26.291  20.483   4.910  1.00  0.00     0.067 C 
HETATM    4  C4          0      25.642  21.064   3.827  1.00  0.00     0.103 C 
HETATM    5  O13         0      24.334  20.912   3.714  1.00  0.00    -0.307 OA
HETATM    6  C14         0      23.624  20.279   4.621  1.00  0.00     0.107 C 
HETATM    7  C15         0      22.251  20.453   4.727  1.00  0.00     0.049 C 
HETATM    8  C16         0      21.548  19.991   5.833  1.00  0.00     0.093 C 
HETATM    9  C18         0      22.147  18.936   6.510  1.00  0.00     0.048 C 
HETATM   10  C19         0      23.511  18.704   6.390  1.00  0.00     0.096 C 
HETATM   11  C21         0      24.268  19.510   5.584  1.00  0.00     0.084 C 
ENDROOT
BRANCH  10  12
HETATM   12  O20         0      24.164  17.962   7.369  1.00  0.00    -0.359 OA
HETATM   13  H20         0      24.988  18.294   7.703  1.00  0.00     0.218 HD
ENDBRANCH  10  12
BRANCH   4  14
HETATM   14  C5          0      26.269  22.241   3.223  1.00  0.00     0.025 C 
HETATM   15  C6          0      27.317  22.926   3.821  1.00  0.00     0.004 C 
HETATM   16  C7          0      28.325  23.412   2.995  1.00  0.00     0.026 C 
HETATM   17  C8          0      28.231  23.340   1.610  1.00  0.00     0.112 C 
HETATM   18  C10         0      26.935  23.239   1.121  1.00  0.00     0.112 C 
HETATM   19  C12         0      25.964  22.670   1.937  1.00  0.00     0.028 C 
BRANCH  17  20
HETATM   20  O9          0      29.361  23.170   0.830  1.00  0.00    -0.357 OA
HETATM   21  H9          0      30.110  23.755   0.852  1.00  0.00     0.218 HD
ENDBRANCH  17  20
BRANCH  18  22
HETATM   22  O11         0      26.770  23.354  -0.252  1.00  0.00    -0.357 OA
HETATM   23  H11         0      26.055  23.901  -0.555  1.00  0.00     0.218 HD
ENDBRANCH  18  22
ENDBRANCH   4  14
BRANCH   8  24
HETATM   24  O17         0      20.513  20.739   6.405  1.00  0.00    -0.359 OA
HETATM   25  H17         0      20.170  21.519   5.984  1.00  0.00     0.218 HD
ENDBRANCH   8  24
TORSDOF 5
ENDMDL
MODEL 5
REMARK VINA RESULT:      -5.4      2.413      3.134
REMARK  5 active torsions:
REMARK  status: ('A' for Active; 'I' for Inactive)
REMARK    1  A    between atoms: C4_4  and  C5_5 
REMARK    2  A    between atoms: C8_8  and  O9_9 
REMARK    3  A    between atoms: C10_11  and  O11_12 
REMARK    4  A    between atoms: C16_18  and  O17_19 
REMARK    5  A    between atoms: C19_22  and  O20_23 
ROOT
HETATM    1  O1          0      27.933  24.256   3.688  1.00  0.00    -0.286 OA
HETATM    2  C2          0      27.247  23.236   3.406  1.00  0.00     0.201 C 
HETATM    3  C3          0      26.118  22.869   4.119  1.00  0.00     0.067 C 
HETATM    4  C4          0      25.440  21.686   3.852  1.00  0.00     0.103 C 
HETATM    5  O13         0      25.878  20.909   2.878  1.00  0.00    -0.307 OA
HETATM    6  C14         0      26.966  21.191   2.194  1.00  0.00     0.107 C 
HETATM    7  C15         0      27.647  20.222   1.471  1.00  0.00     0.049 C 
HETATM    8  C16         0      28.920  20.460   0.966  1.00  0.00     0.093 C 
HETATM    9  C18         0      29.226  21.799   0.755  1.00  0.00     0.048 C 
HETATM   10  C19         0      28.532  22.797   1.426  1.00  0.00     0.096 C 
HETATM   11  C21         0      27.527  22.460   2.292  1.00  0.00     0.084 C 
ENDROOT
BRANCH  10  12
HETATM   12  O20         0      29.106  24.058   1.553  1.00  0.00    -0.359 OA
HETATM   13  H20         0      28.703  24.779   1.085  1.00  0.00     0.218 HD
ENDBRANCH  10  12
BRANCH   4  14
HETATM   14  C5          0      24.691  21.079   4.954  1.00  0.00     0.025 C 
HETATM   15  C6          0      23.538  21.643   5.481  1.00  0.00     0.004 C 
HETATM   16  C7          0      22.512  20.782   5.856  1.00  0.00     0.026 C 
HETATM   17  C8          0      22.675  19.401   5.835  1.00  0.00     0.112 C 
HETATM   18  C10         0      23.993  18.971   5.915  1.00  0.00     0.112 C 
HETATM   19  C12         0      24.993  19.819   5.455  1.00  0.00     0.028 C 
BRANCH  17  20
HETATM   20  O9          0      21.611  18.566   5.542  1.00  0.00    -0.357 OA
HETATM   21  H9          0      20.937  18.330   6.168  1.00  0.00     0.218 HD
ENDBRANCH  17  20
BRANCH  18  22
HETATM   22  O11         0      24.200  17.610   6.089  1.00  0.00    -0.357 OA
HETATM   23  H11         0      23.569  17.144   6.625  1.00  0.00     0.218 HD
ENDBRANCH  18  22
ENDBRANCH   4  14
BRANCH   8  24
HETATM   24  O17         0      29.912  19.474   0.995  1.00  0.00    -0.359 OA
HETATM   25  H17         0      30.512  19.348   0.269  1.00  0.00     0.218 HD
ENDBRANCH   8  24
TORSDOF 5
ENDMDL
MODEL 6
REMARK VINA RESULT:      -5.4      2.402      5.994
REMARK  5 active torsions:
REMARK  status: ('A' for Active; 'I' for Inactive)
REMARK    1  A    between atoms: C4_4  and  C5_5 
REMARK    2  A    between atoms: C8_8  and  O9_9 
REMARK    3  A    between atoms: C10_11  and  O11_12 
REMARK    4  A    between atoms: C16_18  and  O17_19 
REMARK    5  A    between atoms: C19_22  and  O20_23 
ROOT
HETATM    1  O1          0      23.000  21.856   5.960  1.00  0.00    -0.286 OA
HETATM    2  C2          0      24.010  21.237   5.527  1.00  0.00     0.201 C 
HETATM    3  C3          0      25.177  21.877   5.147  1.00  0.00     0.067 C 
HETATM    4  C4          0      26.237  21.182   4.577  1.00  0.00     0.103 C 
HETATM    5  O13         0      26.126  19.875   4.417  1.00  0.00    -0.307 OA
HETATM    6  C14         0      25.026  19.224   4.725  1.00  0.00     0.107 C 
HETATM    7  C15         0      24.750  17.967   4.206  1.00  0.00     0.049 C 
HETATM    8  C16         0      23.488  17.398   4.326  1.00  0.00     0.093 C 
HETATM    9  C18         0      22.733  17.866   5.394  1.00  0.00     0.048 C 
HETATM   10  C19         0      23.011  19.099   5.969  1.00  0.00     0.096 C 
HETATM   11  C21         0      24.049  19.851   5.491  1.00  0.00     0.084 C 
ENDROOT
BRANCH  10  12
HETATM   12  O20         0      22.025  19.743   6.708  1.00  0.00    -0.359 OA
HETATM   13  H20         0      21.431  20.325   6.248  1.00  0.00     0.218 HD
ENDBRANCH  10  12
BRANCH   4  14
HETATM   14  C5          0      27.125  21.929   3.684  1.00  0.00     0.025 C 
HETATM   15  C6          0      28.175  21.335   2.999  1.00  0.00     0.004 C 
HETATM   16  C7          0      28.424  21.768   1.701  1.00  0.00     0.026 C 
HETATM   17  C8          0      27.742  22.846   1.148  1.00  0.00     0.112 C 
HETATM   18  C10         0      27.211  23.733   2.075  1.00  0.00     0.112 C 
HETATM   19  C12         0      26.892  23.254   3.340  1.00  0.00     0.028 C 
BRANCH  17  20
HETATM   20  O9          0      27.453  22.884  -0.205  1.00  0.00    -0.357 OA
HETATM   21  H9          0      27.816  22.277  -0.839  1.00  0.00     0.218 HD
ENDBRANCH  17  20
BRANCH  18  22
HETATM   22  O11         0      26.687  24.919   1.581  1.00  0.00    -0.357 OA
HETATM   23  H11         0      27.054  25.246   0.767  1.00  0.00     0.218 HD
ENDBRANCH  18  22
ENDBRANCH   4  14
BRANCH   8  24
HETATM   24  O17         0      22.910  16.678   3.275  1.00  0.00    -0.359 OA
HETATM   25  H17         0      22.037  16.310   3.343  1.00  0.00     0.218 HD
ENDBRANCH   8  24
TORSDOF 5
ENDMDL
MODEL 7
REMARK VINA RESULT:      -5.4      2.976      4.053
REMARK  5 active torsions:
REMARK  status: ('A' for Active; 'I' for Inactive)
REMARK    1  A    between atoms: C4_4  and  C5_5 
REMARK    2  A    between atoms: C8_8  and  O9_9 
REMARK    3  A    between atoms: C10_11  and  O11_12 
REMARK    4  A    between atoms: C16_18  and  O17_19 
REMARK    5  A    between atoms: C19_22  and  O20_23 
ROOT
HETATM    1  O1          0      28.214  19.354   3.279  1.00  0.00    -0.286 OA
HETATM    2  C2          0      27.289  20.065   3.759  1.00  0.00     0.201 C 
HETATM    3  C3          0      26.256  19.540   4.517  1.00  0.00     0.067 C 
HETATM    4  C4          0      25.195  20.329   4.947  1.00  0.00     0.103 C 
HETATM    5  O13         0      25.192  21.613   4.637  1.00  0.00    -0.307 OA
HETATM    6  C14         0      26.128  22.153   3.888  1.00  0.00     0.107 C 
HETATM    7  C15         0      25.935  23.363   3.236  1.00  0.00     0.049 C 
HETATM    8  C16         0      26.815  23.801   2.254  1.00  0.00     0.093 C 
HETATM    9  C18         0      28.101  23.281   2.343  1.00  0.00     0.048 C 
HETATM   10  C19         0      28.337  22.097   3.029  1.00  0.00     0.096 C 
HETATM   11  C21         0      27.298  21.446   3.636  1.00  0.00     0.084 C 
ENDROOT
BRANCH  10  12
HETATM   12  O20         0      29.492  21.371   2.754  1.00  0.00    -0.359 OA
HETATM   13  H20         0      30.302  21.852   2.636  1.00  0.00     0.218 HD
ENDBRANCH  10  12
BRANCH   4  14
HETATM   14  C5          0      23.915  19.658   5.185  1.00  0.00     0.025 C 
HETATM   15  C6          0      23.823  18.328   5.570  1.00  0.00     0.004 C 
HETATM   16  C7          0      22.840  17.992   6.495  1.00  0.00     0.026 C 
HETATM   17  C8          0      21.893  18.917   6.922  1.00  0.00     0.112 C 
HETATM   18  C10         0      21.675  19.970   6.044  1.00  0.00     0.112 C 
HETATM   19  C12         0      22.706  20.341   5.189  1.00  0.00     0.028 C 
BRANCH  17  20
HETATM   20  O9          0      21.390  18.873   8.210  1.00  0.00    -0.357 OA
HETATM   21  H9          0      21.001  18.098   8.599  1.00  0.00     0.218 HD
ENDBRANCH  17  20
BRANCH  18  22
HETATM   22  O11         0      20.612  20.816   6.329  1.00  0.00    -0.357 OA
HETATM   23  H11         0      19.889  20.820   5.712  1.00  0.00     0.218 HD
ENDBRANCH  18  22
ENDBRANCH   4  14
BRANCH   8  24
HETATM   24  O17         0      26.356  24.433   1.093  1.00  0.00    -0.359 OA
HETATM   25  H17         0      25.651  25.069   1.116  1.00  0.00     0.218 HD
ENDBRANCH   8  24
TORSDOF 5
ENDMDL
MODEL 8
REMARK VINA RESULT:      -5.2      2.808      4.171
REMARK  5 active torsions:
REMARK  status: ('A' for Active; 'I' for Inactive)
REMARK    1  A    between atoms: C4_4  and  C5_5 
REMARK    2  A    between atoms: C8_8  and  O9_9 
REMARK    3  A    between atoms: C10_11  and  O11_12 
REMARK    4  A    between atoms: C16_18  and  O17_19 
REMARK    5  A    between atoms: C19_22  and  O20_23 
ROOT
HETATM    1  O1          0      28.007  19.440   3.509  1.00  0.00    -0.286 OA
HETATM    2  C2          0      27.152  20.248   3.964  1.00  0.00     0.201 C 
HETATM    3  C3          0      26.138  19.862   4.824  1.00  0.00     0.067 C 
HETATM    4  C4          0      25.149  20.751   5.228  1.00  0.00     0.103 C 
HETATM    5  O13         0      25.198  21.997   4.791  1.00  0.00    -0.307 OA
HETATM    6  C14         0      26.117  22.406   3.944  1.00  0.00     0.107 C 
HETATM    7  C15         0      25.953  23.555   3.185  1.00  0.00     0.049 C 
HETATM    8  C16         0      26.796  23.843   2.119  1.00  0.00     0.093 C 
HETATM    9  C18         0      28.055  23.258   2.192  1.00  0.00     0.048 C 
HETATM   10  C19         0      28.265  22.134   2.979  1.00  0.00     0.096 C 
HETATM   11  C21         0      27.230  21.607   3.702  1.00  0.00     0.084 C 
ENDROOT
BRANCH  10  12
HETATM   12  O20         0      29.360  21.316   2.718  1.00  0.00    -0.359 OA
HETATM   13  H20         0      30.175  21.506   3.168  1.00  0.00     0.218 HD
ENDBRANCH  10  12
BRANCH   4  14
HETATM   14  C5          0      23.850  20.185   5.599  1.00  0.00     0.025 C 
HETATM   15  C6          0      22.675  20.921   5.577  1.00  0.00     0.004 C 
HETATM   16  C7          0      21.520  20.278   5.144  1.00  0.00     0.026 C 
HETATM   17  C8          0      21.503  18.914   4.871  1.00  0.00     0.112 C 
HETATM   18  C10         0      22.495  18.183   5.510  1.00  0.00     0.112 C 
HETATM   19  C12         0      23.675  18.831   5.855  1.00  0.00     0.028 C 
BRANCH  17  20
HETATM   20  O9          0      20.689  18.401   3.877  1.00  0.00    -0.357 OA
HETATM   21  H9          0      20.418  18.892   3.110  1.00  0.00     0.218 HD
ENDBRANCH  17  20
BRANCH  18  22
HETATM   22  O11         0      22.410  16.800   5.424  1.00  0.00    -0.357 OA
HETATM   23  H11         0      21.538  16.424   5.389  1.00  0.00     0.218 HD
ENDBRANCH  18  22
ENDBRANCH   4  14
BRANCH   8  24
HETATM   24  O17         0      26.306  24.387   0.927  1.00  0.00    -0.359 OA
HETATM   25  H17         0      25.962  25.271   0.886  1.00  0.00     0.218 HD
ENDBRANCH   8  24
TORSDOF 5
ENDMDL
MODEL 9
REMARK VINA RESULT:      -5.2      1.770      6.763
REMARK  5 active torsions:
REMARK  status: ('A' for Active; 'I' for Inactive)
REMARK    1  A    between atoms: C4_4  and  C5_5 
REMARK    2  A    between atoms: C8_8  and  O9_9 
REMARK    3  A    between atoms: C10_11  and  O11_12 
REMARK    4  A    between atoms: C16_18  and  O17_19 
REMARK    5  A    between atoms: C19_22  and  O20_23 
ROOT
HETATM    1  O1          0      29.070  18.073   5.543  1.00  0.00    -0.286 OA
HETATM    2  C2          0      27.969  18.479   5.080  1.00  0.00     0.201 C 
HETATM    3  C3          0      27.880  19.460   4.107  1.00  0.00     0.067 C 
HETATM    4  C4          0      26.653  19.962   3.688  1.00  0.00     0.103 C 
HETATM    5  O13         0      25.550  19.470   4.223  1.00  0.00    -0.307 OA
HETATM    6  C14         0      25.579  18.565   5.177  1.00  0.00     0.107 C 
HETATM    7  C15         0      24.490  18.342   6.007  1.00  0.00     0.049 C 
HETATM    8  C16         0      24.607  17.578   7.162  1.00  0.00     0.093 C 
HETATM    9  C18         0      25.648  16.657   7.154  1.00  0.00     0.048 C 
HETATM   10  C19         0      26.731  16.825   6.303  1.00  0.00     0.096 C 
HETATM   11  C21         0      26.767  17.897   5.453  1.00  0.00     0.084 C 
ENDROOT
BRANCH  10  12
HETATM   12  O20         0      27.931  16.183   6.594  1.00  0.00    -0.359 OA
HETATM   13  H20         0      27.906  15.248   6.759  1.00  0.00     0.218 HD
ENDBRANCH  10  12
BRANCH   4  14
HETATM   14  C5          0      26.633  21.328   3.161  1.00  0.00     0.025 C 
HETATM   15  C6          0      26.815  22.445   3.963  1.00  0.00     0.004 C 
HETATM   16  C7          0      27.553  23.502   3.438  1.00  0.00     0.026 C 
HETATM   17  C8          0      27.982  23.506   2.116  1.00  0.00     0.112 C 
HETATM   18  C10         0      27.239  22.700   1.263  1.00  0.00     0.112 C 
HETATM   19  C12         0      26.580  21.601   1.801  1.00  0.00     0.028 C 
BRANCH  17  20
HETATM   20  O9          0      29.178  24.104   1.760  1.00  0.00    -0.357 OA
HETATM   21  H9          0      29.390  25.011   1.946  1.00  0.00     0.218 HD
ENDBRANCH  17  20
BRANCH  18  22
HETATM   22  O11         0      27.503  22.811  -0.095  1.00  0.00    -0.357 OA
HETATM   23  H11         0      28.397  23.015  -0.344  1.00  0.00     0.218 HD
ENDBRANCH  18  22
ENDBRANCH   4  14
BRANCH   8  24
HETATM   24  O17         0      23.955  17.942   8.346  1.00  0.00    -0.359 OA
HETATM   25  H17         0      23.095  17.605   8.566  1.00  0.00     0.218 HD
ENDBRANCH   8  24
TORSDOF 5
ENDMDL
