MODEL 1
REMARK VINA RESULT:      -5.3      0.000      0.000
REMARK  5 active torsions:
REMARK  status: ('A' for Active; 'I' for Inactive)
REMARK    1  A    between atoms: C4_4  and  C5_5 
REMARK    2  A    between atoms: C8_8  and  O9_9 
REMARK    3  A    between atoms: C10_11  and  O11_12 
REMARK    4  A    between atoms: C16_18  and  O17_19 
REMARK    5  A    between atoms: C19_22  and  O20_23 
ROOT
HETATM    1  O1          0      55.173  97.971 -24.174  1.00  0.00    -0.286 OA
HETATM    2  C2          0      54.023  97.455 -24.140  1.00  0.00     0.201 C 
HETATM    3  C3          0      53.654  96.504 -23.203  1.00  0.00     0.067 C 
HETATM    4  C4          0      52.414  95.877 -23.252  1.00  0.00     0.103 C 
HETATM    5  O13         0      51.567  96.217 -24.207  1.00  0.00    -0.307 OA
HETATM    6  C14         0      51.881  97.086 -25.143  1.00  0.00     0.107 C 
HETATM    7  C15         0      51.186  97.152 -26.342  1.00  0.00     0.049 C 
HETATM    8  C16         0      51.673  97.884 -27.419  1.00  0.00     0.093 C 
HETATM    9  C18         0      52.536  98.920 -27.082  1.00  0.00     0.048 C 
HETATM   10  C19         0      53.211  98.909 -25.869  1.00  0.00     0.096 C 
HETATM   11  C21         0      53.013  97.879 -24.991  1.00  0.00     0.084 C 
ENDROOT
BRANCH  10  12
HETATM   12  O20         0      54.362  99.678 -25.725  1.00  0.00    -0.359 OA
HETATM   13  H20         0      54.407 100.279 -24.992  1.00  0.00     0.218 HD
ENDBRANCH  10  12
BRANCH   4  14
HETATM   14  C5          0      52.318  94.537 -22.670  1.00  0.00     0.025 C 
HETATM   15  C6          0      51.112  93.963 -22.296  1.00  0.00     0.004 C 
HETATM   16  C7          0      50.945  92.602 -22.530  1.00  0.00     0.026 C 
HETATM   17  C8          0      51.988  91.809 -22.996  1.00  0.00     0.112 C 
HETATM   18  C10         0      53.257  92.308 -22.734  1.00  0.00     0.112 C 
HETATM   19  C12         0      53.410  93.681 -22.588  1.00  0.00     0.028 C 
BRANCH  17  20
HETATM   20  O9          0      51.742  90.733 -23.831  1.00  0.00    -0.357 OA
HETATM   21  H9          0      50.968  90.186 -23.772  1.00  0.00     0.218 HD
ENDBRANCH  17  20
BRANCH  18  22
HETATM   22  O11         0      54.330  91.470 -23.006  1.00  0.00    -0.357 OA
HETATM   23  H11         0      55.081  91.532 -22.428  1.00  0.00     0.218 HD
ENDBRANCH  18  22
ENDBRANCH   4  14
BRANCH   8  24
HETATM   24  O17         0      51.573  97.406 -28.730  1.00  0.00    -0.359 OA
HETATM   25  H17         0      50.785  97.526 -29.247  1.00  0.00     0.218 HD
ENDBRANCH   8  24
TORSDOF 5
ENDMDL
MODEL 2
REMARK VINA RESULT:      -5.2      1.767      2.373
REMARK  5 active torsions:
REMARK  status: ('A' for Active; 'I' for Inactive)
REMARK    1  A    between atoms: C4_4  and  C5_5 
REMARK    2  A    between atoms: C8_8  and  O9_9 
REMARK    3  A    between atoms: C10_11  and  O11_12 
REMARK    4  A    between atoms: C16_18  and  O17_19 
REMARK    5  A    between atoms: C19_22  and  O20_23 
ROOT
HETATM    1  O1          0      52.548  96.579 -27.291  1.00  0.00    -0.286 OA
HETATM    2  C2          0      52.187  96.681 -26.086  1.00  0.00     0.201 C 
HETATM    3  C3          0      52.672  95.856 -25.085  1.00  0.00     0.067 C 
HETATM    4  C4          0      52.182  95.922 -23.786  1.00  0.00     0.103 C 
HETATM    5  O13         0      51.246  96.811 -23.505  1.00  0.00    -0.307 OA
HETATM    6  C14         0      50.725  97.593 -24.425  1.00  0.00     0.107 C 
HETATM    7  C15         0      49.503  98.223 -24.242  1.00  0.00     0.049 C 
HETATM    8  C16         0      48.840  98.834 -25.300  1.00  0.00     0.093 C 
HETATM    9  C18         0      49.658  99.239 -26.349  1.00  0.00     0.048 C 
HETATM   10  C19         0      50.907  98.662 -26.533  1.00  0.00     0.096 C 
HETATM   11  C21         0      51.344  97.699 -25.666  1.00  0.00     0.084 C 
ENDROOT
BRANCH  10  12
HETATM   12  O20         0      51.514  98.739 -27.783  1.00  0.00    -0.359 OA
HETATM   13  H20         0      52.260  99.319 -27.880  1.00  0.00     0.218 HD
ENDBRANCH  10  12
BRANCH   4  14
HETATM   14  C5          0      52.263  94.704 -22.977  1.00  0.00     0.025 C 
HETATM   15  C6          0      51.148  94.093 -22.424  1.00  0.00     0.004 C 
HETATM   16  C7          0      51.116  92.702 -22.408  1.00  0.00     0.026 C 
HETATM   17  C8          0      52.212  91.943 -22.804  1.00  0.00     0.112 C 
HETATM   18  C10         0      53.432  92.601 -22.724  1.00  0.00     0.112 C 
HETATM   19  C12         0      53.443  93.987 -22.828  1.00  0.00     0.028 C 
BRANCH  17  20
HETATM   20  O9          0      52.039  90.717 -23.421  1.00  0.00    -0.357 OA
HETATM   21  H9          0      51.189  90.330 -23.597  1.00  0.00     0.218 HD
ENDBRANCH  17  20
BRANCH  18  22
HETATM   22  O11         0      54.573  91.836 -22.925  1.00  0.00    -0.357 OA
HETATM   23  H11         0      54.863  91.297 -22.198  1.00  0.00     0.218 HD
ENDBRANCH  18  22
ENDBRANCH   4  14
BRANCH   8  24
HETATM   24  O17         0      47.452  98.738 -25.444  1.00  0.00    -0.359 OA
HETATM   25  H17         0      47.056  98.237 -26.148  1.00  0.00     0.218 HD
ENDBRANCH   8  24
TORSDOF 5
ENDMDL
MODEL 3
REMARK VINA RESULT:      -4.8      2.305      6.344
REMARK  5 active torsions:
REMARK  status: ('A' for Active; 'I' for Inactive)
REMARK    1  A    between atoms: C4_4  and  C5_5 
REMARK    2  A    between atoms: C8_8  and  O9_9 
REMARK    3  A    between atoms: C10_11  and  O11_12 
REMARK    4  A    between atoms: C16_18  and  O17_19 
REMARK    5  A    between atoms: C19_22  and  O20_23 
ROOT
HETATM    1  O1          0      55.882  94.970 -24.584  1.00  0.00    -0.286 OA
HETATM    2  C2          0      54.629  95.110 -24.636  1.00  0.00     0.201 C 
HETATM    3  C3          0      53.986  95.724 -25.697  1.00  0.00     0.067 C 
HETATM    4  C4          0      52.616  95.957 -25.683  1.00  0.00     0.103 C 
HETATM    5  O13         0      51.916  95.560 -24.634  1.00  0.00    -0.307 OA
HETATM    6  C14         0      52.482  95.007 -23.585  1.00  0.00     0.107 C 
HETATM    7  C15         0      51.847  94.957 -22.352  1.00  0.00     0.049 C 
HETATM    8  C16         0      52.537  94.608 -21.198  1.00  0.00     0.093 C 
HETATM    9  C18         0      53.669  93.829 -21.404  1.00  0.00     0.048 C 
HETATM   10  C19         0      54.303  93.818 -22.639  1.00  0.00     0.096 C 
HETATM   11  C21         0      53.799  94.568 -23.667  1.00  0.00     0.084 C 
ENDROOT
BRANCH  10  12
HETATM   12  O20         0      55.630  93.410 -22.719  1.00  0.00    -0.359 OA
HETATM   13  H20         0      55.804  92.491 -22.886  1.00  0.00     0.218 HD
ENDBRANCH  10  12
BRANCH   4  14
HETATM   14  C5          0      52.119  97.081 -26.477  1.00  0.00     0.025 C 
HETATM   15  C6          0      52.906  97.757 -27.398  1.00  0.00     0.004 C 
HETATM   16  C7          0      52.303  98.169 -28.583  1.00  0.00     0.026 C 
HETATM   17  C8          0      50.935  98.034 -28.790  1.00  0.00     0.112 C 
HETATM   18  C10         0      50.178  97.954 -27.629  1.00  0.00     0.112 C 
HETATM   19  C12         0      50.782  97.459 -26.479  1.00  0.00     0.028 C 
BRANCH  17  20
HETATM   20  O9          0      50.430  97.788 -30.055  1.00  0.00    -0.357 OA
HETATM   21  H9          0      50.683  97.043 -30.588  1.00  0.00     0.218 HD
ENDBRANCH  17  20
BRANCH  18  22
HETATM   22  O11         0      48.799  98.008 -27.773  1.00  0.00    -0.357 OA
HETATM   23  H11         0      48.449  98.715 -28.304  1.00  0.00     0.218 HD
ENDBRANCH  18  22
ENDBRANCH   4  14
BRANCH   8  24
HETATM   24  O17         0      52.306  95.264 -19.984  1.00  0.00    -0.359 OA
HETATM   25  H17         0      52.690  94.958 -19.170  1.00  0.00     0.218 HD
ENDBRANCH   8  24
TORSDOF 5
ENDMDL
MODEL 4
REMARK VINA RESULT:      -4.6      2.941      4.534
REMARK  5 active torsions:
REMARK  status: ('A' for Active; 'I' for Inactive)
REMARK    1  A    between atoms: C4_4  and  C5_5 
REMARK    2  A    between atoms: C8_8  and  O9_9 
REMARK    3  A    between atoms: C10_11  and  O11_12 
REMARK    4  A    between atoms: C16_18  and  O17_19 
REMARK    5  A    between atoms: C19_22  and  O20_23 
ROOT
HETATM    1  O1          0      50.834  97.279 -29.187  1.00  0.00    -0.286 OA
HETATM    2  C2          0      50.519  97.685 -28.035  1.00  0.00     0.201 C 
HETATM    3  C3          0      51.332  97.507 -26.928  1.00  0.00     0.067 C 
HETATM    4  C4          0      50.916  97.873 -25.653  1.00  0.00     0.103 C 
HETATM    5  O13         0      49.723  98.422 -25.507  1.00  0.00    -0.307 OA
HETATM    6  C14         0      48.898  98.580 -26.518  1.00  0.00     0.107 C 
HETATM    7  C15         0      47.537  98.770 -26.328  1.00  0.00     0.049 C 
HETATM    8  C16         0      46.641  98.681 -27.387  1.00  0.00     0.093 C 
HETATM    9  C18         0      47.187  98.927 -28.640  1.00  0.00     0.048 C 
HETATM   10  C19         0      48.552  98.791 -28.854  1.00  0.00     0.096 C 
HETATM   11  C21         0      49.369  98.428 -27.818  1.00  0.00     0.084 C 
ENDROOT
BRANCH  10  12
HETATM   12  O20         0      49.022  98.608 -30.151  1.00  0.00    -0.359 OA
HETATM   13  H20         0      49.059  99.365 -30.723  1.00  0.00     0.218 HD
ENDBRANCH  10  12
BRANCH   4  14
HETATM   14  C5          0      51.501  97.147 -24.524  1.00  0.00     0.025 C 
HETATM   15  C6          0      51.120  97.369 -23.209  1.00  0.00     0.004 C 
HETATM   16  C7          0      51.036  96.264 -22.367  1.00  0.00     0.026 C 
HETATM   17  C8          0      51.446  95.001 -22.779  1.00  0.00     0.112 C 
HETATM   18  C10         0      52.365  95.000 -23.819  1.00  0.00     0.112 C 
HETATM   19  C12         0      52.370  96.077 -24.697  1.00  0.00     0.028 C 
BRANCH  17  20
HETATM   20  O9          0      50.810  93.863 -22.314  1.00  0.00    -0.357 OA
HETATM   21  H9          0      50.478  93.175 -22.880  1.00  0.00     0.218 HD
ENDBRANCH  17  20
BRANCH  18  22
HETATM   22  O11         0      52.948  93.782 -24.142  1.00  0.00    -0.357 OA
HETATM   23  H11         0      52.631  93.348 -24.925  1.00  0.00     0.218 HD
ENDBRANCH  18  22
ENDBRANCH   4  14
BRANCH   8  24
HETATM   24  O17         0      45.393  98.067 -27.235  1.00  0.00    -0.359 OA
HETATM   25  H17         0      44.641  98.541 -26.900  1.00  0.00     0.218 HD
ENDBRANCH   8  24
TORSDOF 5
ENDMDL
MODEL 5
REMARK VINA RESULT:      -4.6      3.379      5.904
REMARK  5 active torsions:
REMARK  status: ('A' for Active; 'I' for Inactive)
REMARK    1  A    between atoms: C4_4  and  C5_5 
REMARK    2  A    between atoms: C8_8  and  O9_9 
REMARK    3  A    between atoms: C10_11  and  O11_12 
REMARK    4  A    between atoms: C16_18  and  O17_19 
REMARK    5  A    between atoms: C19_22  and  O20_23 
ROOT
HETATM    1  O1          0      52.435  96.706 -23.770  1.00  0.00    -0.286 OA
HETATM    2  C2          0      53.264  95.799 -23.485  1.00  0.00     0.201 C 
HETATM    3  C3          0      54.625  95.930 -23.702  1.00  0.00     0.067 C 
HETATM    4  C4          0      55.504  94.877 -23.476  1.00  0.00     0.103 C 
HETATM    5  O13         0      55.021  93.733 -23.023  1.00  0.00    -0.307 OA
HETATM    6  C14         0      53.733  93.544 -22.836  1.00  0.00     0.107 C 
HETATM    7  C15         0      53.186  92.271 -22.755  1.00  0.00     0.049 C 
HETATM    8  C16         0      51.812  92.071 -22.813  1.00  0.00     0.093 C 
HETATM    9  C18         0      51.044  93.161 -22.424  1.00  0.00     0.048 C 
HETATM   10  C19         0      51.575  94.444 -22.449  1.00  0.00     0.096 C 
HETATM   11  C21         0      52.871  94.634 -22.843  1.00  0.00     0.084 C 
ENDROOT
BRANCH  10  12
HETATM   12  O20         0      50.713  95.536 -22.488  1.00  0.00    -0.359 OA
HETATM   13  H20         0      50.587  96.032 -21.688  1.00  0.00     0.218 HD
ENDBRANCH  10  12
BRANCH   4  14
HETATM   14  C5          0      56.743  94.860 -24.255  1.00  0.00     0.025 C 
HETATM   15  C6          0      57.984  94.607 -23.689  1.00  0.00     0.004 C 
HETATM   16  C7          0      58.885  93.844 -24.425  1.00  0.00     0.026 C 
HETATM   17  C8          0      58.616  93.459 -25.734  1.00  0.00     0.112 C 
HETATM   18  C10         0      57.696  94.261 -26.397  1.00  0.00     0.112 C 
HETATM   19  C12         0      56.752  94.946 -25.641  1.00  0.00     0.028 C 
BRANCH  17  20
HETATM   20  O9          0      59.079  92.252 -26.227  1.00  0.00    -0.357 OA
HETATM   21  H9          0      59.791  92.175 -26.852  1.00  0.00     0.218 HD
ENDBRANCH  17  20
BRANCH  18  22
HETATM   22  O11         0      57.533  94.037 -27.756  1.00  0.00    -0.357 OA
HETATM   23  H11         0      58.228  93.566 -28.201  1.00  0.00     0.218 HD
ENDBRANCH  18  22
ENDBRANCH   4  14
BRANCH   8  24
HETATM   24  O17         0      51.261  90.997 -23.521  1.00  0.00    -0.359 OA
HETATM   25  H17         0      50.495  90.533 -23.206  1.00  0.00     0.218 HD
ENDBRANCH   8  24
TORSDOF 5
ENDMDL
MODEL 6
REMARK VINA RESULT:      -4.5      3.660      4.703
REMARK  5 active torsions:
REMARK  status: ('A' for Active; 'I' for Inactive)
REMARK    1  A    between atoms: C4_4  and  C5_5 
REMARK    2  A    between atoms: C8_8  and  O9_9 
REMARK    3  A    between atoms: C10_11  and  O11_12 
REMARK    4  A    between atoms: C16_18  and  O17_19 
REMARK    5  A    between atoms: C19_22  and  O20_23 
ROOT
HETATM    1  O1          0      49.487  98.802 -26.737  1.00  0.00    -0.286 OA
HETATM    2  C2          0      49.517  98.559 -25.499  1.00  0.00     0.201 C 
HETATM    3  C3          0      50.624  98.019 -24.867  1.00  0.00     0.067 C 
HETATM    4  C4          0      50.596  97.666 -23.523  1.00  0.00     0.103 C 
HETATM    5  O13         0      49.486  97.871 -22.836  1.00  0.00    -0.307 OA
HETATM    6  C14         0      48.395  98.345 -23.396  1.00  0.00     0.107 C 
HETATM    7  C15         0      47.146  98.192 -22.811  1.00  0.00     0.049 C 
HETATM    8  C16         0      45.980  98.462 -23.516  1.00  0.00     0.093 C 
HETATM    9  C18         0      46.125  99.358 -24.568  1.00  0.00     0.048 C 
HETATM   10  C19         0      47.369  99.571 -25.147  1.00  0.00     0.096 C 
HETATM   11  C21         0      48.464  98.906 -24.667  1.00  0.00     0.084 C 
ENDROOT
BRANCH  10  12
HETATM   12  O20         0      47.439 100.102 -26.431  1.00  0.00    -0.359 OA
HETATM   13  H20         0      48.300 100.248 -26.806  1.00  0.00     0.218 HD
ENDBRANCH  10  12
BRANCH   4  14
HETATM   14  C5          0      51.505  96.603 -23.090  1.00  0.00     0.025 C 
HETATM   15  C6          0      51.263  95.812 -21.977  1.00  0.00     0.004 C 
HETATM   16  C7          0      51.600  94.465 -22.057  1.00  0.00     0.026 C 
HETATM   17  C8          0      52.278  93.947 -23.155  1.00  0.00     0.112 C 
HETATM   18  C10         0      53.011  94.880 -23.876  1.00  0.00     0.112 C 
HETATM   19  C12         0      52.601  96.208 -23.847  1.00  0.00     0.028 C 
BRANCH  17  20
HETATM   20  O9          0      52.047  92.652 -23.584  1.00  0.00    -0.357 OA
HETATM   21  H9          0      52.545  91.900 -23.285  1.00  0.00     0.218 HD
ENDBRANCH  17  20
BRANCH  18  22
HETATM   22  O11         0      53.854  94.389 -24.864  1.00  0.00    -0.357 OA
HETATM   23  H11         0      54.412  93.657 -24.628  1.00  0.00     0.218 HD
ENDBRANCH  18  22
ENDBRANCH   4  14
BRANCH   8  24
HETATM   24  O17         0      44.848  97.650 -23.392  1.00  0.00    -0.359 OA
HETATM   25  H17         0      44.631  96.993 -24.044  1.00  0.00     0.218 HD
ENDBRANCH   8  24
TORSDOF 5
ENDMDL
MODEL 7
REMARK VINA RESULT:      -4.4      5.104      7.738
REMARK  5 active torsions:
REMARK  status: ('A' for Active; 'I' for Inactive)
REMARK    1  A    between atoms: C4_4  and  C5_5 
REMARK    2  A    between atoms: C8_8  and  O9_9 
REMARK    3  A    between atoms: C10_11  and  O11_12 
REMARK    4  A    between atoms: C16_18  and  O17_19 
REMARK    5  A    between atoms: C19_22  and  O20_23 
ROOT
HETATM    1  O1          0      45.476  97.234 -24.998  1.00  0.00    -0.286 OA
HETATM    2  C2          0      46.396  98.090 -24.884  1.00  0.00     0.201 C 
HETATM    3  C3          0      47.174  98.503 -25.953  1.00  0.00     0.067 C 
HETATM    4  C4          0      48.247  99.369 -25.781  1.00  0.00     0.103 C 
HETATM    5  O13         0      48.511  99.821 -24.567  1.00  0.00    -0.307 OA
HETATM    6  C14         0      47.827  99.432 -23.513  1.00  0.00     0.107 C 
HETATM    7  C15         0      48.327  99.570 -22.226  1.00  0.00     0.049 C 
HETATM    8  C16         0      47.725  98.935 -21.146  1.00  0.00     0.093 C 
HETATM    9  C18         0      46.380  98.632 -21.318  1.00  0.00     0.048 C 
HETATM   10  C19         0      45.837  98.532 -22.592  1.00  0.00     0.096 C 
HETATM   11  C21         0      46.628  98.749 -23.686  1.00  0.00     0.084 C 
ENDROOT
BRANCH  10  12
HETATM   12  O20         0      44.653  97.823 -22.772  1.00  0.00    -0.359 OA
HETATM   13  H20         0      44.448  97.134 -22.151  1.00  0.00     0.218 HD
ENDBRANCH  10  12
BRANCH   4  14
HETATM   14  C5          0      49.338  99.286 -26.754  1.00  0.00     0.025 C 
HETATM   15  C6          0      50.620  99.744 -26.487  1.00  0.00     0.004 C 
HETATM   16  C7          0      51.686  98.998 -26.979  1.00  0.00     0.026 C 
HETATM   17  C8          0      51.488  97.908 -27.820  1.00  0.00     0.112 C 
HETATM   18  C10         0      50.285  97.924 -28.515  1.00  0.00     0.112 C 
HETATM   19  C12         0      49.210  98.607 -27.959  1.00  0.00     0.028 C 
BRANCH  17  20
HETATM   20  O9          0      52.338  96.818 -27.781  1.00  0.00    -0.357 OA
HETATM   21  H9          0      53.028  96.663 -28.415  1.00  0.00     0.218 HD
ENDBRANCH  17  20
BRANCH  18  22
HETATM   22  O11         0      50.119  96.966 -29.504  1.00  0.00    -0.357 OA
HETATM   23  H11         0      49.281  96.518 -29.533  1.00  0.00     0.218 HD
ENDBRANCH  18  22
ENDBRANCH   4  14
BRANCH   8  24
HETATM   24  O17         0      48.486  98.352 -20.127  1.00  0.00    -0.359 OA
HETATM   25  H17         0      48.840  97.474 -20.209  1.00  0.00     0.218 HD
ENDBRANCH   8  24
TORSDOF 5
ENDMDL
MODEL 8
REMARK VINA RESULT:      -4.3      6.156      9.187
REMARK  5 active torsions:
REMARK  status: ('A' for Active; 'I' for Inactive)
REMARK    1  A    between atoms: C4_4  and  C5_5 
REMARK    2  A    between atoms: C8_8  and  O9_9 
REMARK    3  A    between atoms: C10_11  and  O11_12 
REMARK    4  A    between atoms: C16_18  and  O17_19 
REMARK    5  A    between atoms: C19_22  and  O20_23 
ROOT
HETATM    1  O1          0      44.753  96.694 -30.343  1.00  0.00    -0.286 OA
HETATM    2  C2          0      45.530  97.500 -29.761  1.00  0.00     0.201 C 
HETATM    3  C3          0      46.724  97.926 -30.318  1.00  0.00     0.067 C 
HETATM    4  C4          0      47.609  98.733 -29.614  1.00  0.00     0.103 C 
HETATM    5  O13         0      47.286  99.113 -28.390  1.00  0.00    -0.307 OA
HETATM    6  C14         0      46.183  98.707 -27.801  1.00  0.00     0.107 C 
HETATM    7  C15         0      46.028  98.761 -26.423  1.00  0.00     0.049 C 
HETATM    8  C16         0      44.981  98.103 -25.788  1.00  0.00     0.093 C 
HETATM    9  C18         0      43.865  97.872 -26.583  1.00  0.00     0.048 C 
HETATM   10  C19         0      43.976  97.857 -27.967  1.00  0.00     0.096 C 
HETATM   11  C21         0      45.190  98.090 -28.553  1.00  0.00     0.084 C 
ENDROOT
BRANCH  10  12
HETATM   12  O20         0      43.000  97.213 -28.720  1.00  0.00    -0.359 OA
HETATM   13  H20         0      42.160  97.044 -28.310  1.00  0.00     0.218 HD
ENDBRANCH  10  12
BRANCH   4  14
HETATM   14  C5          0      49.026  98.646 -29.973  1.00  0.00     0.025 C 
HETATM   15  C6          0      49.633  99.526 -30.857  1.00  0.00     0.004 C 
HETATM   16  C7          0      50.933  99.931 -30.571  1.00  0.00     0.026 C 
HETATM   17  C8          0      51.655  99.379 -29.519  1.00  0.00     0.112 C 
HETATM   18  C10         0      51.229  98.118 -29.122  1.00  0.00     0.112 C 
HETATM   19  C12         0      49.901  97.771 -29.343  1.00  0.00     0.028 C 
BRANCH  17  20
HETATM   20  O9          0      52.573 100.137 -28.813  1.00  0.00    -0.357 OA
HETATM   21  H9          0      52.622 101.085 -28.861  1.00  0.00     0.218 HD
ENDBRANCH  17  20
BRANCH  18  22
HETATM   22  O11         0      52.027  97.443 -28.209  1.00  0.00    -0.357 OA
HETATM   23  H11         0      52.557  97.975 -27.626  1.00  0.00     0.218 HD
ENDBRANCH  18  22
ENDBRANCH   4  14
BRANCH   8  24
HETATM   24  O17         0      45.169  97.437 -24.572  1.00  0.00    -0.359 OA
HETATM   25  H17         0      45.965  96.954 -24.385  1.00  0.00     0.218 HD
ENDBRANCH   8  24
TORSDOF 5
ENDMDL
MODEL 9
REMARK VINA RESULT:      -4.2      3.943      6.250
REMARK  5 active torsions:
REMARK  status: ('A' for Active; 'I' for Inactive)
REMARK    1  A    between atoms: C4_4  and  C5_5 
REMARK    2  A    between atoms: C8_8  and  O9_9 
REMARK    3  A    between atoms: C10_11  and  O11_12 
REMARK    4  A    between atoms: C16_18  and  O17_19 
REMARK    5  A    between atoms: C19_22  and  O20_23 
ROOT
HETATM    1  O1          0      56.219  94.977 -21.007  1.00  0.00    -0.286 OA
HETATM    2  C2          0      55.851  94.730 -22.189  1.00  0.00     0.201 C 
HETATM    3  C3          0      56.741  94.602 -23.241  1.00  0.00     0.067 C 
HETATM    4  C4          0      56.302  94.433 -24.550  1.00  0.00     0.103 C 
HETATM    5  O13         0      55.003  94.374 -24.781  1.00  0.00    -0.307 OA
HETATM    6  C14         0      54.115  94.527 -23.823  1.00  0.00     0.107 C 
HETATM    7  C15         0      52.796  94.863 -24.096  1.00  0.00     0.049 C 
HETATM    8  C16         0      51.932  95.271 -23.087  1.00  0.00     0.093 C 
HETATM    9  C18         0      52.264  94.824 -21.814  1.00  0.00     0.048 C 
HETATM   10  C19         0      53.564  94.435 -21.519  1.00  0.00     0.096 C 
HETATM   11  C21         0      54.522  94.476 -22.495  1.00  0.00     0.084 C 
ENDROOT
BRANCH  10  12
HETATM   12  O20         0      53.984  94.414 -20.193  1.00  0.00    -0.359 OA
HETATM   13  H20         0      54.143  93.569 -19.790  1.00  0.00     0.218 HD
ENDBRANCH  10  12
BRANCH   4  14
HETATM   14  C5          0      57.188  94.899 -25.618  1.00  0.00     0.025 C 
HETATM   15  C6          0      58.254  94.148 -26.092  1.00  0.00     0.004 C 
HETATM   16  C7          0      58.510  94.183 -27.459  1.00  0.00     0.026 C 
HETATM   17  C8          0      57.817  95.038 -28.309  1.00  0.00     0.112 C 
HETATM   18  C10         0      57.262  96.149 -27.688  1.00  0.00     0.112 C 
HETATM   19  C12         0      56.937  96.059 -26.340  1.00  0.00     0.028 C 
BRANCH  17  20
HETATM   20  O9          0      57.541  94.670 -29.614  1.00  0.00    -0.357 OA
HETATM   21  H9          0      56.834  95.041 -30.129  1.00  0.00     0.218 HD
ENDBRANCH  17  20
BRANCH  18  22
HETATM   22  O11         0      56.725  97.127 -28.513  1.00  0.00    -0.357 OA
HETATM   23  H11         0      57.306  97.829 -28.783  1.00  0.00     0.218 HD
ENDBRANCH  18  22
ENDBRANCH   4  14
BRANCH   8  24
HETATM   24  O17         0      51.017  96.311 -23.287  1.00  0.00    -0.359 OA
HETATM   25  H17         0      50.083  96.181 -23.175  1.00  0.00     0.218 HD
ENDBRANCH   8  24
TORSDOF 5
ENDMDL
