MODEL 1
REMARK VINA RESULT:      -4.1      0.000      0.000
REMARK  5 active torsions:
REMARK  status: ('A' for Active; 'I' for Inactive)
REMARK    1  A    between atoms: C4_4  and  C5_5 
REMARK    2  A    between atoms: C8_8  and  O9_9 
REMARK    3  A    between atoms: C10_11  and  O11_12 
REMARK    4  A    between atoms: C16_18  and  O17_19 
REMARK    5  A    between atoms: C19_22  and  O20_23 
ROOT
HETATM    1  O1          0      47.243 114.691   4.497  1.00  0.00    -0.286 OA
HETATM    2  C2          0      46.443 115.621   4.200  1.00  0.00     0.201 C 
HETATM    3  C3          0      46.159 116.669   5.058  1.00  0.00     0.067 C 
HETATM    4  C4          0      45.197 117.624   4.748  1.00  0.00     0.103 C 
HETATM    5  O13         0      44.558 117.531   3.596  1.00  0.00    -0.307 OA
HETATM    6  C14         0      44.762 116.535   2.762  1.00  0.00     0.107 C 
HETATM    7  C15         0      43.845 116.209   1.773  1.00  0.00     0.049 C 
HETATM    8  C16         0      43.937 115.015   1.068  1.00  0.00     0.093 C 
HETATM    9  C18         0      45.211 114.463   1.013  1.00  0.00     0.048 C 
HETATM   10  C19         0      46.169 114.803   1.959  1.00  0.00     0.096 C 
HETATM   11  C21         0      45.861 115.702   2.944  1.00  0.00     0.084 C 
ENDROOT
BRANCH  10  12
HETATM   12  O20         0      47.252 113.955   2.166  1.00  0.00    -0.359 OA
HETATM   13  H20         0      47.875 113.848   1.457  1.00  0.00     0.218 HD
ENDBRANCH  10  12
BRANCH   4  14
HETATM   14  C5          0      44.536 118.296   5.868  1.00  0.00     0.025 C 
HETATM   15  C6          0      43.552 119.259   5.693  1.00  0.00     0.004 C 
HETATM   16  C7          0      42.483 119.258   6.584  1.00  0.00     0.026 C 
HETATM   17  C8          0      42.458 118.418   7.692  1.00  0.00     0.112 C 
HETATM   18  C10         0      43.706 117.985   8.120  1.00  0.00     0.112 C 
HETATM   19  C12         0      44.735 117.914   7.189  1.00  0.00     0.028 C 
BRANCH  17  20
HETATM   20  O9          0      41.263 117.907   8.167  1.00  0.00    -0.357 OA
HETATM   21  H9          0      41.037 117.864   9.089  1.00  0.00     0.218 HD
ENDBRANCH  17  20
BRANCH  18  22
HETATM   22  O11         0      43.754 117.302   9.327  1.00  0.00    -0.357 OA
HETATM   23  H11         0      44.169 116.447   9.321  1.00  0.00     0.218 HD
ENDBRANCH  18  22
ENDBRANCH   4  14
BRANCH   8  24
HETATM   24  O17         0      42.798 114.271   0.741  1.00  0.00    -0.359 OA
HETATM   25  H17         0      42.798 113.646   0.026  1.00  0.00     0.218 HD
ENDBRANCH   8  24
TORSDOF 5
ENDMDL
MODEL 2
REMARK VINA RESULT:      -4.0      3.145      5.716
REMARK  5 active torsions:
REMARK  status: ('A' for Active; 'I' for Inactive)
REMARK    1  A    between atoms: C4_4  and  C5_5 
REMARK    2  A    between atoms: C8_8  and  O9_9 
REMARK    3  A    between atoms: C10_11  and  O11_12 
REMARK    4  A    between atoms: C16_18  and  O17_19 
REMARK    5  A    between atoms: C19_22  and  O20_23 
ROOT
HETATM    1  O1          0      46.158 116.147   5.385  1.00  0.00    -0.286 OA
HETATM    2  C2          0      46.043 115.912   4.151  1.00  0.00     0.201 C 
HETATM    3  C3          0      45.003 116.412   3.386  1.00  0.00     0.067 C 
HETATM    4  C4          0      44.842 116.053   2.052  1.00  0.00     0.103 C 
HETATM    5  O13         0      45.721 115.231   1.506  1.00  0.00    -0.307 OA
HETATM    6  C14         0      46.704 114.699   2.197  1.00  0.00     0.107 C 
HETATM    7  C15         0      47.369 113.560   1.765  1.00  0.00     0.049 C 
HETATM    8  C16         0      48.223 112.859   2.608  1.00  0.00     0.093 C 
HETATM    9  C18         0      48.771 113.608   3.642  1.00  0.00     0.048 C 
HETATM   10  C19         0      48.157 114.778   4.069  1.00  0.00     0.096 C 
HETATM   11  C21         0      47.012 115.206   3.455  1.00  0.00     0.084 C 
ENDROOT
BRANCH  10  12
HETATM   12  O20         0      48.439 115.270   5.340  1.00  0.00    -0.359 OA
HETATM   13  H20         0      49.268 115.030   5.736  1.00  0.00     0.218 HD
ENDBRANCH  10  12
BRANCH   4  14
HETATM   14  C5          0      43.485 116.101   1.505  1.00  0.00     0.025 C 
HETATM   15  C6          0      42.909 117.267   1.024  1.00  0.00     0.004 C 
HETATM   16  C7          0      42.107 117.171  -0.109  1.00  0.00     0.026 C 
HETATM   17  C8          0      41.779 115.940  -0.668  1.00  0.00     0.112 C 
HETATM   18  C10         0      41.857 114.866   0.209  1.00  0.00     0.112 C 
HETATM   19  C12         0      42.730 114.955   1.286  1.00  0.00     0.028 C 
BRANCH  17  20
HETATM   20  O9          0      41.604 115.806  -2.033  1.00  0.00    -0.357 OA
HETATM   21  H9          0      40.765 115.900  -2.470  1.00  0.00     0.218 HD
ENDBRANCH  17  20
BRANCH  18  22
HETATM   22  O11         0      41.362 113.651  -0.241  1.00  0.00    -0.357 OA
HETATM   23  H11         0      41.183 113.577  -1.171  1.00  0.00     0.218 HD
ENDBRANCH  18  22
ENDBRANCH   4  14
BRANCH   8  24
HETATM   24  O17         0      48.255 111.461   2.615  1.00  0.00    -0.359 OA
HETATM   25  H17         0      47.551 110.944   2.240  1.00  0.00     0.218 HD
ENDBRANCH   8  24
TORSDOF 5
ENDMDL
MODEL 3
REMARK VINA RESULT:      -3.9      2.018      7.021
REMARK  5 active torsions:
REMARK  status: ('A' for Active; 'I' for Inactive)
REMARK    1  A    between atoms: C4_4  and  C5_5 
REMARK    2  A    between atoms: C8_8  and  O9_9 
REMARK    3  A    between atoms: C10_11  and  O11_12 
REMARK    4  A    between atoms: C16_18  and  O17_19 
REMARK    5  A    between atoms: C19_22  and  O20_23 
ROOT
HETATM    1  O1          0      41.154 121.132   4.234  1.00  0.00    -0.286 OA
HETATM    2  C2          0      42.124 120.395   4.561  1.00  0.00     0.201 C 
HETATM    3  C3          0      43.010 119.866   3.638  1.00  0.00     0.067 C 
HETATM    4  C4          0      44.008 118.974   4.014  1.00  0.00     0.103 C 
HETATM    5  O13         0      44.118 118.645   5.289  1.00  0.00    -0.307 OA
HETATM    6  C14         0      43.280 119.089   6.200  1.00  0.00     0.107 C 
HETATM    7  C15         0      43.134 118.458   7.427  1.00  0.00     0.049 C 
HETATM    8  C16         0      42.079 118.770   8.278  1.00  0.00     0.093 C 
HETATM    9  C18         0      41.540 120.039   8.103  1.00  0.00     0.048 C 
HETATM   10  C19         0      41.707 120.717   6.904  1.00  0.00     0.096 C 
HETATM   11  C21         0      42.424 120.140   5.891  1.00  0.00     0.084 C 
ENDROOT
BRANCH  10  12
HETATM   12  O20         0      40.832 121.749   6.578  1.00  0.00    -0.359 OA
HETATM   13  H20         0      40.123 121.557   5.976  1.00  0.00     0.218 HD
ENDBRANCH  10  12
BRANCH   4  14
HETATM   14  C5          0      44.479 118.029   2.999  1.00  0.00     0.025 C 
HETATM   15  C6          0      45.356 116.994   3.285  1.00  0.00     0.004 C 
HETATM   16  C7          0      45.149 115.777   2.642  1.00  0.00     0.026 C 
HETATM   17  C8          0      44.188 115.632   1.648  1.00  0.00     0.112 C 
HETATM   18  C10         0      43.829 116.812   1.011  1.00  0.00     0.112 C 
HETATM   19  C12         0      43.967 118.007   1.708  1.00  0.00     0.028 C 
BRANCH  17  20
HETATM   20  O9          0      43.513 114.435   1.484  1.00  0.00    -0.357 OA
HETATM   21  H9          0      43.084 113.969   2.193  1.00  0.00     0.218 HD
ENDBRANCH  17  20
BRANCH  18  22
HETATM   22  O11         0      43.019 116.701  -0.110  1.00  0.00    -0.357 OA
HETATM   23  H11         0      43.454 116.682  -0.955  1.00  0.00     0.218 HD
ENDBRANCH  18  22
ENDBRANCH   4  14
BRANCH   8  24
HETATM   24  O17         0      41.408 117.778   9.000  1.00  0.00    -0.359 OA
HETATM   25  H17         0      41.876 117.091   9.460  1.00  0.00     0.218 HD
ENDBRANCH   8  24
TORSDOF 5
ENDMDL
MODEL 4
REMARK VINA RESULT:      -3.7      2.237      6.973
REMARK  5 active torsions:
REMARK  status: ('A' for Active; 'I' for Inactive)
REMARK    1  A    between atoms: C4_4  and  C5_5 
REMARK    2  A    between atoms: C8_8  and  O9_9 
REMARK    3  A    between atoms: C10_11  and  O11_12 
REMARK    4  A    between atoms: C16_18  and  O17_19 
REMARK    5  A    between atoms: C19_22  and  O20_23 
ROOT
HETATM    1  O1          0      41.462 120.807   5.400  1.00  0.00    -0.286 OA
HETATM    2  C2          0      42.400 120.052   5.775  1.00  0.00     0.201 C 
HETATM    3  C3          0      43.336 119.526   4.901  1.00  0.00     0.067 C 
HETATM    4  C4          0      44.298 118.615   5.324  1.00  0.00     0.103 C 
HETATM    5  O13         0      44.323 118.265   6.598  1.00  0.00    -0.307 OA
HETATM    6  C14         0      43.435 118.705   7.462  1.00  0.00     0.107 C 
HETATM    7  C15         0      43.204 118.058   8.667  1.00  0.00     0.049 C 
HETATM    8  C16         0      42.103 118.370   9.454  1.00  0.00     0.093 C 
HETATM    9  C18         0      41.590 119.648   9.267  1.00  0.00     0.048 C 
HETATM   10  C19         0      41.841 120.343   8.092  1.00  0.00     0.096 C 
HETATM   11  C21         0      42.613 119.772   7.117  1.00  0.00     0.084 C 
ENDROOT
BRANCH  10  12
HETATM   12  O20         0      41.000 121.390   7.728  1.00  0.00    -0.359 OA
HETATM   13  H20         0      41.399 122.211   7.467  1.00  0.00     0.218 HD
ENDBRANCH  10  12
BRANCH   4  14
HETATM   14  C5          0      44.821 117.681   4.325  1.00  0.00     0.025 C 
HETATM   15  C6          0      45.031 118.036   3.001  1.00  0.00     0.004 C 
HETATM   16  C7          0      46.157 117.521   2.366  1.00  0.00     0.026 C 
HETATM   17  C8          0      46.974 116.578   2.982  1.00  0.00     0.112 C 
HETATM   18  C10         0      46.356 115.843   3.985  1.00  0.00     0.112 C 
HETATM   19  C12         0      45.286 116.416   4.661  1.00  0.00     0.028 C 
BRANCH  17  20
HETATM   20  O9          0      48.335 116.553   2.738  1.00  0.00    -0.357 OA
HETATM   21  H9          0      48.863 115.763   2.773  1.00  0.00     0.218 HD
ENDBRANCH  17  20
BRANCH  18  22
HETATM   22  O11         0      47.063 114.766   4.500  1.00  0.00    -0.357 OA
HETATM   23  H11         0      46.676 114.312   5.240  1.00  0.00     0.218 HD
ENDBRANCH  18  22
ENDBRANCH   4  14
BRANCH   8  24
HETATM   24  O17         0      41.375 117.375  10.117  1.00  0.00    -0.359 OA
HETATM   25  H17         0      40.737 117.587  10.788  1.00  0.00     0.218 HD
ENDBRANCH   8  24
TORSDOF 5
ENDMDL
MODEL 5
REMARK VINA RESULT:      -3.7      2.054      2.725
REMARK  5 active torsions:
REMARK  status: ('A' for Active; 'I' for Inactive)
REMARK    1  A    between atoms: C4_4  and  C5_5 
REMARK    2  A    between atoms: C8_8  and  O9_9 
REMARK    3  A    between atoms: C10_11  and  O11_12 
REMARK    4  A    between atoms: C16_18  and  O17_19 
REMARK    5  A    between atoms: C19_22  and  O20_23 
ROOT
HETATM    1  O1          0      45.897 115.501   4.940  1.00  0.00    -0.286 OA
HETATM    2  C2          0      45.426 116.663   5.077  1.00  0.00     0.201 C 
HETATM    3  C3          0      45.152 117.221   6.314  1.00  0.00     0.067 C 
HETATM    4  C4          0      44.538 118.463   6.434  1.00  0.00     0.103 C 
HETATM    5  O13         0      44.230 119.127   5.334  1.00  0.00    -0.307 OA
HETATM    6  C14         0      44.433 118.626   4.135  1.00  0.00     0.107 C 
HETATM    7  C15         0      43.770 119.112   3.017  1.00  0.00     0.049 C 
HETATM    8  C16         0      43.791 118.425   1.810  1.00  0.00     0.093 C 
HETATM    9  C18         0      44.883 117.585   1.632  1.00  0.00     0.048 C 
HETATM   10  C19         0      45.599 117.117   2.726  1.00  0.00     0.096 C 
HETATM   11  C21         0      45.237 117.501   3.988  1.00  0.00     0.084 C 
ENDROOT
BRANCH  10  12
HETATM   12  O20         0      46.378 115.973   2.590  1.00  0.00    -0.359 OA
HETATM   13  H20         0      46.116 115.196   3.070  1.00  0.00     0.218 HD
ENDBRANCH  10  12
BRANCH   4  14
HETATM   14  C5          0      43.759 118.710   7.648  1.00  0.00     0.025 C 
HETATM   15  C6          0      44.176 119.580   8.645  1.00  0.00     0.004 C 
HETATM   16  C7          0      43.206 120.360   9.267  1.00  0.00     0.026 C 
HETATM   17  C8          0      41.852 120.188   9.003  1.00  0.00     0.112 C 
HETATM   18  C10         0      41.511 118.933   8.516  1.00  0.00     0.112 C 
HETATM   19  C12         0      42.475 118.210   7.824  1.00  0.00     0.028 C 
BRANCH  17  20
HETATM   20  O9          0      40.982 121.263   9.032  1.00  0.00    -0.357 OA
HETATM   21  H9          0      41.162 122.100   8.619  1.00  0.00     0.218 HD
ENDBRANCH  17  20
BRANCH  18  22
HETATM   22  O11         0      40.158 118.644   8.415  1.00  0.00    -0.357 OA
HETATM   23  H11         0      39.753 118.214   9.160  1.00  0.00     0.218 HD
ENDBRANCH  18  22
ENDBRANCH   4  14
BRANCH   8  24
HETATM   24  O17         0      42.651 118.330   1.004  1.00  0.00    -0.359 OA
HETATM   25  H17         0      42.615 118.725   0.141  1.00  0.00     0.218 HD
ENDBRANCH   8  24
TORSDOF 5
ENDMDL
MODEL 6
REMARK VINA RESULT:      -3.7      2.736      5.475
REMARK  5 active torsions:
REMARK  status: ('A' for Active; 'I' for Inactive)
REMARK    1  A    between atoms: C4_4  and  C5_5 
REMARK    2  A    between atoms: C8_8  and  O9_9 
REMARK    3  A    between atoms: C10_11  and  O11_12 
REMARK    4  A    between atoms: C16_18  and  O17_19 
REMARK    5  A    between atoms: C19_22  and  O20_23 
ROOT
HETATM    1  O1          0      40.616 115.168   0.564  1.00  0.00    -0.286 OA
HETATM    2  C2          0      41.846 114.923   0.422  1.00  0.00     0.201 C 
HETATM    3  C3          0      42.769 115.101   1.439  1.00  0.00     0.067 C 
HETATM    4  C4          0      44.131 114.922   1.225  1.00  0.00     0.103 C 
HETATM    5  O13         0      44.542 114.554   0.025  1.00  0.00    -0.307 OA
HETATM    6  C14         0      43.712 114.407  -0.984  1.00  0.00     0.107 C 
HETATM    7  C15         0      44.152 114.419  -2.300  1.00  0.00     0.049 C 
HETATM    8  C16         0      43.257 114.520  -3.359  1.00  0.00     0.093 C 
HETATM    9  C18         0      41.968 114.080  -3.083  1.00  0.00     0.048 C 
HETATM   10  C19         0      41.512 114.012  -1.774  1.00  0.00     0.096 C 
HETATM   11  C21         0      42.343 114.365  -0.745  1.00  0.00     0.084 C 
ENDROOT
BRANCH  10  12
HETATM   12  O20         0      40.141 114.002  -1.531  1.00  0.00    -0.359 OA
HETATM   13  H20         0      39.813 114.526  -0.810  1.00  0.00     0.218 HD
ENDBRANCH  10  12
BRANCH   4  14
HETATM   14  C5          0      45.048 115.673   2.085  1.00  0.00     0.025 C 
HETATM   15  C6          0      44.749 116.933   2.583  1.00  0.00     0.004 C 
HETATM   16  C7          0      45.151 117.224   3.883  1.00  0.00     0.026 C 
HETATM   17  C8          0      45.940 116.344   4.617  1.00  0.00     0.112 C 
HETATM   18  C10         0      46.687 115.459   3.851  1.00  0.00     0.112 C 
HETATM   19  C12         0      46.218 115.120   2.588  1.00  0.00     0.028 C 
BRANCH  17  20
HETATM   20  O9          0      45.802 116.245   5.990  1.00  0.00    -0.357 OA
HETATM   21  H9          0      45.154 116.726   6.492  1.00  0.00     0.218 HD
ENDBRANCH  17  20
BRANCH  18  22
HETATM   22  O11         0      47.629 114.691   4.520  1.00  0.00    -0.357 OA
HETATM   23  H11         0      48.112 115.115   5.220  1.00  0.00     0.218 HD
ENDBRANCH  18  22
ENDBRANCH   4  14
BRANCH   8  24
HETATM   24  O17         0      43.542 115.306  -4.481  1.00  0.00    -0.359 OA
HETATM   25  H17         0      44.039 114.966  -5.215  1.00  0.00     0.218 HD
ENDBRANCH   8  24
TORSDOF 5
ENDMDL
MODEL 7
REMARK VINA RESULT:      -3.7      3.157      5.546
REMARK  5 active torsions:
REMARK  status: ('A' for Active; 'I' for Inactive)
REMARK    1  A    between atoms: C4_4  and  C5_5 
REMARK    2  A    between atoms: C8_8  and  O9_9 
REMARK    3  A    between atoms: C10_11  and  O11_12 
REMARK    4  A    between atoms: C16_18  and  O17_19 
REMARK    5  A    between atoms: C19_22  and  O20_23 
ROOT
HETATM    1  O1          0      45.746 110.592   0.211  1.00  0.00    -0.286 OA
HETATM    2  C2          0      45.531 111.797  -0.094  1.00  0.00     0.201 C 
HETATM    3  C3          0      46.138 112.856   0.560  1.00  0.00     0.067 C 
HETATM    4  C4          0      45.806 114.176   0.274  1.00  0.00     0.103 C 
HETATM    5  O13         0      44.903 114.415  -0.660  1.00  0.00    -0.307 OA
HETATM    6  C14         0      44.269 113.446  -1.284  1.00  0.00     0.107 C 
HETATM    7  C15         0      43.072 113.666  -1.950  1.00  0.00     0.049 C 
HETATM    8  C16         0      42.283 112.608  -2.385  1.00  0.00     0.093 C 
HETATM    9  C18         0      42.966 111.417  -2.601  1.00  0.00     0.048 C 
HETATM   10  C19         0      44.189 111.183  -1.987  1.00  0.00     0.096 C 
HETATM   11  C21         0      44.735 112.140  -1.176  1.00  0.00     0.084 C 
ENDROOT
BRANCH  10  12
HETATM   12  O20         0      44.642 109.875  -1.850  1.00  0.00    -0.359 OA
HETATM   13  H20         0      43.997 109.179  -1.845  1.00  0.00     0.218 HD
ENDBRANCH  10  12
BRANCH   4  14
HETATM   14  C5          0      45.994 115.160   1.342  1.00  0.00     0.025 C 
HETATM   15  C6          0      45.049 116.129   1.646  1.00  0.00     0.004 C 
HETATM   16  C7          0      44.855 116.442   2.987  1.00  0.00     0.026 C 
HETATM   17  C8          0      45.665 115.909   3.985  1.00  0.00     0.112 C 
HETATM   18  C10         0      46.917 115.491   3.553  1.00  0.00     0.112 C 
HETATM   19  C12         0      47.063 115.103   2.227  1.00  0.00     0.028 C 
BRANCH  17  20
HETATM   20  O9          0      45.155 115.638   5.242  1.00  0.00    -0.357 OA
HETATM   21  H9          0      44.393 115.093   5.396  1.00  0.00     0.218 HD
ENDBRANCH  17  20
BRANCH  18  22
HETATM   22  O11         0      47.831 115.129   4.533  1.00  0.00    -0.357 OA
HETATM   23  H11         0      47.643 115.412   5.421  1.00  0.00     0.218 HD
ENDBRANCH  18  22
ENDBRANCH   4  14
BRANCH   8  24
HETATM   24  O17         0      40.888 112.648  -2.282  1.00  0.00    -0.359 OA
HETATM   25  H17         0      40.431 112.266  -1.542  1.00  0.00     0.218 HD
ENDBRANCH   8  24
TORSDOF 5
ENDMDL
MODEL 8
REMARK VINA RESULT:      -3.6      1.971      3.259
REMARK  5 active torsions:
REMARK  status: ('A' for Active; 'I' for Inactive)
REMARK    1  A    between atoms: C4_4  and  C5_5 
REMARK    2  A    between atoms: C8_8  and  O9_9 
REMARK    3  A    between atoms: C10_11  and  O11_12 
REMARK    4  A    between atoms: C16_18  and  O17_19 
REMARK    5  A    between atoms: C19_22  and  O20_23 
ROOT
HETATM    1  O1          0      46.368 113.202   0.671  1.00  0.00    -0.286 OA
HETATM    2  C2          0      45.791 114.198   1.187  1.00  0.00     0.201 C 
HETATM    3  C3          0      46.286 114.860   2.297  1.00  0.00     0.067 C 
HETATM    4  C4          0      45.579 115.890   2.907  1.00  0.00     0.103 C 
HETATM    5  O13         0      44.416 116.252   2.394  1.00  0.00    -0.307 OA
HETATM    6  C14         0      43.883 115.632   1.364  1.00  0.00     0.107 C 
HETATM    7  C15         0      42.530 115.726   1.075  1.00  0.00     0.049 C 
HETATM    8  C16         0      41.928 114.878   0.152  1.00  0.00     0.093 C 
HETATM    9  C18         0      42.787 114.348  -0.804  1.00  0.00     0.048 C 
HETATM   10  C19         0      44.153 114.282  -0.566  1.00  0.00     0.096 C 
HETATM   11  C21         0      44.661 114.759   0.612  1.00  0.00     0.084 C 
ENDROOT
BRANCH  10  12
HETATM   12  O20         0      44.928 113.386  -1.296  1.00  0.00    -0.359 OA
HETATM   13  H20         0      45.172 112.568  -0.880  1.00  0.00     0.218 HD
ENDBRANCH  10  12
BRANCH   4  14
HETATM   14  C5          0      45.821 116.117   4.333  1.00  0.00     0.025 C 
HETATM   15  C6          0      47.075 116.419   4.844  1.00  0.00     0.004 C 
HETATM   16  C7          0      47.144 117.345   5.880  1.00  0.00     0.026 C 
HETATM   17  C8          0      45.997 117.853   6.480  1.00  0.00     0.112 C 
HETATM   18  C10         0      44.871 117.051   6.352  1.00  0.00     0.112 C 
HETATM   19  C12         0      44.790 116.195   5.260  1.00  0.00     0.028 C 
BRANCH  17  20
HETATM   20  O9          0      45.966 119.148   6.966  1.00  0.00    -0.357 OA
HETATM   21  H9          0      46.084 119.919   6.423  1.00  0.00     0.218 HD
ENDBRANCH  17  20
BRANCH  18  22
HETATM   22  O11         0      43.753 117.416   7.088  1.00  0.00    -0.357 OA
HETATM   23  H11         0      43.719 118.311   7.405  1.00  0.00     0.218 HD
ENDBRANCH  18  22
ENDBRANCH   4  14
BRANCH   8  24
HETATM   24  O17         0      40.654 114.344   0.375  1.00  0.00    -0.359 OA
HETATM   25  H17         0      40.354 114.117   1.247  1.00  0.00     0.218 HD
ENDBRANCH   8  24
TORSDOF 5
ENDMDL
MODEL 9
REMARK VINA RESULT:      -3.5      1.741      6.371
REMARK  5 active torsions:
REMARK  status: ('A' for Active; 'I' for Inactive)
REMARK    1  A    between atoms: C4_4  and  C5_5 
REMARK    2  A    between atoms: C8_8  and  O9_9 
REMARK    3  A    between atoms: C10_11  and  O11_12 
REMARK    4  A    between atoms: C16_18  and  O17_19 
REMARK    5  A    between atoms: C19_22  and  O20_23 
ROOT
HETATM    1  O1          0      48.264 117.904   6.217  1.00  0.00    -0.286 OA
HETATM    2  C2          0      47.182 117.327   5.924  1.00  0.00     0.201 C 
HETATM    3  C3          0      47.013 116.593   4.762  1.00  0.00     0.067 C 
HETATM    4  C4          0      45.780 116.053   4.414  1.00  0.00     0.103 C 
HETATM    5  O13         0      44.755 116.233   5.228  1.00  0.00    -0.307 OA
HETATM    6  C14         0      44.852 116.953   6.325  1.00  0.00     0.107 C 
HETATM    7  C15         0      43.733 117.475   6.957  1.00  0.00     0.049 C 
HETATM    8  C16         0      43.850 118.435   7.955  1.00  0.00     0.093 C 
HETATM    9  C18         0      45.067 118.439   8.626  1.00  0.00     0.048 C 
HETATM   10  C19         0      46.197 117.883   8.041  1.00  0.00     0.096 C 
HETATM   11  C21         0      46.108 117.312   6.801  1.00  0.00     0.084 C 
ENDROOT
BRANCH  10  12
HETATM   12  O20         0      47.455 118.265   8.495  1.00  0.00    -0.359 OA
HETATM   13  H20         0      48.125 117.595   8.565  1.00  0.00     0.218 HD
ENDBRANCH  10  12
BRANCH   4  14
HETATM   14  C5          0      45.519 115.843   2.989  1.00  0.00     0.025 C 
HETATM   15  C6          0      46.528 115.607   2.066  1.00  0.00     0.004 C 
HETATM   16  C7          0      46.273 114.689   1.052  1.00  0.00     0.026 C 
HETATM   17  C8          0      45.014 114.124   0.880  1.00  0.00     0.112 C 
HETATM   18  C10         0      43.967 114.868   1.409  1.00  0.00     0.112 C 
HETATM   19  C12         0      44.234 115.715   2.478  1.00  0.00     0.028 C 
BRANCH  17  20
HETATM   20  O9          0      44.876 112.831   0.408  1.00  0.00    -0.357 OA
HETATM   21  H9          0      44.344 112.597  -0.344  1.00  0.00     0.218 HD
ENDBRANCH  17  20
BRANCH  18  22
HETATM   22  O11         0      42.681 114.449   1.102  1.00  0.00    -0.357 OA
HETATM   23  H11         0      42.095 115.098   0.729  1.00  0.00     0.218 HD
ENDBRANCH  18  22
ENDBRANCH   4  14
BRANCH   8  24
HETATM   24  O17         0      42.961 119.512   8.038  1.00  0.00    -0.359 OA
HETATM   25  H17         0      42.103 119.484   7.632  1.00  0.00     0.218 HD
ENDBRANCH   8  24
TORSDOF 5
ENDMDL
