MODEL 1
REMARK VINA RESULT:      -2.7      0.000      0.000
REMARK  5 active torsions:
REMARK  status: ('A' for Active; 'I' for Inactive)
REMARK    1  A    between atoms: C4_4  and  C5_5 
REMARK    2  A    between atoms: C8_8  and  O9_9 
REMARK    3  A    between atoms: C10_11  and  O11_12 
REMARK    4  A    between atoms: C16_18  and  O17_19 
REMARK    5  A    between atoms: C19_22  and  O20_23 
ROOT
HETATM    1  O1          0      64.942  39.910 -11.339  1.00  0.00    -0.286 OA
HETATM    2  C2          0      63.829  39.606 -10.827  1.00  0.00     0.201 C 
HETATM    3  C3          0      63.531  38.329 -10.384  1.00  0.00     0.067 C 
HETATM    4  C4          0      62.263  37.997  -9.920  1.00  0.00     0.103 C 
HETATM    5  O13         0      61.333  38.935  -9.886  1.00  0.00    -0.307 OA
HETATM    6  C14         0      61.553  40.153 -10.330  1.00  0.00     0.107 C 
HETATM    7  C15         0      60.513  41.006 -10.670  1.00  0.00     0.049 C 
HETATM    8  C16         0      60.744  42.183 -11.371  1.00  0.00     0.093 C 
HETATM    9  C18         0      62.026  42.703 -11.238  1.00  0.00     0.048 C 
HETATM   10  C19         0      63.082  41.887 -10.855  1.00  0.00     0.096 C 
HETATM   11  C21         0      62.856  40.564 -10.589  1.00  0.00     0.084 C 
ENDROOT
BRANCH  10  12
HETATM   12  O20         0      64.385  42.282 -11.141  1.00  0.00    -0.359 OA
HETATM   13  H20         0      65.096  41.784 -10.755  1.00  0.00     0.218 HD
ENDBRANCH  10  12
BRANCH   4  14
HETATM   14  C5          0      61.849  36.598 -10.046  1.00  0.00     0.025 C 
HETATM   15  C6          0      60.519  36.204 -10.033  1.00  0.00     0.004 C 
HETATM   16  C7          0      60.143  35.174 -10.890  1.00  0.00     0.026 C 
HETATM   17  C8          0      61.080  34.468 -11.636  1.00  0.00     0.112 C 
HETATM   18  C10         0      62.370  34.495 -11.123  1.00  0.00     0.112 C 
HETATM   19  C12         0      62.746  35.579 -10.339  1.00  0.00     0.028 C 
BRANCH  17  20
HETATM   20  O9          0      60.762  33.975 -12.890  1.00  0.00    -0.357 OA
HETATM   21  H9          0      59.894  34.025 -13.272  1.00  0.00     0.218 HD
ENDBRANCH  17  20
BRANCH  18  22
HETATM   22  O11         0      63.302  33.658 -11.720  1.00  0.00    -0.357 OA
HETATM   23  H11         0      62.992  33.105 -12.428  1.00  0.00     0.218 HD
ENDBRANCH  18  22
ENDBRANCH   4  14
BRANCH   8  24
HETATM   24  O17         0      59.878  42.612 -12.383  1.00  0.00    -0.359 OA
HETATM   25  H17         0      58.935  42.529 -12.301  1.00  0.00     0.218 HD
ENDBRANCH   8  24
TORSDOF 5
ENDMDL
MODEL 2
REMARK VINA RESULT:      -2.3      1.768      2.183
REMARK  5 active torsions:
REMARK  status: ('A' for Active; 'I' for Inactive)
REMARK    1  A    between atoms: C4_4  and  C5_5 
REMARK    2  A    between atoms: C8_8  and  O9_9 
REMARK    3  A    between atoms: C10_11  and  O11_12 
REMARK    4  A    between atoms: C16_18  and  O17_19 
REMARK    5  A    between atoms: C19_22  and  O20_23 
ROOT
HETATM    1  O1          0      64.367  39.716 -14.154  1.00  0.00    -0.286 OA
HETATM    2  C2          0      64.270  39.666 -12.897  1.00  0.00     0.201 C 
HETATM    3  C3          0      64.209  38.473 -12.196  1.00  0.00     0.067 C 
HETATM    4  C4          0      63.999  38.445 -10.822  1.00  0.00     0.103 C 
HETATM    5  O13         0      63.876  39.591 -10.176  1.00  0.00    -0.307 OA
HETATM    6  C14         0      63.889  40.750 -10.797  1.00  0.00     0.107 C 
HETATM    7  C15         0      63.372  41.898 -10.214  1.00  0.00     0.049 C 
HETATM    8  C16         0      63.155  43.051 -10.960  1.00  0.00     0.093 C 
HETATM    9  C18         0      63.940  43.168 -12.101  1.00  0.00     0.048 C 
HETATM   10  C19         0      64.511  42.045 -12.683  1.00  0.00     0.096 C 
HETATM   11  C21         0      64.313  40.814 -12.120  1.00  0.00     0.084 C 
ENDROOT
BRANCH  10  12
HETATM   12  O20         0      64.907  42.097 -14.016  1.00  0.00    -0.359 OA
HETATM   13  H20         0      64.296  42.457 -14.648  1.00  0.00     0.218 HD
ENDBRANCH  10  12
BRANCH   4  14
HETATM   14  C5          0      63.362  37.250 -10.267  1.00  0.00     0.025 C 
HETATM   15  C6          0      62.004  37.182  -9.988  1.00  0.00     0.004 C 
HETATM   16  C7          0      61.351  35.983 -10.251  1.00  0.00     0.026 C 
HETATM   17  C8          0      62.046  34.846 -10.651  1.00  0.00     0.112 C 
HETATM   18  C10         0      63.388  34.831 -10.292  1.00  0.00     0.112 C 
HETATM   19  C12         0      64.039  36.046 -10.118  1.00  0.00     0.028 C 
BRANCH  17  20
HETATM   20  O9          0      61.472  33.931 -11.515  1.00  0.00    -0.357 OA
HETATM   21  H9          0      61.349  34.088 -12.444  1.00  0.00     0.218 HD
ENDBRANCH  17  20
BRANCH  18  22
HETATM   22  O11         0      64.080  33.646 -10.498  1.00  0.00    -0.357 OA
HETATM   23  H11         0      64.933  33.569 -10.087  1.00  0.00     0.218 HD
ENDBRANCH  18  22
ENDBRANCH   4  14
BRANCH   8  24
HETATM   24  O17         0      62.018  43.842 -10.763  1.00  0.00    -0.359 OA
HETATM   25  H17         0      61.695  44.427 -11.438  1.00  0.00     0.218 HD
ENDBRANCH   8  24
TORSDOF 5
ENDMDL
MODEL 3
REMARK VINA RESULT:      -2.3      2.425      6.688
REMARK  5 active torsions:
REMARK  status: ('A' for Active; 'I' for Inactive)
REMARK    1  A    between atoms: C4_4  and  C5_5 
REMARK    2  A    between atoms: C8_8  and  O9_9 
REMARK    3  A    between atoms: C10_11  and  O11_12 
REMARK    4  A    between atoms: C16_18  and  O17_19 
REMARK    5  A    between atoms: C19_22  and  O20_23 
ROOT
HETATM    1  O1          0      62.682  33.490 -12.662  1.00  0.00    -0.286 OA
HETATM    2  C2          0      62.864  34.385 -11.792  1.00  0.00     0.201 C 
HETATM    3  C3          0      61.951  35.399 -11.556  1.00  0.00     0.067 C 
HETATM    4  C4          0      62.222  36.430 -10.664  1.00  0.00     0.103 C 
HETATM    5  O13         0      63.374  36.422 -10.015  1.00  0.00    -0.307 OA
HETATM    6  C14         0      64.291  35.504 -10.230  1.00  0.00     0.107 C 
HETATM    7  C15         0      65.618  35.700  -9.875  1.00  0.00     0.049 C 
HETATM    8  C16         0      66.618  34.848 -10.327  1.00  0.00     0.093 C 
HETATM    9  C18         0      66.193  33.569 -10.665  1.00  0.00     0.048 C 
HETATM   10  C19         0      64.862  33.329 -10.980  1.00  0.00     0.096 C 
HETATM   11  C21         0      63.959  34.356 -10.941  1.00  0.00     0.084 C 
ENDROOT
BRANCH  10  12
HETATM   12  O20         0      64.531  32.198 -11.719  1.00  0.00    -0.359 OA
HETATM   13  H20         0      63.616  32.054 -11.929  1.00  0.00     0.218 HD
ENDBRANCH  10  12
BRANCH   4  14
HETATM   14  C5          0      61.554  37.711 -10.899  1.00  0.00     0.025 C 
HETATM   15  C6          0      61.011  38.475  -9.875  1.00  0.00     0.004 C 
HETATM   16  C7          0      61.143  39.857  -9.963  1.00  0.00     0.026 C 
HETATM   17  C8          0      61.676  40.469 -11.092  1.00  0.00     0.112 C 
HETATM   18  C10         0      61.592  39.715 -12.254  1.00  0.00     0.112 C 
HETATM   19  C12         0      61.547  38.330 -12.142  1.00  0.00     0.028 C 
BRANCH  17  20
HETATM   20  O9          0      62.411  41.636 -10.984  1.00  0.00    -0.357 OA
HETATM   21  H9          0      63.072  41.785 -10.318  1.00  0.00     0.218 HD
ENDBRANCH  17  20
BRANCH  18  22
HETATM   22  O11         0      61.935  40.348 -13.440  1.00  0.00    -0.357 OA
HETATM   23  H11         0      61.227  40.738 -13.940  1.00  0.00     0.218 HD
ENDBRANCH  18  22
ENDBRANCH   4  14
BRANCH   8  24
HETATM   24  O17         0      67.867  35.338 -10.727  1.00  0.00    -0.359 OA
HETATM   25  H17         0      67.951  35.992 -11.411  1.00  0.00     0.218 HD
ENDBRANCH   8  24
TORSDOF 5
ENDMDL
MODEL 4
REMARK VINA RESULT:      -2.2      1.584      2.147
REMARK  5 active torsions:
REMARK  status: ('A' for Active; 'I' for Inactive)
REMARK    1  A    between atoms: C4_4  and  C5_5 
REMARK    2  A    between atoms: C8_8  and  O9_9 
REMARK    3  A    between atoms: C10_11  and  O11_12 
REMARK    4  A    between atoms: C16_18  and  O17_19 
REMARK    5  A    between atoms: C19_22  and  O20_23 
ROOT
HETATM    1  O1          0      66.443  37.584 -10.535  1.00  0.00    -0.286 OA
HETATM    2  C2          0      65.211  37.783 -10.348  1.00  0.00     0.201 C 
HETATM    3  C3          0      64.317  36.759 -10.082  1.00  0.00     0.067 C 
HETATM    4  C4          0      62.950  36.993  -9.983  1.00  0.00     0.103 C 
HETATM    5  O13         0      62.506  38.229 -10.126  1.00  0.00    -0.307 OA
HETATM    6  C14         0      63.306  39.230 -10.417  1.00  0.00     0.107 C 
HETATM    7  C15         0      62.828  40.417 -10.954  1.00  0.00     0.049 C 
HETATM    8  C16         0      63.690  41.365 -11.492  1.00  0.00     0.093 C 
HETATM    9  C18         0      64.989  41.323 -11.000  1.00  0.00     0.048 C 
HETATM   10  C19         0      65.484  40.167 -10.413  1.00  0.00     0.096 C 
HETATM   11  C21         0      64.682  39.064 -10.304  1.00  0.00     0.084 C 
ENDROOT
BRANCH  10  12
HETATM   12  O20         0      66.861  39.984 -10.328  1.00  0.00    -0.359 OA
HETATM   13  H20         0      67.392  40.246 -11.070  1.00  0.00     0.218 HD
ENDBRANCH  10  12
BRANCH   4  14
HETATM   14  C5          0      62.056  35.880 -10.304  1.00  0.00     0.025 C 
HETATM   15  C6          0      60.677  35.962 -10.176  1.00  0.00     0.004 C 
HETATM   16  C7          0      59.901  35.336 -11.146  1.00  0.00     0.026 C 
HETATM   17  C8          0      60.470  34.541 -12.135  1.00  0.00     0.112 C 
HETATM   18  C10         0      61.716  34.019 -11.813  1.00  0.00     0.112 C 
HETATM   19  C12         0      62.507  34.711 -10.904  1.00  0.00     0.028 C 
BRANCH  17  20
HETATM   20  O9          0      59.913  34.475 -13.400  1.00  0.00    -0.357 OA
HETATM   21  H9          0      59.432  33.723 -13.726  1.00  0.00     0.218 HD
ENDBRANCH  17  20
BRANCH  18  22
HETATM   22  O11         0      62.243  33.072 -12.680  1.00  0.00    -0.357 OA
HETATM   23  H11         0      61.773  32.249 -12.755  1.00  0.00     0.218 HD
ENDBRANCH  18  22
ENDBRANCH   4  14
BRANCH   8  24
HETATM   24  O17         0      63.368  42.063 -12.661  1.00  0.00    -0.359 OA
HETATM   25  H17         0      62.674  42.711 -12.680  1.00  0.00     0.218 HD
ENDBRANCH   8  24
TORSDOF 5
ENDMDL
MODEL 5
REMARK VINA RESULT:      -2.2      2.141      6.615
REMARK  5 active torsions:
REMARK  status: ('A' for Active; 'I' for Inactive)
REMARK    1  A    between atoms: C4_4  and  C5_5 
REMARK    2  A    between atoms: C8_8  and  O9_9 
REMARK    3  A    between atoms: C10_11  and  O11_12 
REMARK    4  A    between atoms: C16_18  and  O17_19 
REMARK    5  A    between atoms: C19_22  and  O20_23 
ROOT
HETATM    1  O1          0      59.893  37.385 -11.014  1.00  0.00    -0.286 OA
HETATM    2  C2          0      60.669  38.358 -10.807  1.00  0.00     0.201 C 
HETATM    3  C3          0      60.287  39.676 -10.992  1.00  0.00     0.067 C 
HETATM    4  C4          0      61.191  40.723 -10.856  1.00  0.00     0.103 C 
HETATM    5  O13         0      62.439  40.444 -10.523  1.00  0.00    -0.307 OA
HETATM    6  C14         0      62.863  39.209 -10.373  1.00  0.00     0.107 C 
HETATM    7  C15         0      64.212  38.888 -10.422  1.00  0.00     0.049 C 
HETATM    8  C16         0      64.637  37.568 -10.519  1.00  0.00     0.093 C 
HETATM    9  C18         0      63.737  36.625 -10.037  1.00  0.00     0.048 C 
HETATM   10  C19         0      62.387  36.929  -9.930  1.00  0.00     0.096 C 
HETATM   11  C21         0      61.940  38.172 -10.286  1.00  0.00     0.084 C 
ENDROOT
BRANCH  10  12
HETATM   12  O20         0      61.459  35.893  -9.875  1.00  0.00    -0.359 OA
HETATM   13  H20         0      60.537  36.121  -9.865  1.00  0.00     0.218 HD
ENDBRANCH  10  12
BRANCH   4  14
HETATM   14  C5          0      60.921  41.944 -11.617  1.00  0.00     0.025 C 
HETATM   15  C6          0      61.353  43.197 -11.206  1.00  0.00     0.004 C 
HETATM   16  C7          0      61.795  44.079 -12.186  1.00  0.00     0.026 C 
HETATM   17  C8          0      61.686  43.780 -13.540  1.00  0.00     0.112 C 
HETATM   18  C10         0      60.705  42.848 -13.851  1.00  0.00     0.112 C 
HETATM   19  C12         0      60.342  41.922 -12.879  1.00  0.00     0.028 C 
BRANCH  17  20
HETATM   20  O9          0      62.633  44.229 -14.444  1.00  0.00    -0.357 OA
HETATM   21  H9          0      63.504  44.518 -14.196  1.00  0.00     0.218 HD
ENDBRANCH  17  20
BRANCH  18  22
HETATM   22  O11         0      60.426  42.654 -15.196  1.00  0.00    -0.357 OA
HETATM   23  H11         0      60.432  41.757 -15.511  1.00  0.00     0.218 HD
ENDBRANCH  18  22
ENDBRANCH   4  14
BRANCH   8  24
HETATM   24  O17         0      65.715  37.207 -11.335  1.00  0.00    -0.359 OA
HETATM   25  H17         0      66.474  36.754 -10.987  1.00  0.00     0.218 HD
ENDBRANCH   8  24
TORSDOF 5
ENDMDL
MODEL 6
REMARK VINA RESULT:      -2.2      1.979      2.689
REMARK  5 active torsions:
REMARK  status: ('A' for Active; 'I' for Inactive)
REMARK    1  A    between atoms: C4_4  and  C5_5 
REMARK    2  A    between atoms: C8_8  and  O9_9 
REMARK    3  A    between atoms: C10_11  and  O11_12 
REMARK    4  A    between atoms: C16_18  and  O17_19 
REMARK    5  A    between atoms: C19_22  and  O20_23 
ROOT
HETATM    1  O1          0      66.294  38.991 -13.685  1.00  0.00    -0.286 OA
HETATM    2  C2          0      65.751  39.095 -12.551  1.00  0.00     0.201 C 
HETATM    3  C3          0      65.455  38.000 -11.757  1.00  0.00     0.067 C 
HETATM    4  C4          0      64.764  38.135 -10.558  1.00  0.00     0.103 C 
HETATM    5  O13         0      64.403  39.344 -10.166  1.00  0.00    -0.307 OA
HETATM    6  C14         0      64.626  40.412 -10.900  1.00  0.00     0.107 C 
HETATM    7  C15         0      63.922  41.592 -10.706  1.00  0.00     0.049 C 
HETATM    8  C16         0      63.974  42.624 -11.634  1.00  0.00     0.093 C 
HETATM    9  C18         0      65.116  42.644 -12.427  1.00  0.00     0.048 C 
HETATM   10  C19         0      65.871  41.492 -12.604  1.00  0.00     0.096 C 
HETATM   11  C21         0      65.498  40.333 -11.980  1.00  0.00     0.084 C 
ENDROOT
BRANCH  10  12
HETATM   12  O20         0      66.720  41.398 -13.702  1.00  0.00    -0.359 OA
HETATM   13  H20         0      67.581  41.792 -13.634  1.00  0.00     0.218 HD
ENDBRANCH  10  12
BRANCH   4  14
HETATM   14  C5          0      63.983  36.983 -10.102  1.00  0.00     0.025 C 
HETATM   15  C6          0      62.606  37.025  -9.941  1.00  0.00     0.004 C 
HETATM   16  C7          0      61.880  35.895 -10.303  1.00  0.00     0.026 C 
HETATM   17  C8          0      62.509  34.715 -10.684  1.00  0.00     0.112 C 
HETATM   18  C10         0      63.808  34.573 -10.215  1.00  0.00     0.112 C 
HETATM   19  C12         0      64.541  35.722  -9.942  1.00  0.00     0.028 C 
BRANCH  17  20
HETATM   20  O9          0      61.937  33.879 -11.627  1.00  0.00    -0.357 OA
HETATM   21  H9          0      62.425  33.234 -12.126  1.00  0.00     0.218 HD
ENDBRANCH  17  20
BRANCH  18  22
HETATM   22  O11         0      64.414  33.339 -10.405  1.00  0.00    -0.357 OA
HETATM   23  H11         0      65.208  33.325 -10.927  1.00  0.00     0.218 HD
ENDBRANCH  18  22
ENDBRANCH   4  14
BRANCH   8  24
HETATM   24  O17         0      62.834  43.363 -11.969  1.00  0.00    -0.359 OA
HETATM   25  H17         0      62.768  43.834 -12.791  1.00  0.00     0.218 HD
ENDBRANCH   8  24
TORSDOF 5
ENDMDL
MODEL 7
REMARK VINA RESULT:      -2.1      3.093      5.236
REMARK  5 active torsions:
REMARK  status: ('A' for Active; 'I' for Inactive)
REMARK    1  A    between atoms: C4_4  and  C5_5 
REMARK    2  A    between atoms: C8_8  and  O9_9 
REMARK    3  A    between atoms: C10_11  and  O11_12 
REMARK    4  A    between atoms: C16_18  and  O17_19 
REMARK    5  A    between atoms: C19_22  and  O20_23 
ROOT
HETATM    1  O1          0      61.373  44.555 -14.414  1.00  0.00    -0.286 OA
HETATM    2  C2          0      61.730  44.330 -13.226  1.00  0.00     0.201 C 
HETATM    3  C3          0      61.870  43.052 -12.713  1.00  0.00     0.067 C 
HETATM    4  C4          0      62.165  42.833 -11.372  1.00  0.00     0.103 C 
HETATM    5  O13         0      62.335  43.877 -10.581  1.00  0.00    -0.307 OA
HETATM    6  C14         0      62.177  45.111 -11.008  1.00  0.00     0.107 C 
HETATM    7  C15         0      61.957  46.165 -10.133  1.00  0.00     0.049 C 
HETATM    8  C16         0      61.540  47.409 -10.591  1.00  0.00     0.093 C 
HETATM    9  C18         0      61.868  47.687 -11.913  1.00  0.00     0.048 C 
HETATM   10  C19         0      62.140  46.658 -12.804  1.00  0.00     0.096 C 
HETATM   11  C21         0      62.101  45.360 -12.374  1.00  0.00     0.084 C 
ENDROOT
BRANCH  10  12
HETATM   12  O20         0      62.034  46.896 -14.171  1.00  0.00    -0.359 OA
HETATM   13  H20         0      61.193  46.743 -14.585  1.00  0.00     0.218 HD
ENDBRANCH  10  12
BRANCH   4  14
HETATM   14  C5          0      61.716  41.569 -10.785  1.00  0.00     0.025 C 
HETATM   15  C6          0      60.426  41.083 -10.943  1.00  0.00     0.004 C 
HETATM   16  C7          0      60.271  39.711 -11.113  1.00  0.00     0.026 C 
HETATM   17  C8          0      61.345  38.835 -10.996  1.00  0.00     0.112 C 
HETATM   18  C10         0      62.404  39.315 -10.237  1.00  0.00     0.112 C 
HETATM   19  C12         0      62.587  40.691 -10.153  1.00  0.00     0.028 C 
BRANCH  17  20
HETATM   20  O9          0      61.407  37.683 -11.760  1.00  0.00    -0.357 OA
HETATM   21  H9          0      62.200  37.371 -12.181  1.00  0.00     0.218 HD
ENDBRANCH  17  20
BRANCH  18  22
HETATM   22  O11         0      63.416  38.416  -9.930  1.00  0.00    -0.357 OA
HETATM   23  H11         0      63.156  37.519  -9.759  1.00  0.00     0.218 HD
ENDBRANCH  18  22
ENDBRANCH   4  14
BRANCH   8  24
HETATM   24  O17         0      60.587  48.161  -9.896  1.00  0.00    -0.359 OA
HETATM   25  H17         0      60.179  48.928 -10.280  1.00  0.00     0.218 HD
ENDBRANCH   8  24
TORSDOF 5
ENDMDL
MODEL 8
REMARK VINA RESULT:      -2.1      2.126      3.118
REMARK  5 active torsions:
REMARK  status: ('A' for Active; 'I' for Inactive)
REMARK    1  A    between atoms: C4_4  and  C5_5 
REMARK    2  A    between atoms: C8_8  and  O9_9 
REMARK    3  A    between atoms: C10_11  and  O11_12 
REMARK    4  A    between atoms: C16_18  and  O17_19 
REMARK    5  A    between atoms: C19_22  and  O20_23 
ROOT
HETATM    1  O1          0      66.412  39.493 -11.883  1.00  0.00    -0.286 OA
HETATM    2  C2          0      65.500  38.696 -11.530  1.00  0.00     0.201 C 
HETATM    3  C3          0      65.495  37.357 -11.881  1.00  0.00     0.067 C 
HETATM    4  C4          0      64.427  36.525 -11.565  1.00  0.00     0.103 C 
HETATM    5  O13         0      63.406  37.029 -10.896  1.00  0.00    -0.307 OA
HETATM    6  C14         0      63.343  38.302 -10.571  1.00  0.00     0.107 C 
HETATM    7  C15         0      62.142  38.914 -10.241  1.00  0.00     0.049 C 
HETATM    8  C16         0      62.037  40.296 -10.150  1.00  0.00     0.093 C 
HETATM    9  C18         0      63.228  40.958  -9.875  1.00  0.00     0.048 C 
HETATM   10  C19         0      64.449  40.356 -10.149  1.00  0.00     0.096 C 
HETATM   11  C21         0      64.480  39.094 -10.678  1.00  0.00     0.084 C 
ENDROOT
BRANCH  10  12
HETATM   12  O20         0      65.583  41.150 -10.289  1.00  0.00    -0.359 OA
HETATM   13  H20         0      66.040  41.132 -11.121  1.00  0.00     0.218 HD
ENDBRANCH  10  12
BRANCH   4  14
HETATM   14  C5          0      64.199  35.369 -12.435  1.00  0.00     0.025 C 
HETATM   15  C6          0      65.229  34.689 -13.067  1.00  0.00     0.004 C 
HETATM   16  C7          0      65.126  33.305 -13.160  1.00  0.00     0.026 C 
HETATM   17  C8          0      63.977  32.630 -12.759  1.00  0.00     0.112 C 
HETATM   18  C10         0      62.824  33.404 -12.752  1.00  0.00     0.112 C 
HETATM   19  C12         0      62.951  34.776 -12.572  1.00  0.00     0.028 C 
BRANCH  17  20
HETATM   20  O9          0      64.054  31.360 -12.217  1.00  0.00    -0.357 OA
HETATM   21  H9          0      63.460  31.034 -11.551  1.00  0.00     0.218 HD
ENDBRANCH  17  20
BRANCH  18  22
HETATM   22  O11         0      61.623  32.740 -12.544  1.00  0.00    -0.357 OA
HETATM   23  H11         0      61.638  32.001 -11.947  1.00  0.00     0.218 HD
ENDBRANCH  18  22
ENDBRANCH   4  14
BRANCH   8  24
HETATM   24  O17         0      60.911  40.976 -10.627  1.00  0.00    -0.359 OA
HETATM   25  H17         0      60.817  41.203 -11.545  1.00  0.00     0.218 HD
ENDBRANCH   8  24
TORSDOF 5
ENDMDL
MODEL 9
REMARK VINA RESULT:      -2.0      2.128      6.857
REMARK  5 active torsions:
REMARK  status: ('A' for Active; 'I' for Inactive)
REMARK    1  A    between atoms: C4_4  and  C5_5 
REMARK    2  A    between atoms: C8_8  and  O9_9 
REMARK    3  A    between atoms: C10_11  and  O11_12 
REMARK    4  A    between atoms: C16_18  and  O17_19 
REMARK    5  A    between atoms: C19_22  and  O20_23 
ROOT
HETATM    1  O1          0      61.918  36.011 -12.000  1.00  0.00    -0.286 OA
HETATM    2  C2          0      62.675  36.799 -11.370  1.00  0.00     0.201 C 
HETATM    3  C3          0      62.486  38.170 -11.356  1.00  0.00     0.067 C 
HETATM    4  C4          0      63.393  39.025 -10.739  1.00  0.00     0.103 C 
HETATM    5  O13         0      64.448  38.503 -10.137  1.00  0.00    -0.307 OA
HETATM    6  C14         0      64.695  37.212 -10.153  1.00  0.00     0.107 C 
HETATM    7  C15         0      65.959  36.706  -9.890  1.00  0.00     0.049 C 
HETATM    8  C16         0      66.276  35.379 -10.155  1.00  0.00     0.093 C 
HETATM    9  C18         0      65.192  34.509 -10.171  1.00  0.00     0.048 C 
HETATM   10  C19         0      63.906  34.988 -10.386  1.00  0.00     0.096 C 
HETATM   11  C21         0      63.703  36.329 -10.566  1.00  0.00     0.084 C 
ENDROOT
BRANCH  10  12
HETATM   12  O20         0      62.920  34.113 -10.829  1.00  0.00    -0.359 OA
HETATM   13  H20         0      62.021  34.291 -10.578  1.00  0.00     0.218 HD
ENDBRANCH  10  12
BRANCH   4  14
HETATM   14  C5          0      63.479  40.394 -11.251  1.00  0.00     0.025 C 
HETATM   15  C6          0      64.252  40.738 -12.350  1.00  0.00     0.004 C 
HETATM   16  C7          0      63.738  41.686 -13.229  1.00  0.00     0.026 C 
HETATM   17  C8          0      62.557  42.368 -12.956  1.00  0.00     0.112 C 
HETATM   18  C10         0      62.219  42.428 -11.611  1.00  0.00     0.112 C 
HETATM   19  C12         0      62.676  41.420 -10.770  1.00  0.00     0.028 C 
BRANCH  17  20
HETATM   20  O9          0      61.709  42.754 -13.979  1.00  0.00    -0.357 OA
HETATM   21  H9          0      61.678  42.328 -14.828  1.00  0.00     0.218 HD
ENDBRANCH  17  20
BRANCH  18  22
HETATM   22  O11         0      61.158  43.252 -11.265  1.00  0.00    -0.357 OA
HETATM   23  H11         0      61.331  43.927 -10.618  1.00  0.00     0.218 HD
ENDBRANCH  18  22
ENDBRANCH   4  14
BRANCH   8  24
HETATM   24  O17         0      67.516  35.018 -10.692  1.00  0.00    -0.359 OA
HETATM   25  H17         0      67.700  34.129 -10.971  1.00  0.00     0.218 HD
ENDBRANCH   8  24
TORSDOF 5
ENDMDL
