MODEL 1
REMARK VINA RESULT:      -5.3      0.000      0.000
REMARK  5 active torsions:
REMARK  status: ('A' for Active; 'I' for Inactive)
REMARK    1  A    between atoms: C4_4  and  C5_5 
REMARK    2  A    between atoms: C8_8  and  O9_9 
REMARK    3  A    between atoms: C10_11  and  O11_12 
REMARK    4  A    between atoms: C16_18  and  O17_19 
REMARK    5  A    between atoms: C19_22  and  O20_23 
ROOT
HETATM    1  O1          0      52.440   9.355  20.353  1.00  0.00    -0.286 OA
HETATM    2  C2          0      52.096   8.970  21.505  1.00  0.00     0.201 C 
HETATM    3  C3          0      53.010   8.615  22.482  1.00  0.00     0.067 C 
HETATM    4  C4          0      52.603   8.097  23.706  1.00  0.00     0.103 C 
HETATM    5  O13         0      51.310   7.965  23.941  1.00  0.00    -0.307 OA
HETATM    6  C14         0      50.401   8.252  23.035  1.00  0.00     0.107 C 
HETATM    7  C15         0      49.109   7.754  23.112  1.00  0.00     0.049 C 
HETATM    8  C16         0      48.235   7.846  22.035  1.00  0.00     0.093 C 
HETATM    9  C18         0      48.508   8.877  21.144  1.00  0.00     0.048 C 
HETATM   10  C19         0      49.779   9.430  21.074  1.00  0.00     0.096 C 
HETATM   11  C21         0      50.767   8.969  21.901  1.00  0.00     0.084 C 
ENDROOT
BRANCH  10  12
HETATM   12  O20         0      50.158  10.121  19.927  1.00  0.00    -0.359 OA
HETATM   13  H20         0      49.507  10.664  19.499  1.00  0.00     0.218 HD
ENDBRANCH  10  12
BRANCH   4  14
HETATM   14  C5          0      53.541   7.217  24.406  1.00  0.00     0.025 C 
HETATM   15  C6          0      54.792   6.897  23.900  1.00  0.00     0.004 C 
HETATM   16  C7          0      55.847   6.801  24.802  1.00  0.00     0.026 C 
HETATM   17  C8          0      55.642   6.888  26.175  1.00  0.00     0.112 C 
HETATM   18  C10         0      54.356   6.571  26.591  1.00  0.00     0.112 C 
HETATM   19  C12         0      53.309   6.757  25.696  1.00  0.00     0.028 C 
BRANCH  17  20
HETATM   20  O9          0      56.600   7.450  27.001  1.00  0.00    -0.357 OA
HETATM   21  H9          0      57.103   6.957  27.638  1.00  0.00     0.218 HD
ENDBRANCH  17  20
BRANCH  18  22
HETATM   22  O11         0      54.147   6.457  27.958  1.00  0.00    -0.357 OA
HETATM   23  H11         0      53.322   6.077  28.237  1.00  0.00     0.218 HD
ENDBRANCH  18  22
ENDBRANCH   4  14
BRANCH   8  24
HETATM   24  O17         0      47.374   6.794  21.702  1.00  0.00    -0.359 OA
HETATM   25  H17         0      47.046   6.191  22.359  1.00  0.00     0.218 HD
ENDBRANCH   8  24
TORSDOF 5
ENDMDL
MODEL 2
REMARK VINA RESULT:      -5.1      2.593      4.544
REMARK  5 active torsions:
REMARK  status: ('A' for Active; 'I' for Inactive)
REMARK    1  A    between atoms: C4_4  and  C5_5 
REMARK    2  A    between atoms: C8_8  and  O9_9 
REMARK    3  A    between atoms: C10_11  and  O11_12 
REMARK    4  A    between atoms: C16_18  and  O17_19 
REMARK    5  A    between atoms: C19_22  and  O20_23 
ROOT
HETATM    1  O1          0      49.226   7.430  25.855  1.00  0.00    -0.286 OA
HETATM    2  C2          0      50.390   6.944  25.840  1.00  0.00     0.201 C 
HETATM    3  C3          0      50.858   6.085  26.820  1.00  0.00     0.067 C 
HETATM    4  C4          0      52.177   5.647  26.835  1.00  0.00     0.103 C 
HETATM    5  O13         0      52.990   6.049  25.875  1.00  0.00    -0.307 OA
HETATM    6  C14         0      52.608   6.893  24.942  1.00  0.00     0.107 C 
HETATM    7  C15         0      53.523   7.617  24.193  1.00  0.00     0.049 C 
HETATM    8  C16         0      53.121   8.683  23.396  1.00  0.00     0.093 C 
HETATM    9  C18         0      51.795   8.639  22.983  1.00  0.00     0.048 C 
HETATM   10  C19         0      50.862   7.886  23.683  1.00  0.00     0.096 C 
HETATM   11  C21         0      51.254   7.168  24.779  1.00  0.00     0.084 C 
ENDROOT
BRANCH  10  12
HETATM   12  O20         0      49.509   8.180  23.546  1.00  0.00    -0.359 OA
HETATM   13  H20         0      49.070   8.604  24.273  1.00  0.00     0.218 HD
ENDBRANCH  10  12
BRANCH   4  14
HETATM   14  C5          0      52.745   5.279  28.134  1.00  0.00     0.025 C 
HETATM   15  C6          0      53.548   4.162  28.314  1.00  0.00     0.004 C 
HETATM   16  C7          0      54.625   4.277  29.187  1.00  0.00     0.026 C 
HETATM   17  C8          0      54.821   5.418  29.957  1.00  0.00     0.112 C 
HETATM   18  C10         0      53.676   6.170  30.181  1.00  0.00     0.112 C 
HETATM   19  C12         0      52.648   6.102  29.248  1.00  0.00     0.028 C 
BRANCH  17  20
HETATM   20  O9          0      56.098   5.848  30.275  1.00  0.00    -0.357 OA
HETATM   21  H9          0      56.727   6.153  29.631  1.00  0.00     0.218 HD
ENDBRANCH  17  20
BRANCH  18  22
HETATM   22  O11         0      53.776   7.210  31.095  1.00  0.00    -0.357 OA
HETATM   23  H11         0      53.319   8.015  30.882  1.00  0.00     0.218 HD
ENDBRANCH  18  22
ENDBRANCH   4  14
BRANCH   8  24
HETATM   24  O17         0      53.880   9.855  23.308  1.00  0.00    -0.359 OA
HETATM   25  H17         0      54.323  10.103  22.505  1.00  0.00     0.218 HD
ENDBRANCH   8  24
TORSDOF 5
ENDMDL
MODEL 3
REMARK VINA RESULT:      -5.0      2.125      3.779
REMARK  5 active torsions:
REMARK  status: ('A' for Active; 'I' for Inactive)
REMARK    1  A    between atoms: C4_4  and  C5_5 
REMARK    2  A    between atoms: C8_8  and  O9_9 
REMARK    3  A    between atoms: C10_11  and  O11_12 
REMARK    4  A    between atoms: C16_18  and  O17_19 
REMARK    5  A    between atoms: C19_22  and  O20_23 
ROOT
HETATM    1  O1          0      47.669   7.498  25.585  1.00  0.00    -0.286 OA
HETATM    2  C2          0      48.508   7.433  24.645  1.00  0.00     0.201 C 
HETATM    3  C3          0      49.869   7.306  24.861  1.00  0.00     0.067 C 
HETATM    4  C4          0      50.780   7.341  23.811  1.00  0.00     0.103 C 
HETATM    5  O13         0      50.323   7.480  22.579  1.00  0.00    -0.307 OA
HETATM    6  C14         0      49.044   7.642  22.322  1.00  0.00     0.107 C 
HETATM    7  C15         0      48.603   8.178  21.121  1.00  0.00     0.049 C 
HETATM    8  C16         0      47.284   8.583  20.953  1.00  0.00     0.093 C 
HETATM    9  C18         0      46.367   7.959  21.790  1.00  0.00     0.048 C 
HETATM   10  C19         0      46.782   7.371  22.977  1.00  0.00     0.096 C 
HETATM   11  C21         0      48.107   7.392  23.318  1.00  0.00     0.084 C 
ENDROOT
BRANCH  10  12
HETATM   12  O20         0      45.851   7.149  23.988  1.00  0.00    -0.359 OA
HETATM   13  H20         0      45.725   6.258  24.288  1.00  0.00     0.218 HD
ENDBRANCH  10  12
BRANCH   4  14
HETATM   14  C5          0      52.136   7.800  24.116  1.00  0.00     0.025 C 
HETATM   15  C6          0      52.855   7.347  25.213  1.00  0.00     0.004 C 
HETATM   16  C7          0      54.220   7.136  25.046  1.00  0.00     0.026 C 
HETATM   17  C8          0      54.875   7.491  23.872  1.00  0.00     0.112 C 
HETATM   18  C10         0      54.239   8.476  23.128  1.00  0.00     0.112 C 
HETATM   19  C12         0      52.861   8.609  23.250  1.00  0.00     0.028 C 
BRANCH  17  20
HETATM   20  O9          0      55.951   6.754  23.410  1.00  0.00    -0.357 OA
HETATM   21  H9          0      56.858   6.976  23.586  1.00  0.00     0.218 HD
ENDBRANCH  17  20
BRANCH  18  22
HETATM   22  O11         0      54.939   9.000  22.051  1.00  0.00    -0.357 OA
HETATM   23  H11         0      54.881   8.526  21.229  1.00  0.00     0.218 HD
ENDBRANCH  18  22
ENDBRANCH   4  14
BRANCH   8  24
HETATM   24  O17         0      46.963   9.750  20.250  1.00  0.00    -0.359 OA
HETATM   25  H17         0      46.934   9.769  19.301  1.00  0.00     0.218 HD
ENDBRANCH   8  24
TORSDOF 5
ENDMDL
MODEL 4
REMARK VINA RESULT:      -4.9      8.958     11.643
REMARK  5 active torsions:
REMARK  status: ('A' for Active; 'I' for Inactive)
REMARK    1  A    between atoms: C4_4  and  C5_5 
REMARK    2  A    between atoms: C8_8  and  O9_9 
REMARK    3  A    between atoms: C10_11  and  O11_12 
REMARK    4  A    between atoms: C16_18  and  O17_19 
REMARK    5  A    between atoms: C19_22  and  O20_23 
ROOT
HETATM    1  O1          0      50.709   9.224  36.981  1.00  0.00    -0.286 OA
HETATM    2  C2          0      50.312   8.367  36.145  1.00  0.00     0.201 C 
HETATM    3  C3          0      51.154   7.425  35.579  1.00  0.00     0.067 C 
HETATM    4  C4          0      50.714   6.559  34.584  1.00  0.00     0.103 C 
HETATM    5  O13         0      49.455   6.632  34.191  1.00  0.00    -0.307 OA
HETATM    6  C14         0      48.624   7.532  34.669  1.00  0.00     0.107 C 
HETATM    7  C15         0      47.458   7.878  34.001  1.00  0.00     0.049 C 
HETATM    8  C16         0      46.720   8.996  34.369  1.00  0.00     0.093 C 
HETATM    9  C18         0      46.887   9.401  35.688  1.00  0.00     0.048 C 
HETATM   10  C19         0      48.020   9.033  36.401  1.00  0.00     0.096 C 
HETATM   11  C21         0      48.973   8.252  35.806  1.00  0.00     0.084 C 
ENDROOT
BRANCH  10  12
HETATM   12  O20         0      48.389   9.772  37.521  1.00  0.00    -0.359 OA
HETATM   13  H20         0      48.962  10.518  37.393  1.00  0.00     0.218 HD
ENDBRANCH  10  12
BRANCH   4  14
HETATM   14  C5          0      51.717   6.051  33.646  1.00  0.00     0.025 C 
HETATM   15  C6          0      51.400   5.214  32.586  1.00  0.00     0.004 C 
HETATM   16  C7          0      52.075   5.410  31.386  1.00  0.00     0.026 C 
HETATM   17  C8          0      53.125   6.317  31.279  1.00  0.00     0.112 C 
HETATM   18  C10         0      53.760   6.612  32.477  1.00  0.00     0.112 C 
HETATM   19  C12         0      53.035   6.489  33.657  1.00  0.00     0.028 C 
BRANCH  17  20
HETATM   20  O9          0      53.348   7.006  30.100  1.00  0.00    -0.357 OA
HETATM   21  H9          0      53.119   7.919  29.971  1.00  0.00     0.218 HD
ENDBRANCH  17  20
BRANCH  18  22
HETATM   22  O11         0      54.927   7.360  32.403  1.00  0.00    -0.357 OA
HETATM   23  H11         0      54.848   8.296  32.546  1.00  0.00     0.218 HD
ENDBRANCH  18  22
ENDBRANCH   4  14
BRANCH   8  24
HETATM   24  O17         0      46.135   9.832  33.412  1.00  0.00    -0.359 OA
HETATM   25  H17         0      46.155  10.778  33.496  1.00  0.00     0.218 HD
ENDBRANCH   8  24
TORSDOF 5
ENDMDL
MODEL 5
REMARK VINA RESULT:      -4.9      1.241      1.676
REMARK  5 active torsions:
REMARK  status: ('A' for Active; 'I' for Inactive)
REMARK    1  A    between atoms: C4_4  and  C5_5 
REMARK    2  A    between atoms: C8_8  and  O9_9 
REMARK    3  A    between atoms: C10_11  and  O11_12 
REMARK    4  A    between atoms: C16_18  and  O17_19 
REMARK    5  A    between atoms: C19_22  and  O20_23 
ROOT
HETATM    1  O1          0      53.773   8.630  20.873  1.00  0.00    -0.286 OA
HETATM    2  C2          0      53.496   8.355  22.073  1.00  0.00     0.201 C 
HETATM    3  C3          0      54.457   7.989  23.000  1.00  0.00     0.067 C 
HETATM    4  C4          0      54.114   7.592  24.287  1.00  0.00     0.103 C 
HETATM    5  O13         0      52.838   7.586  24.630  1.00  0.00    -0.307 OA
HETATM    6  C14         0      51.883   7.888  23.778  1.00  0.00     0.107 C 
HETATM    7  C15         0      50.566   7.509  23.991  1.00  0.00     0.049 C 
HETATM    8  C16         0      49.615   7.603  22.982  1.00  0.00     0.093 C 
HETATM    9  C18         0      49.895   8.544  21.998  1.00  0.00     0.048 C 
HETATM   10  C19         0      51.196   8.981  21.789  1.00  0.00     0.096 C 
HETATM   11  C21         0      52.209   8.494  22.569  1.00  0.00     0.084 C 
ENDROOT
BRANCH  10  12
HETATM   12  O20         0      51.531   9.558  20.569  1.00  0.00    -0.359 OA
HETATM   13  H20         0      51.375   9.053  19.780  1.00  0.00     0.218 HD
ENDBRANCH  10  12
BRANCH   4  14
HETATM   14  C5          0      55.033   6.683  24.975  1.00  0.00     0.025 C 
HETATM   15  C6          0      56.281   6.351  24.469  1.00  0.00     0.004 C 
HETATM   16  C7          0      57.330   6.223  25.374  1.00  0.00     0.026 C 
HETATM   17  C8          0      57.121   6.288  26.748  1.00  0.00     0.112 C 
HETATM   18  C10         0      55.827   5.987  27.152  1.00  0.00     0.112 C 
HETATM   19  C12         0      54.787   6.205  26.256  1.00  0.00     0.028 C 
BRANCH  17  20
HETATM   20  O9          0      58.084   6.820  27.587  1.00  0.00    -0.357 OA
HETATM   21  H9          0      57.965   7.620  28.086  1.00  0.00     0.218 HD
ENDBRANCH  17  20
BRANCH  18  22
HETATM   22  O11         0      55.610   5.853  28.516  1.00  0.00    -0.357 OA
HETATM   23  H11         0      55.019   6.477  28.921  1.00  0.00     0.218 HD
ENDBRANCH  18  22
ENDBRANCH   4  14
BRANCH   8  24
HETATM   24  O17         0      48.649   6.608  22.795  1.00  0.00    -0.359 OA
HETATM   25  H17         0      48.490   5.937  23.449  1.00  0.00     0.218 HD
ENDBRANCH   8  24
TORSDOF 5
ENDMDL
MODEL 6
REMARK VINA RESULT:      -4.8      9.169     12.729
REMARK  5 active torsions:
REMARK  status: ('A' for Active; 'I' for Inactive)
REMARK    1  A    between atoms: C4_4  and  C5_5 
REMARK    2  A    between atoms: C8_8  and  O9_9 
REMARK    3  A    between atoms: C10_11  and  O11_12 
REMARK    4  A    between atoms: C16_18  and  O17_19 
REMARK    5  A    between atoms: C19_22  and  O20_23 
ROOT
HETATM    1  O1          0      55.310   5.755  36.284  1.00  0.00    -0.286 OA
HETATM    2  C2          0      54.509   6.515  35.674  1.00  0.00     0.201 C 
HETATM    3  C3          0      53.352   7.007  36.254  1.00  0.00     0.067 C 
HETATM    4  C4          0      52.435   7.758  35.528  1.00  0.00     0.103 C 
HETATM    5  O13         0      52.694   8.021  34.259  1.00  0.00    -0.307 OA
HETATM    6  C14         0      53.759   7.548  33.650  1.00  0.00     0.107 C 
HETATM    7  C15         0      53.838   7.474  32.267  1.00  0.00     0.049 C 
HETATM    8  C16         0      54.842   6.748  31.639  1.00  0.00     0.093 C 
HETATM    9  C18         0      55.998   6.574  32.390  1.00  0.00     0.048 C 
HETATM   10  C19         0      55.965   6.687  33.773  1.00  0.00     0.096 C 
HETATM   11  C21         0      54.787   6.988  34.401  1.00  0.00     0.084 C 
ENDROOT
BRANCH  10  12
HETATM   12  O20         0      56.975   6.100  34.528  1.00  0.00    -0.359 OA
HETATM   13  H20         0      57.204   6.505  35.356  1.00  0.00     0.218 HD
ENDBRANCH  10  12
BRANCH   4  14
HETATM   14  C5          0      51.040   7.723  35.970  1.00  0.00     0.025 C 
HETATM   15  C6          0      50.596   8.379  37.109  1.00  0.00     0.004 C 
HETATM   16  C7          0      49.343   8.983  37.058  1.00  0.00     0.026 C 
HETATM   17  C8          0      48.503   8.827  35.961  1.00  0.00     0.112 C 
HETATM   18  C10         0      48.747   7.691  35.200  1.00  0.00     0.112 C 
HETATM   19  C12         0      50.030   7.157  35.203  1.00  0.00     0.028 C 
BRANCH  17  20
HETATM   20  O9          0      47.651   9.845  35.570  1.00  0.00    -0.357 OA
HETATM   21  H9          0      46.704   9.765  35.555  1.00  0.00     0.218 HD
ENDBRANCH  17  20
BRANCH  18  22
HETATM   22  O11         0      47.823   7.387  34.210  1.00  0.00    -0.357 OA
HETATM   23  H11         0      48.157   6.972  33.424  1.00  0.00     0.218 HD
ENDBRANCH  18  22
ENDBRANCH   4  14
BRANCH   8  24
HETATM   24  O17         0      54.581   5.977  30.500  1.00  0.00    -0.359 OA
HETATM   25  H17         0      55.101   6.062  29.710  1.00  0.00     0.218 HD
ENDBRANCH   8  24
TORSDOF 5
ENDMDL
MODEL 7
REMARK VINA RESULT:      -4.6      1.904      7.732
REMARK  5 active torsions:
REMARK  status: ('A' for Active; 'I' for Inactive)
REMARK    1  A    between atoms: C4_4  and  C5_5 
REMARK    2  A    between atoms: C8_8  and  O9_9 
REMARK    3  A    between atoms: C10_11  and  O11_12 
REMARK    4  A    between atoms: C16_18  and  O17_19 
REMARK    5  A    between atoms: C19_22  and  O20_23 
ROOT
HETATM    1  O1          0      53.906   5.403  28.220  1.00  0.00    -0.286 OA
HETATM    2  C2          0      54.367   5.989  27.203  1.00  0.00     0.201 C 
HETATM    3  C3          0      53.561   6.612  26.265  1.00  0.00     0.067 C 
HETATM    4  C4          0      54.087   7.160  25.101  1.00  0.00     0.103 C 
HETATM    5  O13         0      55.392   7.098  24.903  1.00  0.00    -0.307 OA
HETATM    6  C14         0      56.198   6.486  25.743  1.00  0.00     0.107 C 
HETATM    7  C15         0      57.466   6.070  25.366  1.00  0.00     0.049 C 
HETATM    8  C16         0      58.209   5.207  26.163  1.00  0.00     0.093 C 
HETATM    9  C18         0      57.879   5.224  27.513  1.00  0.00     0.048 C 
HETATM   10  C19         0      56.634   5.678  27.929  1.00  0.00     0.096 C 
HETATM   11  C21         0      55.732   6.129  27.004  1.00  0.00     0.084 C 
ENDROOT
BRANCH  10  12
HETATM   12  O20         0      56.153   5.296  29.177  1.00  0.00    -0.359 OA
HETATM   13  H20         0      56.337   4.413  29.474  1.00  0.00     0.218 HD
ENDBRANCH  10  12
BRANCH   4  14
HETATM   14  C5          0      53.201   7.239  23.938  1.00  0.00     0.025 C 
HETATM   15  C6          0      51.869   6.851  23.979  1.00  0.00     0.004 C 
HETATM   16  C7          0      50.953   7.615  23.265  1.00  0.00     0.026 C 
HETATM   17  C8          0      51.359   8.650  22.430  1.00  0.00     0.112 C 
HETATM   18  C10         0      52.667   8.547  21.974  1.00  0.00     0.112 C 
HETATM   19  C12         0      53.584   7.849  22.750  1.00  0.00     0.028 C 
BRANCH  17  20
HETATM   20  O9          0      50.574   9.777  22.262  1.00  0.00    -0.357 OA
HETATM   21  H9          0      50.455  10.441  22.931  1.00  0.00     0.218 HD
ENDBRANCH  17  20
BRANCH  18  22
HETATM   22  O11         0      53.063   9.445  20.993  1.00  0.00    -0.357 OA
HETATM   23  H11         0      53.995   9.608  20.910  1.00  0.00     0.218 HD
ENDBRANCH  18  22
ENDBRANCH   4  14
BRANCH   8  24
HETATM   24  O17         0      58.976   4.177  25.606  1.00  0.00    -0.359 OA
HETATM   25  H17         0      59.062   4.072  24.666  1.00  0.00     0.218 HD
ENDBRANCH   8  24
TORSDOF 5
ENDMDL
MODEL 8
REMARK VINA RESULT:      -4.5      1.973      3.626
REMARK  5 active torsions:
REMARK  status: ('A' for Active; 'I' for Inactive)
REMARK    1  A    between atoms: C4_4  and  C5_5 
REMARK    2  A    between atoms: C8_8  and  O9_9 
REMARK    3  A    between atoms: C10_11  and  O11_12 
REMARK    4  A    between atoms: C16_18  and  O17_19 
REMARK    5  A    between atoms: C19_22  and  O20_23 
ROOT
HETATM    1  O1          0      50.472   6.976  26.811  1.00  0.00    -0.286 OA
HETATM    2  C2          0      51.190   6.935  25.774  1.00  0.00     0.201 C 
HETATM    3  C3          0      52.530   6.589  25.803  1.00  0.00     0.067 C 
HETATM    4  C4          0      53.323   6.650  24.662  1.00  0.00     0.103 C 
HETATM    5  O13         0      52.769   7.029  23.524  1.00  0.00    -0.307 OA
HETATM    6  C14         0      51.511   7.404  23.449  1.00  0.00     0.107 C 
HETATM    7  C15         0      51.036   8.165  22.391  1.00  0.00     0.049 C 
HETATM    8  C16         0      49.785   8.769  22.440  1.00  0.00     0.093 C 
HETATM    9  C18         0      48.874   8.163  23.296  1.00  0.00     0.048 C 
HETATM   10  C19         0      49.313   7.357  24.337  1.00  0.00     0.096 C 
HETATM   11  C21         0      50.653   7.143  24.513  1.00  0.00     0.084 C 
ENDROOT
BRANCH  10  12
HETATM   12  O20         0      48.468   7.121  25.418  1.00  0.00    -0.359 OA
HETATM   13  H20         0      48.863   6.887  26.249  1.00  0.00     0.218 HD
ENDBRANCH  10  12
BRANCH   4  14
HETATM   14  C5          0      54.758   6.867  24.855  1.00  0.00     0.025 C 
HETATM   15  C6          0      55.304   7.243  26.073  1.00  0.00     0.004 C 
HETATM   16  C7          0      56.528   6.686  26.430  1.00  0.00     0.026 C 
HETATM   17  C8          0      57.250   5.888  25.549  1.00  0.00     0.112 C 
HETATM   18  C10         0      56.956   6.090  24.208  1.00  0.00     0.112 C 
HETATM   19  C12         0      55.694   6.568  23.874  1.00  0.00     0.028 C 
BRANCH  17  20
HETATM   20  O9          0      58.028   4.843  26.016  1.00  0.00    -0.357 OA
HETATM   21  H9          0      57.965   4.489  26.896  1.00  0.00     0.218 HD
ENDBRANCH  17  20
BRANCH  18  22
HETATM   22  O11         0      57.775   5.460  23.282  1.00  0.00    -0.357 OA
HETATM   23  H11         0      58.681   5.320  23.535  1.00  0.00     0.218 HD
ENDBRANCH  18  22
ENDBRANCH   4  14
BRANCH   8  24
HETATM   24  O17         0      49.579  10.059  21.939  1.00  0.00    -0.359 OA
HETATM   25  H17         0      48.793  10.287  21.457  1.00  0.00     0.218 HD
ENDBRANCH   8  24
TORSDOF 5
ENDMDL
MODEL 9
REMARK VINA RESULT:      -4.5     10.820     13.616
REMARK  5 active torsions:
REMARK  status: ('A' for Active; 'I' for Inactive)
REMARK    1  A    between atoms: C4_4  and  C5_5 
REMARK    2  A    between atoms: C8_8  and  O9_9 
REMARK    3  A    between atoms: C10_11  and  O11_12 
REMARK    4  A    between atoms: C16_18  and  O17_19 
REMARK    5  A    between atoms: C19_22  and  O20_23 
ROOT
HETATM    1  O1          0      49.578   5.657  33.099  1.00  0.00    -0.286 OA
HETATM    2  C2          0      49.858   6.426  34.060  1.00  0.00     0.201 C 
HETATM    3  C3          0      48.890   7.076  34.806  1.00  0.00     0.067 C 
HETATM    4  C4          0      49.227   7.997  35.792  1.00  0.00     0.103 C 
HETATM    5  O13         0      50.506   8.235  36.028  1.00  0.00    -0.307 OA
HETATM    6  C14         0      51.463   7.673  35.323  1.00  0.00     0.107 C 
HETATM    7  C15         0      52.746   8.198  35.284  1.00  0.00     0.049 C 
HETATM    8  C16         0      53.678   7.759  34.350  1.00  0.00     0.093 C 
HETATM    9  C18         0      53.459   6.477  33.862  1.00  0.00     0.048 C 
HETATM   10  C19         0      52.197   5.902  33.928  1.00  0.00     0.096 C 
HETATM   11  C21         0      51.163   6.597  34.494  1.00  0.00     0.084 C 
ENDROOT
BRANCH  10  12
HETATM   12  O20         0      51.885   4.847  33.077  1.00  0.00    -0.359 OA
HETATM   13  H20         0      52.569   4.220  32.875  1.00  0.00     0.218 HD
ENDBRANCH  10  12
BRANCH   4  14
HETATM   14  C5          0      48.248   9.042  36.095  1.00  0.00     0.025 C 
HETATM   15  C6          0      47.316   9.490  35.171  1.00  0.00     0.004 C 
HETATM   16  C7          0      46.039   9.789  35.636  1.00  0.00     0.026 C 
HETATM   17  C8          0      45.735   9.774  36.993  1.00  0.00     0.112 C 
HETATM   18  C10         0      46.827   9.943  37.834  1.00  0.00     0.112 C 
HETATM   19  C12         0      48.080   9.557  37.374  1.00  0.00     0.028 C 
BRANCH  17  20
HETATM   20  O9          0      44.477   9.404  37.433  1.00  0.00    -0.357 OA
HETATM   21  H9          0      43.804  10.025  37.689  1.00  0.00     0.218 HD
ENDBRANCH  17  20
BRANCH  18  22
HETATM   22  O11         0      46.559  10.125  39.183  1.00  0.00    -0.357 OA
HETATM   23  H11         0      46.600   9.354  39.737  1.00  0.00     0.218 HD
ENDBRANCH  18  22
ENDBRANCH   4  14
BRANCH   8  24
HETATM   24  O17         0      54.548   8.651  33.713  1.00  0.00    -0.359 OA
HETATM   25  H17         0      54.451   8.872  32.794  1.00  0.00     0.218 HD
ENDBRANCH   8  24
TORSDOF 5
ENDMDL
