MODEL 1
REMARK VINA RESULT:      -5.2      0.000      0.000
REMARK  5 active torsions:
REMARK  status: ('A' for Active; 'I' for Inactive)
REMARK    1  A    between atoms: C4_4  and  C5_5 
REMARK    2  A    between atoms: C8_8  and  O9_9 
REMARK    3  A    between atoms: C10_11  and  O11_12 
REMARK    4  A    between atoms: C16_18  and  O17_19 
REMARK    5  A    between atoms: C19_22  and  O20_23 
ROOT
HETATM    1  O1          0      24.940 117.564  12.504  1.00  0.00    -0.286 OA
HETATM    2  C2          0      25.567 117.029  13.459  1.00  0.00     0.201 C 
HETATM    3  C3          0      26.433 117.735  14.278  1.00  0.00     0.067 C 
HETATM    4  C4          0      27.188 117.101  15.257  1.00  0.00     0.103 C 
HETATM    5  O13         0      27.055 115.796  15.417  1.00  0.00    -0.307 OA
HETATM    6  C14         0      26.276 115.073  14.643  1.00  0.00     0.107 C 
HETATM    7  C15         0      26.427 113.698  14.532  1.00  0.00     0.049 C 
HETATM    8  C16         0      25.781 112.979  13.534  1.00  0.00     0.093 C 
HETATM    9  C18         0      24.627 113.572  13.036  1.00  0.00     0.048 C 
HETATM   10  C19         0      24.422 114.939  13.171  1.00  0.00     0.096 C 
HETATM   11  C21         0      25.355 115.705  13.814  1.00  0.00     0.084 C 
ENDROOT
BRANCH  10  12
HETATM   12  O20         0      23.525 115.579  12.321  1.00  0.00    -0.359 OA
HETATM   13  H20         0      22.904 115.042  11.844  1.00  0.00     0.218 HD
ENDBRANCH  10  12
BRANCH   4  14
HETATM   14  C5          0      28.452 117.732  15.641  1.00  0.00     0.025 C 
HETATM   15  C6          0      28.549 118.657  16.671  1.00  0.00     0.004 C 
HETATM   16  C7          0      29.677 118.603  17.482  1.00  0.00     0.026 C 
HETATM   17  C8          0      30.738 117.748  17.200  1.00  0.00     0.112 C 
HETATM   18  C10         0      30.832 117.360  15.871  1.00  0.00     0.112 C 
HETATM   19  C12         0      29.673 117.342  15.105  1.00  0.00     0.028 C 
BRANCH  17  20
HETATM   20  O9          0      31.485 117.185  18.220  1.00  0.00    -0.357 OA
HETATM   21  H9          0      31.717 117.643  19.020  1.00  0.00     0.218 HD
ENDBRANCH  17  20
BRANCH  18  22
HETATM   22  O11         0      31.974 116.665  15.498  1.00  0.00    -0.357 OA
HETATM   23  H11         0      32.785 117.159  15.461  1.00  0.00     0.218 HD
ENDBRANCH  18  22
ENDBRANCH   4  14
BRANCH   8  24
HETATM   24  O17         0      26.420 111.932  12.860  1.00  0.00    -0.359 OA
HETATM   25  H17         0      26.288 111.025  13.109  1.00  0.00     0.218 HD
ENDBRANCH   8  24
TORSDOF 5
ENDMDL
MODEL 2
REMARK VINA RESULT:      -5.2      1.301      2.788
REMARK  5 active torsions:
REMARK  status: ('A' for Active; 'I' for Inactive)
REMARK    1  A    between atoms: C4_4  and  C5_5 
REMARK    2  A    between atoms: C8_8  and  O9_9 
REMARK    3  A    between atoms: C10_11  and  O11_12 
REMARK    4  A    between atoms: C16_18  and  O17_19 
REMARK    5  A    between atoms: C19_22  and  O20_23 
ROOT
HETATM    1  O1          0      27.388 112.259  14.353  1.00  0.00    -0.286 OA
HETATM    2  C2          0      27.204 113.452  13.985  1.00  0.00     0.201 C 
HETATM    3  C3          0      28.147 114.448  14.171  1.00  0.00     0.067 C 
HETATM    4  C4          0      27.878 115.774  13.850  1.00  0.00     0.103 C 
HETATM    5  O13         0      26.699 116.077  13.336  1.00  0.00    -0.307 OA
HETATM    6  C14         0      25.755 115.175  13.174  1.00  0.00     0.107 C 
HETATM    7  C15         0      24.422 115.531  13.025  1.00  0.00     0.049 C 
HETATM    8  C16         0      23.408 114.584  13.110  1.00  0.00     0.093 C 
HETATM    9  C18         0      23.795 113.282  12.817  1.00  0.00     0.048 C 
HETATM   10  C19         0      25.128 112.904  12.910  1.00  0.00     0.096 C 
HETATM   11  C21         0      26.070 113.825  13.279  1.00  0.00     0.084 C 
ENDROOT
BRANCH  10  12
HETATM   12  O20         0      25.444 111.556  13.047  1.00  0.00    -0.359 OA
HETATM   13  H20         0      26.116 111.318  13.674  1.00  0.00     0.218 HD
ENDBRANCH  10  12
BRANCH   4  14
HETATM   14  C5          0      28.610 116.804  14.590  1.00  0.00     0.025 C 
HETATM   15  C6          0      27.992 117.678  15.471  1.00  0.00     0.004 C 
HETATM   16  C7          0      28.675 118.009  16.637  1.00  0.00     0.026 C 
HETATM   17  C8          0      29.984 117.594  16.858  1.00  0.00     0.112 C 
HETATM   18  C10         0      30.700 117.295  15.706  1.00  0.00     0.112 C 
HETATM   19  C12         0      29.996 116.884  14.579  1.00  0.00     0.028 C 
BRANCH  17  20
HETATM   20  O9          0      30.431 117.308  18.136  1.00  0.00    -0.357 OA
HETATM   21  H9          0      31.184 117.727  18.537  1.00  0.00     0.218 HD
ENDBRANCH  17  20
BRANCH  18  22
HETATM   22  O11         0      32.059 117.059  15.854  1.00  0.00    -0.357 OA
HETATM   23  H11         0      32.649 117.616  15.359  1.00  0.00     0.218 HD
ENDBRANCH  18  22
ENDBRANCH   4  14
BRANCH   8  24
HETATM   24  O17         0      22.202 114.865  13.761  1.00  0.00    -0.359 OA
HETATM   25  H17         0      21.373 114.864  13.297  1.00  0.00     0.218 HD
ENDBRANCH   8  24
TORSDOF 5
ENDMDL
MODEL 3
REMARK VINA RESULT:      -4.8      3.127      7.576
REMARK  5 active torsions:
REMARK  status: ('A' for Active; 'I' for Inactive)
REMARK    1  A    between atoms: C4_4  and  C5_5 
REMARK    2  A    between atoms: C8_8  and  O9_9 
REMARK    3  A    between atoms: C10_11  and  O11_12 
REMARK    4  A    between atoms: C16_18  and  O17_19 
REMARK    5  A    between atoms: C19_22  and  O20_23 
ROOT
HETATM    1  O1          0      28.077 115.174  13.515  1.00  0.00    -0.286 OA
HETATM    2  C2          0      26.824 115.037  13.458  1.00  0.00     0.201 C 
HETATM    3  C3          0      26.204 113.800  13.459  1.00  0.00     0.067 C 
HETATM    4  C4          0      24.829 113.674  13.291  1.00  0.00     0.103 C 
HETATM    5  O13         0      24.104 114.769  13.148  1.00  0.00    -0.307 OA
HETATM    6  C14         0      24.647 115.966  13.103  1.00  0.00     0.107 C 
HETATM    7  C15         0      23.974 117.053  12.565  1.00  0.00     0.049 C 
HETATM    8  C16         0      24.634 118.244  12.286  1.00  0.00     0.093 C 
HETATM    9  C18         0      25.786 118.465  13.032  1.00  0.00     0.048 C 
HETATM   10  C19         0      26.458 117.404  13.623  1.00  0.00     0.096 C 
HETATM   11  C21         0      25.974 116.132  13.485  1.00  0.00     0.084 C 
ENDROOT
BRANCH  10  12
HETATM   12  O20         0      27.795 117.559  13.977  1.00  0.00    -0.359 OA
HETATM   13  H20         0      28.180 116.911  14.555  1.00  0.00     0.218 HD
ENDBRANCH  10  12
BRANCH   4  14
HETATM   14  C5          0      24.337 112.422  12.712  1.00  0.00     0.025 C 
HETATM   15  C6          0      24.443 111.201  13.361  1.00  0.00     0.004 C 
HETATM   16  C7          0      23.378 110.313  13.242  1.00  0.00     0.026 C 
HETATM   17  C8          0      22.304 110.572  12.398  1.00  0.00     0.112 C 
HETATM   18  C10         0      22.581 111.452  11.360  1.00  0.00     0.112 C 
HETATM   19  C12         0      23.595 112.386  11.539  1.00  0.00     0.028 C 
BRANCH  17  20
HETATM   20  O9          0      21.029 110.142  12.720  1.00  0.00    -0.357 OA
HETATM   21  H9          0      20.544 109.500  12.213  1.00  0.00     0.218 HD
ENDBRANCH  17  20
BRANCH  18  22
HETATM   22  O11         0      21.606 111.599  10.383  1.00  0.00    -0.357 OA
HETATM   23  H11         0      21.836 111.327   9.502  1.00  0.00     0.218 HD
ENDBRANCH  18  22
ENDBRANCH   4  14
BRANCH   8  24
HETATM   24  O17         0      24.354 118.980  11.130  1.00  0.00    -0.359 OA
HETATM   25  H17         0      24.826 118.834  10.319  1.00  0.00     0.218 HD
ENDBRANCH   8  24
TORSDOF 5
ENDMDL
MODEL 4
REMARK VINA RESULT:      -4.8      3.289      4.920
REMARK  5 active torsions:
REMARK  status: ('A' for Active; 'I' for Inactive)
REMARK    1  A    between atoms: C4_4  and  C5_5 
REMARK    2  A    between atoms: C8_8  and  O9_9 
REMARK    3  A    between atoms: C10_11  and  O11_12 
REMARK    4  A    between atoms: C16_18  and  O17_19 
REMARK    5  A    between atoms: C19_22  and  O20_23 
ROOT
HETATM    1  O1          0      22.950 114.396  11.809  1.00  0.00    -0.286 OA
HETATM    2  C2          0      23.602 115.218  12.509  1.00  0.00     0.201 C 
HETATM    3  C3          0      23.325 116.575  12.526  1.00  0.00     0.067 C 
HETATM    4  C4          0      24.124 117.473  13.226  1.00  0.00     0.103 C 
HETATM    5  O13         0      25.157 117.007  13.905  1.00  0.00    -0.307 OA
HETATM    6  C14         0      25.486 115.734  13.892  1.00  0.00     0.107 C 
HETATM    7  C15         0      26.754 115.303  14.252  1.00  0.00     0.049 C 
HETATM    8  C16         0      27.174 114.003  13.997  1.00  0.00     0.093 C 
HETATM    9  C18         0      26.153 113.068  13.880  1.00  0.00     0.048 C 
HETATM   10  C19         0      24.861 113.470  13.567  1.00  0.00     0.096 C 
HETATM   11  C21         0      24.588 114.799  13.388  1.00  0.00     0.084 C 
ENDROOT
BRANCH  10  12
HETATM   12  O20         0      23.971 112.543  13.033  1.00  0.00    -0.359 OA
HETATM   13  H20         0      24.271 112.002  12.312  1.00  0.00     0.218 HD
ENDBRANCH  10  12
BRANCH   4  14
HETATM   14  C5          0      24.163 118.853  12.740  1.00  0.00     0.025 C 
HETATM   15  C6          0      23.518 119.897  13.388  1.00  0.00     0.004 C 
HETATM   16  C7          0      24.166 121.127  13.431  1.00  0.00     0.026 C 
HETATM   17  C8          0      25.352 121.352  12.740  1.00  0.00     0.112 C 
HETATM   18  C10         0      25.563 120.505  11.660  1.00  0.00     0.112 C 
HETATM   19  C12         0      24.972 119.247  11.682  1.00  0.00     0.028 C 
BRANCH  17  20
HETATM   20  O9          0      26.314 122.210  13.242  1.00  0.00    -0.357 OA
HETATM   21  H9          0      27.103 122.453  12.772  1.00  0.00     0.218 HD
ENDBRANCH  17  20
BRANCH  18  22
HETATM   22  O11         0      26.631 120.804  10.826  1.00  0.00    -0.357 OA
HETATM   23  H11         0      26.967 120.097  10.287  1.00  0.00     0.218 HD
ENDBRANCH  18  22
ENDBRANCH   4  14
BRANCH   8  24
HETATM   24  O17         0      28.475 113.730  13.559  1.00  0.00    -0.359 OA
HETATM   25  H17         0      28.969 114.355  13.041  1.00  0.00     0.218 HD
ENDBRANCH   8  24
TORSDOF 5
ENDMDL
MODEL 5
REMARK VINA RESULT:      -4.5      3.332      5.824
REMARK  5 active torsions:
REMARK  status: ('A' for Active; 'I' for Inactive)
REMARK    1  A    between atoms: C4_4  and  C5_5 
REMARK    2  A    between atoms: C8_8  and  O9_9 
REMARK    3  A    between atoms: C10_11  and  O11_12 
REMARK    4  A    between atoms: C16_18  and  O17_19 
REMARK    5  A    between atoms: C19_22  and  O20_23 
ROOT
HETATM    1  O1          0      23.983 119.795  15.666  1.00  0.00    -0.286 OA
HETATM    2  C2          0      24.223 118.952  14.759  1.00  0.00     0.201 C 
HETATM    3  C3          0      24.302 117.591  15.001  1.00  0.00     0.067 C 
HETATM    4  C4          0      24.670 116.694  14.005  1.00  0.00     0.103 C 
HETATM    5  O13         0      24.929 117.159  12.796  1.00  0.00    -0.307 OA
HETATM    6  C14         0      24.905 118.445  12.522  1.00  0.00     0.107 C 
HETATM    7  C15         0      25.547 118.966  11.408  1.00  0.00     0.049 C 
HETATM    8  C16         0      25.737 120.335  11.259  1.00  0.00     0.093 C 
HETATM    9  C18         0      24.832 121.132  11.950  1.00  0.00     0.048 C 
HETATM   10  C19         0      24.137 120.627  13.041  1.00  0.00     0.096 C 
HETATM   11  C21         0      24.333 119.330  13.429  1.00  0.00     0.084 C 
ENDROOT
BRANCH  10  12
HETATM   12  O20         0      23.591 121.510  13.967  1.00  0.00    -0.359 OA
HETATM   13  H20         0      24.000 121.567  14.822  1.00  0.00     0.218 HD
ENDBRANCH  10  12
BRANCH   4  14
HETATM   14  C5          0      25.303 115.444  14.430  1.00  0.00     0.025 C 
HETATM   15  C6          0      24.578 114.342  14.859  1.00  0.00     0.004 C 
HETATM   16  C7          0      25.036 113.083  14.483  1.00  0.00     0.026 C 
HETATM   17  C8          0      26.246 112.916  13.819  1.00  0.00     0.112 C 
HETATM   18  C10         0      27.156 113.948  14.002  1.00  0.00     0.112 C 
HETATM   19  C12         0      26.666 115.216  14.294  1.00  0.00     0.028 C 
BRANCH  17  20
HETATM   20  O9          0      26.413 111.901  12.893  1.00  0.00    -0.357 OA
HETATM   21  H9          0      26.154 111.000  13.045  1.00  0.00     0.218 HD
ENDBRANCH  17  20
BRANCH  18  22
HETATM   22  O11         0      28.442 113.747  13.521  1.00  0.00    -0.357 OA
HETATM   23  H11         0      28.523 113.463  12.617  1.00  0.00     0.218 HD
ENDBRANCH  18  22
ENDBRANCH   4  14
BRANCH   8  24
HETATM   24  O17         0      26.930 120.854  10.743  1.00  0.00    -0.359 OA
HETATM   25  H17         0      27.617 120.289  10.411  1.00  0.00     0.218 HD
ENDBRANCH   8  24
TORSDOF 5
ENDMDL
MODEL 6
REMARK VINA RESULT:      -4.5      2.660      4.736
REMARK  5 active torsions:
REMARK  status: ('A' for Active; 'I' for Inactive)
REMARK    1  A    between atoms: C4_4  and  C5_5 
REMARK    2  A    between atoms: C8_8  and  O9_9 
REMARK    3  A    between atoms: C10_11  and  O11_12 
REMARK    4  A    between atoms: C16_18  and  O17_19 
REMARK    5  A    between atoms: C19_22  and  O20_23 
ROOT
HETATM    1  O1          0      24.075 111.558  16.129  1.00  0.00    -0.286 OA
HETATM    2  C2          0      24.573 112.089  15.099  1.00  0.00     0.201 C 
HETATM    3  C3          0      25.581 113.037  15.155  1.00  0.00     0.067 C 
HETATM    4  C4          0      26.039 113.682  14.012  1.00  0.00     0.103 C 
HETATM    5  O13         0      25.508 113.360  12.845  1.00  0.00    -0.307 OA
HETATM    6  C14         0      24.523 112.495  12.740  1.00  0.00     0.107 C 
HETATM    7  C15         0      23.707 112.449  11.619  1.00  0.00     0.049 C 
HETATM    8  C16         0      22.525 111.719  11.617  1.00  0.00     0.093 C 
HETATM    9  C18         0      22.481 110.669  12.526  1.00  0.00     0.048 C 
HETATM   10  C19         0      23.317 110.660  13.634  1.00  0.00     0.096 C 
HETATM   11  C21         0      24.203 111.685  13.825  1.00  0.00     0.084 C 
ENDROOT
BRANCH  10  12
HETATM   12  O20         0      22.982 109.875  14.733  1.00  0.00    -0.359 OA
HETATM   13  H20         0      22.859 108.944  14.594  1.00  0.00     0.218 HD
ENDBRANCH  10  12
BRANCH   4  14
HETATM   14  C5          0      26.613 115.018  14.181  1.00  0.00     0.025 C 
HETATM   15  C6          0      27.676 115.278  15.033  1.00  0.00     0.004 C 
HETATM   16  C7          0      28.631 116.196  14.610  1.00  0.00     0.026 C 
HETATM   17  C8          0      28.468 116.933  13.441  1.00  0.00     0.112 C 
HETATM   18  C10         0      27.151 117.074  13.024  1.00  0.00     0.112 C 
HETATM   19  C12         0      26.234 116.096  13.390  1.00  0.00     0.028 C 
BRANCH  17  20
HETATM   20  O9          0      29.561 117.294  12.673  1.00  0.00    -0.357 OA
HETATM   21  H9          0      29.848 116.814  11.905  1.00  0.00     0.218 HD
ENDBRANCH  17  20
BRANCH  18  22
HETATM   22  O11         0      26.915 117.952  11.976  1.00  0.00    -0.357 OA
HETATM   23  H11         0      26.396 118.724  12.171  1.00  0.00     0.218 HD
ENDBRANCH  18  22
ENDBRANCH   4  14
BRANCH   8  24
HETATM   24  O17         0      21.367 112.209  11.003  1.00  0.00    -0.359 OA
HETATM   25  H17         0      21.055 113.093  11.158  1.00  0.00     0.218 HD
ENDBRANCH   8  24
TORSDOF 5
ENDMDL
MODEL 7
REMARK VINA RESULT:      -4.5      1.672      6.467
REMARK  5 active torsions:
REMARK  status: ('A' for Active; 'I' for Inactive)
REMARK    1  A    between atoms: C4_4  and  C5_5 
REMARK    2  A    between atoms: C8_8  and  O9_9 
REMARK    3  A    between atoms: C10_11  and  O11_12 
REMARK    4  A    between atoms: C16_18  and  O17_19 
REMARK    5  A    between atoms: C19_22  and  O20_23 
ROOT
HETATM    1  O1          0      26.873 117.267  18.391  1.00  0.00    -0.286 OA
HETATM    2  C2          0      26.996 116.887  17.195  1.00  0.00     0.201 C 
HETATM    3  C3          0      26.060 116.087  16.562  1.00  0.00     0.067 C 
HETATM    4  C4          0      26.268 115.598  15.278  1.00  0.00     0.103 C 
HETATM    5  O13         0      27.382 115.926  14.646  1.00  0.00    -0.307 OA
HETATM    6  C14         0      28.320 116.651  15.215  1.00  0.00     0.107 C 
HETATM    7  C15         0      29.623 116.665  14.738  1.00  0.00     0.049 C 
HETATM    8  C16         0      30.657 117.222  15.481  1.00  0.00     0.093 C 
HETATM    9  C18         0      30.266 118.187  16.401  1.00  0.00     0.048 C 
HETATM   10  C19         0      28.958 118.231  16.864  1.00  0.00     0.096 C 
HETATM   11  C21         0      28.042 117.327  16.398  1.00  0.00     0.084 C 
ENDROOT
BRANCH  10  12
HETATM   12  O20         0      28.682 118.879  18.064  1.00  0.00    -0.359 OA
HETATM   13  H20         0      29.239 119.607  18.315  1.00  0.00     0.218 HD
ENDBRANCH  10  12
BRANCH   4  14
HETATM   14  C5          0      25.599 114.345  14.921  1.00  0.00     0.025 C 
HETATM   15  C6          0      24.224 114.242  14.775  1.00  0.00     0.004 C 
HETATM   16  C7          0      23.743 113.430  13.753  1.00  0.00     0.026 C 
HETATM   17  C8          0      24.594 112.640  12.988  1.00  0.00     0.112 C 
HETATM   18  C10         0      25.802 112.329  13.598  1.00  0.00     0.112 C 
HETATM   19  C12         0      26.302 113.204  14.556  1.00  0.00     0.028 C 
BRANCH  17  20
HETATM   20  O9          0      24.318 112.384  11.657  1.00  0.00    -0.357 OA
HETATM   21  H9          0      24.783 112.789  10.934  1.00  0.00     0.218 HD
ENDBRANCH  17  20
BRANCH  18  22
HETATM   22  O11         0      26.605 111.394  12.962  1.00  0.00    -0.357 OA
HETATM   23  H11         0      26.564 110.501  13.284  1.00  0.00     0.218 HD
ENDBRANCH  18  22
ENDBRANCH   4  14
BRANCH   8  24
HETATM   24  O17         0      31.920 116.621  15.537  1.00  0.00    -0.359 OA
HETATM   25  H17         0      32.285 116.301  16.353  1.00  0.00     0.218 HD
ENDBRANCH   8  24
TORSDOF 5
ENDMDL
MODEL 8
REMARK VINA RESULT:      -4.5      2.553      4.592
REMARK  5 active torsions:
REMARK  status: ('A' for Active; 'I' for Inactive)
REMARK    1  A    between atoms: C4_4  and  C5_5 
REMARK    2  A    between atoms: C8_8  and  O9_9 
REMARK    3  A    between atoms: C10_11  and  O11_12 
REMARK    4  A    between atoms: C16_18  and  O17_19 
REMARK    5  A    between atoms: C19_22  and  O20_23 
ROOT
HETATM    1  O1          0      27.747 112.075  16.340  1.00  0.00    -0.286 OA
HETATM    2  C2          0      27.330 112.539  15.243  1.00  0.00     0.201 C 
HETATM    3  C3          0      27.715 113.777  14.757  1.00  0.00     0.067 C 
HETATM    4  C4          0      27.162 114.309  13.598  1.00  0.00     0.103 C 
HETATM    5  O13         0      26.262 113.599  12.940  1.00  0.00    -0.307 OA
HETATM    6  C14         0      25.834 112.435  13.378  1.00  0.00     0.107 C 
HETATM    7  C15         0      24.640 111.882  12.938  1.00  0.00     0.049 C 
HETATM    8  C16         0      24.069 110.791  13.581  1.00  0.00     0.093 C 
HETATM    9  C18         0      24.962 109.992  14.287  1.00  0.00     0.048 C 
HETATM   10  C19         0      26.185 110.500  14.702  1.00  0.00     0.096 C 
HETATM   11  C21         0      26.523 111.791  14.400  1.00  0.00     0.084 C 
ENDROOT
BRANCH  10  12
HETATM   12  O20         0      26.861 109.876  15.746  1.00  0.00    -0.359 OA
HETATM   13  H20         0      27.294 110.425  16.388  1.00  0.00     0.218 HD
ENDBRANCH  10  12
BRANCH   4  14
HETATM   14  C5          0      27.133 115.768  13.477  1.00  0.00     0.025 C 
HETATM   15  C6          0      26.090 116.452  12.870  1.00  0.00     0.004 C 
HETATM   16  C7          0      25.695 117.659  13.438  1.00  0.00     0.026 C 
HETATM   17  C8          0      26.397 118.235  14.491  1.00  0.00     0.112 C 
HETATM   18  C10         0      27.722 117.832  14.593  1.00  0.00     0.112 C 
HETATM   19  C12         0      28.073 116.584  14.093  1.00  0.00     0.028 C 
BRANCH  17  20
HETATM   20  O9          0      25.742 118.974  15.460  1.00  0.00    -0.357 OA
HETATM   21  H9          0      25.112 118.605  16.069  1.00  0.00     0.218 HD
ENDBRANCH  17  20
BRANCH  18  22
HETATM   22  O11         0      28.517 118.513  15.503  1.00  0.00    -0.357 OA
HETATM   23  H11         0      29.415 118.686  15.245  1.00  0.00     0.218 HD
ENDBRANCH  18  22
ENDBRANCH   4  14
BRANCH   8  24
HETATM   24  O17         0      22.687 110.703  13.781  1.00  0.00    -0.359 OA
HETATM   25  H17         0      22.086 111.324  13.388  1.00  0.00     0.218 HD
ENDBRANCH   8  24
TORSDOF 5
ENDMDL
MODEL 9
REMARK VINA RESULT:      -4.5      3.183      4.787
REMARK  5 active torsions:
REMARK  status: ('A' for Active; 'I' for Inactive)
REMARK    1  A    between atoms: C4_4  and  C5_5 
REMARK    2  A    between atoms: C8_8  and  O9_9 
REMARK    3  A    between atoms: C10_11  and  O11_12 
REMARK    4  A    between atoms: C16_18  and  O17_19 
REMARK    5  A    between atoms: C19_22  and  O20_23 
ROOT
HETATM    1  O1          0      28.308 114.669  14.353  1.00  0.00    -0.286 OA
HETATM    2  C2          0      27.206 114.885  13.779  1.00  0.00     0.201 C 
HETATM    3  C3          0      26.843 116.131  13.296  1.00  0.00     0.067 C 
HETATM    4  C4          0      25.582 116.365  12.760  1.00  0.00     0.103 C 
HETATM    5  O13         0      24.723 115.363  12.695  1.00  0.00    -0.307 OA
HETATM    6  C14         0      25.004 114.170  13.172  1.00  0.00     0.107 C 
HETATM    7  C15         0      24.010 113.250  13.472  1.00  0.00     0.049 C 
HETATM    8  C16         0      24.286 112.103  14.206  1.00  0.00     0.093 C 
HETATM    9  C18         0      25.606 111.674  14.150  1.00  0.00     0.048 C 
HETATM   10  C19         0      26.621 112.557  13.808  1.00  0.00     0.096 C 
HETATM   11  C21         0      26.317 113.856  13.506  1.00  0.00     0.084 C 
ENDROOT
BRANCH  10  12
HETATM   12  O20         0      27.932 112.260  14.170  1.00  0.00    -0.359 OA
HETATM   13  H20         0      28.287 112.684  14.941  1.00  0.00     0.218 HD
ENDBRANCH  10  12
BRANCH   4  14
HETATM   14  C5          0      25.064 117.732  12.839  1.00  0.00     0.025 C 
HETATM   15  C6          0      24.369 118.211  13.940  1.00  0.00     0.004 C 
HETATM   16  C7          0      24.606 119.525  14.331  1.00  0.00     0.026 C 
HETATM   17  C8          0      25.405 120.377  13.576  1.00  0.00     0.112 C 
HETATM   18  C10         0      25.518 120.031  12.236  1.00  0.00     0.112 C 
HETATM   19  C12         0      25.359 118.696  11.883  1.00  0.00     0.028 C 
BRANCH  17  20
HETATM   20  O9          0      26.176 121.351  14.186  1.00  0.00    -0.357 OA
HETATM   21  H9          0      26.843 121.855  13.735  1.00  0.00     0.218 HD
ENDBRANCH  17  20
BRANCH  18  22
HETATM   22  O11         0      26.143 120.946  11.401  1.00  0.00    -0.357 OA
HETATM   23  H11         0      26.365 120.649  10.527  1.00  0.00     0.218 HD
ENDBRANCH  18  22
ENDBRANCH   4  14
BRANCH   8  24
HETATM   24  O17         0      23.398 111.628  15.178  1.00  0.00    -0.359 OA
HETATM   25  H17         0      22.457 111.674  15.060  1.00  0.00     0.218 HD
ENDBRANCH   8  24
TORSDOF 5
ENDMDL
