MODEL 1
REMARK VINA RESULT:      -6.8      0.000      0.000
REMARK  5 active torsions:
REMARK  status: ('A' for Active; 'I' for Inactive)
REMARK    1  A    between atoms: C4_4  and  C5_5 
REMARK    2  A    between atoms: C8_8  and  O9_9 
REMARK    3  A    between atoms: C10_11  and  O11_12 
REMARK    4  A    between atoms: C16_18  and  O17_19 
REMARK    5  A    between atoms: C19_22  and  O20_23 
ROOT
HETATM    1  O1          0      51.030  90.556 -24.238  1.00  0.00    -0.286 OA
HETATM    2  C2          0      51.934  91.013 -23.485  1.00  0.00     0.201 C 
HETATM    3  C3          0      51.825  92.232 -22.838  1.00  0.00     0.067 C 
HETATM    4  C4          0      52.877  92.760 -22.097  1.00  0.00     0.103 C 
HETATM    5  O13         0      53.996  92.064 -21.998  1.00  0.00    -0.307 OA
HETATM    6  C14         0      54.164  90.919 -22.622  1.00  0.00     0.107 C 
HETATM    7  C15         0      55.426  90.392 -22.854  1.00  0.00     0.049 C 
HETATM    8  C16         0      55.615  89.326 -23.727  1.00  0.00     0.093 C 
HETATM    9  C18         0      54.501  88.516 -23.912  1.00  0.00     0.048 C 
HETATM   10  C19         0      53.226  88.997 -23.645  1.00  0.00     0.096 C 
HETATM   11  C21         0      53.066  90.273 -23.180  1.00  0.00     0.084 C 
ENDROOT
BRANCH  10  12
HETATM   12  O20         0      52.128  88.371 -24.228  1.00  0.00    -0.359 OA
HETATM   13  H20         0      52.199  87.447 -24.433  1.00  0.00     0.218 HD
ENDBRANCH  10  12
BRANCH   4  14
HETATM   14  C5          0      52.940  94.217 -21.966  1.00  0.00     0.025 C 
HETATM   15  C6          0      52.688  95.078 -23.025  1.00  0.00     0.004 C 
HETATM   16  C7          0      51.995  96.252 -22.749  1.00  0.00     0.026 C 
HETATM   17  C8          0      51.680  96.625 -21.447  1.00  0.00     0.112 C 
HETATM   18  C10         0      52.494  96.066 -20.471  1.00  0.00     0.112 C 
HETATM   19  C12         0      53.107  94.848 -20.741  1.00  0.00     0.028 C 
BRANCH  17  20
HETATM   20  O9          0      50.518  97.323 -21.170  1.00  0.00    -0.357 OA
HETATM   21  H9          0      50.373  98.227 -21.422  1.00  0.00     0.218 HD
ENDBRANCH  17  20
BRANCH  18  22
HETATM   22  O11         0      52.347  96.547 -19.178  1.00  0.00    -0.357 OA
HETATM   23  H11         0      51.600  96.230 -18.683  1.00  0.00     0.218 HD
ENDBRANCH  18  22
ENDBRANCH   4  14
BRANCH   8  24
HETATM   24  O17         0      56.712  89.279 -24.594  1.00  0.00    -0.359 OA
HETATM   25  H17         0      56.947  88.485 -25.058  1.00  0.00     0.218 HD
ENDBRANCH   8  24
TORSDOF 5
ENDMDL
MODEL 2
REMARK VINA RESULT:      -6.5      1.867      7.145
REMARK  5 active torsions:
REMARK  status: ('A' for Active; 'I' for Inactive)
REMARK    1  A    between atoms: C4_4  and  C5_5 
REMARK    2  A    between atoms: C8_8  and  O9_9 
REMARK    3  A    between atoms: C10_11  and  O11_12 
REMARK    4  A    between atoms: C16_18  and  O17_19 
REMARK    5  A    between atoms: C19_22  and  O20_23 
ROOT
HETATM    1  O1          0      55.843  93.642 -20.681  1.00  0.00    -0.286 OA
HETATM    2  C2          0      54.931  92.958 -21.221  1.00  0.00     0.201 C 
HETATM    3  C3          0      55.075  91.612 -21.511  1.00  0.00     0.067 C 
HETATM    4  C4          0      54.095  90.906 -22.199  1.00  0.00     0.103 C 
HETATM    5  O13         0      52.993  91.539 -22.562  1.00  0.00    -0.307 OA
HETATM    6  C14         0      52.822  92.825 -22.345  1.00  0.00     0.107 C 
HETATM    7  C15         0      51.888  93.568 -23.052  1.00  0.00     0.049 C 
HETATM    8  C16         0      51.885  94.957 -23.005  1.00  0.00     0.093 C 
HETATM    9  C18         0      52.461  95.506 -21.865  1.00  0.00     0.048 C 
HETATM   10  C19         0      53.364  94.773 -21.108  1.00  0.00     0.096 C 
HETATM   11  C21         0      53.678  93.493 -21.476  1.00  0.00     0.084 C 
ENDROOT
BRANCH  10  12
HETATM   12  O20         0      54.243  95.443 -20.261  1.00  0.00    -0.359 OA
HETATM   13  H20         0      55.121  95.095 -20.166  1.00  0.00     0.218 HD
ENDBRANCH  10  12
BRANCH   4  14
HETATM   14  C5          0      54.527  89.743 -22.976  1.00  0.00     0.025 C 
HETATM   15  C6          0      55.829  89.582 -23.427  1.00  0.00     0.004 C 
HETATM   16  C7          0      56.367  88.299 -23.399  1.00  0.00     0.026 C 
HETATM   17  C8          0      55.595  87.192 -23.063  1.00  0.00     0.112 C 
HETATM   18  C10         0      54.230  87.358 -23.252  1.00  0.00     0.112 C 
HETATM   19  C12         0      53.706  88.643 -23.190  1.00  0.00     0.028 C 
BRANCH  17  20
HETATM   20  O9          0      56.154  86.114 -22.399  1.00  0.00    -0.357 OA
HETATM   21  H9          0      56.975  85.708 -22.650  1.00  0.00     0.218 HD
ENDBRANCH  17  20
BRANCH  18  22
HETATM   22  O11         0      53.435  86.229 -23.114  1.00  0.00    -0.357 OA
HETATM   23  H11         0      52.494  86.363 -23.117  1.00  0.00     0.218 HD
ENDBRANCH  18  22
ENDBRANCH   4  14
BRANCH   8  24
HETATM   24  O17         0      51.638  95.725 -24.148  1.00  0.00    -0.359 OA
HETATM   25  H17         0      50.774  96.069 -24.341  1.00  0.00     0.218 HD
ENDBRANCH   8  24
TORSDOF 5
ENDMDL
MODEL 3
REMARK VINA RESULT:      -6.3      2.200      3.645
REMARK  5 active torsions:
REMARK  status: ('A' for Active; 'I' for Inactive)
REMARK    1  A    between atoms: C4_4  and  C5_5 
REMARK    2  A    between atoms: C8_8  and  O9_9 
REMARK    3  A    between atoms: C10_11  and  O11_12 
REMARK    4  A    between atoms: C16_18  and  O17_19 
REMARK    5  A    between atoms: C19_22  and  O20_23 
ROOT
HETATM    1  O1          0      57.086  89.381 -20.860  1.00  0.00    -0.286 OA
HETATM    2  C2          0      56.188  89.750 -21.665  1.00  0.00     0.201 C 
HETATM    3  C3          0      55.726  91.054 -21.729  1.00  0.00     0.067 C 
HETATM    4  C4          0      54.665  91.411 -22.553  1.00  0.00     0.103 C 
HETATM    5  O13         0      54.103  90.481 -23.304  1.00  0.00    -0.307 OA
HETATM    6  C14         0      54.478  89.221 -23.254  1.00  0.00     0.107 C 
HETATM    7  C15         0      53.662  88.197 -23.712  1.00  0.00     0.049 C 
HETATM    8  C16         0      53.945  86.867 -23.428  1.00  0.00     0.093 C 
HETATM    9  C18         0      55.282  86.595 -23.161  1.00  0.00     0.048 C 
HETATM   10  C19         0      56.137  87.606 -22.745  1.00  0.00     0.096 C 
HETATM   11  C21         0      55.665  88.884 -22.613  1.00  0.00     0.084 C 
ENDROOT
BRANCH  10  12
HETATM   12  O20         0      57.310  87.272 -22.076  1.00  0.00    -0.359 OA
HETATM   13  H20         0      57.990  87.933 -22.011  1.00  0.00     0.218 HD
ENDBRANCH  10  12
BRANCH   4  14
HETATM   14  C5          0      53.866  92.570 -22.150  1.00  0.00     0.025 C 
HETATM   15  C6          0      54.384  93.855 -22.084  1.00  0.00     0.004 C 
HETATM   16  C7          0      53.565  94.903 -22.493  1.00  0.00     0.026 C 
HETATM   17  C8          0      52.231  94.697 -22.829  1.00  0.00     0.112 C 
HETATM   18  C10         0      51.661  93.560 -22.271  1.00  0.00     0.112 C 
HETATM   19  C12         0      52.493  92.494 -21.950  1.00  0.00     0.028 C 
BRANCH  17  20
HETATM   20  O9          0      51.621  95.462 -23.807  1.00  0.00    -0.357 OA
HETATM   21  H9          0      50.693  95.668 -23.814  1.00  0.00     0.218 HD
ENDBRANCH  17  20
BRANCH  18  22
HETATM   22  O11         0      50.290  93.408 -22.418  1.00  0.00    -0.357 OA
HETATM   23  H11         0      49.750  93.636 -21.670  1.00  0.00     0.218 HD
ENDBRANCH  18  22
ENDBRANCH   4  14
BRANCH   8  24
HETATM   24  O17         0      52.931  85.958 -23.106  1.00  0.00    -0.359 OA
HETATM   25  H17         0      52.321  85.639 -23.761  1.00  0.00     0.218 HD
ENDBRANCH   8  24
TORSDOF 5
ENDMDL
MODEL 4
REMARK VINA RESULT:      -6.2      1.716      2.287
REMARK  5 active torsions:
REMARK  status: ('A' for Active; 'I' for Inactive)
REMARK    1  A    between atoms: C4_4  and  C5_5 
REMARK    2  A    between atoms: C8_8  and  O9_9 
REMARK    3  A    between atoms: C10_11  and  O11_12 
REMARK    4  A    between atoms: C16_18  and  O17_19 
REMARK    5  A    between atoms: C19_22  and  O20_23 
ROOT
HETATM    1  O1          0      52.222  88.775 -24.325  1.00  0.00    -0.286 OA
HETATM    2  C2          0      52.910  89.407 -23.477  1.00  0.00     0.201 C 
HETATM    3  C3          0      52.596  90.691 -23.064  1.00  0.00     0.067 C 
HETATM    4  C4          0      53.428  91.404 -22.207  1.00  0.00     0.103 C 
HETATM    5  O13         0      54.531  90.825 -21.766  1.00  0.00    -0.307 OA
HETATM    6  C14         0      54.894  89.623 -22.157  1.00  0.00     0.107 C 
HETATM    7  C15         0      56.202  89.178 -22.031  1.00  0.00     0.049 C 
HETATM    8  C16         0      56.635  88.022 -22.669  1.00  0.00     0.093 C 
HETATM    9  C18         0      55.635  87.102 -22.959  1.00  0.00     0.048 C 
HETATM   10  C19         0      54.309  87.505 -23.046  1.00  0.00     0.096 C 
HETATM   11  C21         0      53.983  88.816 -22.828  1.00  0.00     0.084 C 
ENDROOT
BRANCH  10  12
HETATM   12  O20         0      53.403  86.714 -23.745  1.00  0.00    -0.359 OA
HETATM   13  H20         0      53.254  85.829 -23.436  1.00  0.00     0.218 HD
ENDBRANCH  10  12
BRANCH   4  14
HETATM   14  C5          0      53.383  92.865 -22.293  1.00  0.00     0.025 C 
HETATM   15  C6          0      54.371  93.611 -22.918  1.00  0.00     0.004 C 
HETATM   16  C7          0      53.971  94.722 -23.654  1.00  0.00     0.026 C 
HETATM   17  C8          0      52.649  95.156 -23.658  1.00  0.00     0.112 C 
HETATM   18  C10         0      51.906  94.763 -22.554  1.00  0.00     0.112 C 
HETATM   19  C12         0      52.278  93.601 -21.888  1.00  0.00     0.028 C 
BRANCH  17  20
HETATM   20  O9          0      52.100  95.744 -24.784  1.00  0.00    -0.357 OA
HETATM   21  H9          0      51.443  96.430 -24.754  1.00  0.00     0.218 HD
ENDBRANCH  17  20
BRANCH  18  22
HETATM   22  O11         0      50.644  95.322 -22.414  1.00  0.00    -0.357 OA
HETATM   23  H11         0      49.902  94.771 -22.634  1.00  0.00     0.218 HD
ENDBRANCH  18  22
ENDBRANCH   4  14
BRANCH   8  24
HETATM   24  O17         0      57.899  87.948 -23.265  1.00  0.00    -0.359 OA
HETATM   25  H17         0      58.671  87.704 -22.769  1.00  0.00     0.218 HD
ENDBRANCH   8  24
TORSDOF 5
ENDMDL
MODEL 5
REMARK VINA RESULT:      -6.2      4.225      8.541
REMARK  5 active torsions:
REMARK  status: ('A' for Active; 'I' for Inactive)
REMARK    1  A    between atoms: C4_4  and  C5_5 
REMARK    2  A    between atoms: C8_8  and  O9_9 
REMARK    3  A    between atoms: C10_11  and  O11_12 
REMARK    4  A    between atoms: C16_18  and  O17_19 
REMARK    5  A    between atoms: C19_22  and  O20_23 
ROOT
HETATM    1  O1          0      57.260  91.245 -21.195  1.00  0.00    -0.286 OA
HETATM    2  C2          0      57.181  90.367 -22.097  1.00  0.00     0.201 C 
HETATM    3  C3          0      58.268  89.975 -22.861  1.00  0.00     0.067 C 
HETATM    4  C4          0      58.132  89.081 -23.917  1.00  0.00     0.103 C 
HETATM    5  O13         0      56.936  88.583 -24.177  1.00  0.00    -0.307 OA
HETATM    6  C14         0      55.865  88.949 -23.508  1.00  0.00     0.107 C 
HETATM    7  C15         0      54.587  88.756 -24.011  1.00  0.00     0.049 C 
HETATM    8  C16         0      53.482  89.366 -23.429  1.00  0.00     0.093 C 
HETATM    9  C18         0      53.635  89.702 -22.089  1.00  0.00     0.048 C 
HETATM   10  C19         0      54.901  89.858 -21.541  1.00  0.00     0.096 C 
HETATM   11  C21         0      56.008  89.662 -22.322  1.00  0.00     0.084 C 
ENDROOT
BRANCH  10  12
HETATM   12  O20         0      55.050  90.597 -20.372  1.00  0.00    -0.359 OA
HETATM   13  H20         0      55.573  91.389 -20.410  1.00  0.00     0.218 HD
ENDBRANCH  10  12
BRANCH   4  14
HETATM   14  C5          0      59.108  89.175 -25.003  1.00  0.00     0.025 C 
HETATM   15  C6          0      60.439  89.506 -24.792  1.00  0.00     0.004 C 
HETATM   16  C7          0      61.396  88.847 -25.557  1.00  0.00     0.026 C 
HETATM   17  C8          0      61.039  87.987 -26.590  1.00  0.00     0.112 C 
HETATM   18  C10         0      59.775  88.212 -27.120  1.00  0.00     0.112 C 
HETATM   19  C12         0      58.812  88.795 -26.306  1.00  0.00     0.028 C 
BRANCH  17  20
HETATM   20  O9          0      61.813  86.881 -26.892  1.00  0.00    -0.357 OA
HETATM   21  H9          0      61.567  85.989 -26.676  1.00  0.00     0.218 HD
ENDBRANCH  17  20
BRANCH  18  22
HETATM   22  O11         0      59.443  87.511 -28.271  1.00  0.00    -0.357 OA
HETATM   23  H11         0      58.569  87.646 -28.619  1.00  0.00     0.218 HD
ENDBRANCH  18  22
ENDBRANCH   4  14
BRANCH   8  24
HETATM   24  O17         0      52.449  89.898 -24.207  1.00  0.00    -0.359 OA
HETATM   25  H17         0      52.614  90.288 -25.058  1.00  0.00     0.218 HD
ENDBRANCH   8  24
TORSDOF 5
ENDMDL
MODEL 6
REMARK VINA RESULT:      -5.7      3.869      6.866
REMARK  5 active torsions:
REMARK  status: ('A' for Active; 'I' for Inactive)
REMARK    1  A    between atoms: C4_4  and  C5_5 
REMARK    2  A    between atoms: C8_8  and  O9_9 
REMARK    3  A    between atoms: C10_11  and  O11_12 
REMARK    4  A    between atoms: C16_18  and  O17_19 
REMARK    5  A    between atoms: C19_22  and  O20_23 
ROOT
HETATM    1  O1          0      59.843  88.067 -21.886  1.00  0.00    -0.286 OA
HETATM    2  C2          0      59.017  88.628 -22.657  1.00  0.00     0.201 C 
HETATM    3  C3          0      57.755  89.021 -22.246  1.00  0.00     0.067 C 
HETATM    4  C4          0      56.828  89.544 -23.141  1.00  0.00     0.103 C 
HETATM    5  O13         0      57.176  89.682 -24.408  1.00  0.00    -0.307 OA
HETATM    6  C14         0      58.348  89.290 -24.857  1.00  0.00     0.107 C 
HETATM    7  C15         0      58.574  89.059 -26.207  1.00  0.00     0.049 C 
HETATM    8  C16         0      59.720  88.408 -26.646  1.00  0.00     0.093 C 
HETATM    9  C18         0      60.808  88.490 -25.785  1.00  0.00     0.048 C 
HETATM   10  C19         0      60.622  88.766 -24.437  1.00  0.00     0.096 C 
HETATM   11  C21         0      59.359  88.975 -23.955  1.00  0.00     0.084 C 
ENDROOT
BRANCH  10  12
HETATM   12  O20         0      61.618  88.423 -23.529  1.00  0.00    -0.359 OA
HETATM   13  H20         0      62.409  88.020 -23.867  1.00  0.00     0.218 HD
ENDBRANCH  10  12
BRANCH   4  14
HETATM   14  C5          0      55.411  89.369 -22.815  1.00  0.00     0.025 C 
HETATM   15  C6          0      54.715  90.245 -21.994  1.00  0.00     0.004 C 
HETATM   16  C7          0      53.398  90.538 -22.334  1.00  0.00     0.026 C 
HETATM   17  C8          0      52.750  89.882 -23.375  1.00  0.00     0.112 C 
HETATM   18  C10         0      53.279  88.638 -23.694  1.00  0.00     0.112 C 
HETATM   19  C12         0      54.621  88.402 -23.421  1.00  0.00     0.028 C 
BRANCH  17  20
HETATM   20  O9          0      51.802  90.534 -24.143  1.00  0.00    -0.357 OA
HETATM   21  H9          0      51.004  90.910 -23.789  1.00  0.00     0.218 HD
ENDBRANCH  17  20
BRANCH  18  22
HETATM   22  O11         0      52.560  87.862 -24.592  1.00  0.00    -0.357 OA
HETATM   23  H11         0      51.754  87.472 -24.274  1.00  0.00     0.218 HD
ENDBRANCH  18  22
ENDBRANCH   4  14
BRANCH   8  24
HETATM   24  O17         0      59.675  87.474 -27.687  1.00  0.00    -0.359 OA
HETATM   25  H17         0      59.430  86.569 -27.536  1.00  0.00     0.218 HD
ENDBRANCH   8  24
TORSDOF 5
ENDMDL
MODEL 7
REMARK VINA RESULT:      -5.7      5.841      8.458
REMARK  5 active torsions:
REMARK  status: ('A' for Active; 'I' for Inactive)
REMARK    1  A    between atoms: C4_4  and  C5_5 
REMARK    2  A    between atoms: C8_8  and  O9_9 
REMARK    3  A    between atoms: C10_11  and  O11_12 
REMARK    4  A    between atoms: C16_18  and  O17_19 
REMARK    5  A    between atoms: C19_22  and  O20_23 
ROOT
HETATM    1  O1          0      60.833  91.748 -24.558  1.00  0.00    -0.286 OA
HETATM    2  C2          0      60.046  90.826 -24.906  1.00  0.00     0.201 C 
HETATM    3  C3          0      58.793  90.657 -24.342  1.00  0.00     0.067 C 
HETATM    4  C4          0      57.986  89.573 -24.670  1.00  0.00     0.103 C 
HETATM    5  O13         0      58.427  88.699 -25.558  1.00  0.00    -0.307 OA
HETATM    6  C14         0      59.624  88.793 -26.095  1.00  0.00     0.107 C 
HETATM    7  C15         0      60.242  87.706 -26.697  1.00  0.00     0.049 C 
HETATM    8  C16         0      61.590  87.736 -27.032  1.00  0.00     0.093 C 
HETATM    9  C18         0      62.117  89.006 -27.232  1.00  0.00     0.048 C 
HETATM   10  C19         0      61.497  90.121 -26.683  1.00  0.00     0.096 C 
HETATM   11  C21         0      60.350  89.970 -25.953  1.00  0.00     0.084 C 
ENDROOT
BRANCH  10  12
HETATM   12  O20         0      62.231  91.291 -26.511  1.00  0.00    -0.359 OA
HETATM   13  H20         0      62.729  91.617 -27.250  1.00  0.00     0.218 HD
ENDBRANCH  10  12
BRANCH   4  14
HETATM   14  C5          0      57.020  89.128 -23.664  1.00  0.00     0.025 C 
HETATM   15  C6          0      55.709  89.582 -23.628  1.00  0.00     0.004 C 
HETATM   16  C7          0      54.718  88.666 -23.292  1.00  0.00     0.026 C 
HETATM   17  C8          0      55.029  87.376 -22.874  1.00  0.00     0.112 C 
HETATM   18  C10         0      56.305  87.230 -22.346  1.00  0.00     0.112 C 
HETATM   19  C12         0      57.298  88.108 -22.764  1.00  0.00     0.028 C 
BRANCH  17  20
HETATM   20  O9          0      54.195  86.314 -23.172  1.00  0.00    -0.357 OA
HETATM   21  H9          0      53.543  86.332 -23.863  1.00  0.00     0.218 HD
ENDBRANCH  17  20
BRANCH  18  22
HETATM   22  O11         0      56.600  86.015 -21.743  1.00  0.00    -0.357 OA
HETATM   23  H11         0      55.867  85.445 -21.544  1.00  0.00     0.218 HD
ENDBRANCH  18  22
ENDBRANCH   4  14
BRANCH   8  24
HETATM   24  O17         0      62.413  86.619 -26.847  1.00  0.00    -0.359 OA
HETATM   25  H17         0      63.223  86.511 -27.330  1.00  0.00     0.218 HD
ENDBRANCH   8  24
TORSDOF 5
ENDMDL
MODEL 8
REMARK VINA RESULT:      -5.3      3.677      7.229
REMARK  5 active torsions:
REMARK  status: ('A' for Active; 'I' for Inactive)
REMARK    1  A    between atoms: C4_4  and  C5_5 
REMARK    2  A    between atoms: C8_8  and  O9_9 
REMARK    3  A    between atoms: C10_11  and  O11_12 
REMARK    4  A    between atoms: C16_18  and  O17_19 
REMARK    5  A    between atoms: C19_22  and  O20_23 
ROOT
HETATM    1  O1          0      55.350  97.613 -24.828  1.00  0.00    -0.286 OA
HETATM    2  C2          0      54.171  97.215 -24.621  1.00  0.00     0.201 C 
HETATM    3  C3          0      53.843  96.337 -23.602  1.00  0.00     0.067 C 
HETATM    4  C4          0      52.554  95.834 -23.460  1.00  0.00     0.103 C 
HETATM    5  O13         0      51.623  96.227 -24.312  1.00  0.00    -0.307 OA
HETATM    6  C14         0      51.889  97.029 -25.319  1.00  0.00     0.107 C 
HETATM    7  C15         0      51.050  97.124 -26.419  1.00  0.00     0.049 C 
HETATM    8  C16         0      51.455  97.769 -27.582  1.00  0.00     0.093 C 
HETATM    9  C18         0      52.448  98.725 -27.408  1.00  0.00     0.048 C 
HETATM   10  C19         0      53.276  98.686 -26.294  1.00  0.00     0.096 C 
HETATM   11  C21         0      53.101  97.710 -25.351  1.00  0.00     0.084 C 
ENDROOT
BRANCH  10  12
HETATM   12  O20         0      54.504  99.341 -26.335  1.00  0.00    -0.359 OA
HETATM   13  H20         0      55.015  99.277 -27.133  1.00  0.00     0.218 HD
ENDBRANCH  10  12
BRANCH   4  14
HETATM   14  C5          0      52.412  94.530 -22.811  1.00  0.00     0.025 C 
HETATM   15  C6          0      51.185  94.016 -22.418  1.00  0.00     0.004 C 
HETATM   16  C7          0      50.975  92.651 -22.583  1.00  0.00     0.026 C 
HETATM   17  C8          0      51.994  91.801 -22.999  1.00  0.00     0.112 C 
HETATM   18  C10         0      53.277  92.271 -22.753  1.00  0.00     0.112 C 
HETATM   19  C12         0      53.474  93.645 -22.677  1.00  0.00     0.028 C 
BRANCH  17  20
HETATM   20  O9          0      51.719  90.692 -23.779  1.00  0.00    -0.357 OA
HETATM   21  H9          0      51.411  89.864 -23.429  1.00  0.00     0.218 HD
ENDBRANCH  17  20
BRANCH  18  22
HETATM   22  O11         0      54.324  91.387 -22.974  1.00  0.00    -0.357 OA
HETATM   23  H11         0      54.659  91.330 -23.861  1.00  0.00     0.218 HD
ENDBRANCH  18  22
ENDBRANCH   4  14
BRANCH   8  24
HETATM   24  O17         0      51.136  97.261 -28.846  1.00  0.00    -0.359 OA
HETATM   25  H17         0      51.742  96.714 -29.332  1.00  0.00     0.218 HD
ENDBRANCH   8  24
TORSDOF 5
ENDMDL
MODEL 9
REMARK VINA RESULT:      -5.2      4.951      8.407
REMARK  5 active torsions:
REMARK  status: ('A' for Active; 'I' for Inactive)
REMARK    1  A    between atoms: C4_4  and  C5_5 
REMARK    2  A    between atoms: C8_8  and  O9_9 
REMARK    3  A    between atoms: C10_11  and  O11_12 
REMARK    4  A    between atoms: C16_18  and  O17_19 
REMARK    5  A    between atoms: C19_22  and  O20_23 
ROOT
HETATM    1  O1          0      60.760  90.928 -27.079  1.00  0.00    -0.286 OA
HETATM    2  C2          0      60.246  89.920 -26.523  1.00  0.00     0.201 C 
HETATM    3  C3          0      59.033  89.966 -25.857  1.00  0.00     0.067 C 
HETATM    4  C4          0      58.539  88.866 -25.165  1.00  0.00     0.103 C 
HETATM    5  O13         0      59.243  87.747 -25.165  1.00  0.00    -0.307 OA
HETATM    6  C14         0      60.418  87.661 -25.749  1.00  0.00     0.107 C 
HETATM    7  C15         0      61.323  86.661 -25.426  1.00  0.00     0.049 C 
HETATM    8  C16         0      62.645  86.719 -25.850  1.00  0.00     0.093 C 
HETATM    9  C18         0      62.863  87.481 -26.991  1.00  0.00     0.048 C 
HETATM   10  C19         0      61.953  88.460 -27.370  1.00  0.00     0.096 C 
HETATM   11  C21         0      60.825  88.664 -26.623  1.00  0.00     0.084 C 
ENDROOT
BRANCH  10  12
HETATM   12  O20         0      62.367  89.482 -28.219  1.00  0.00    -0.359 OA
HETATM   13  H20         0      61.727  89.853 -28.814  1.00  0.00     0.218 HD
ENDBRANCH  10  12
BRANCH   4  14
HETATM   14  C5          0      57.637  89.130 -24.043  1.00  0.00     0.025 C 
HETATM   15  C6          0      57.326  90.413 -23.614  1.00  0.00     0.004 C 
HETATM   16  C7          0      56.019  90.656 -23.205  1.00  0.00     0.026 C 
HETATM   17  C8          0      55.085  89.631 -23.096  1.00  0.00     0.112 C 
HETATM   18  C10         0      55.631  88.366 -22.927  1.00  0.00     0.112 C 
HETATM   19  C12         0      56.907  88.125 -23.422  1.00  0.00     0.028 C 
BRANCH  17  20
HETATM   20  O9          0      53.746  89.862 -23.355  1.00  0.00    -0.357 OA
HETATM   21  H9          0      53.037  89.480 -22.850  1.00  0.00     0.218 HD
ENDBRANCH  17  20
BRANCH  18  22
HETATM   22  O11         0      54.750  87.337 -22.625  1.00  0.00    -0.357 OA
HETATM   23  H11         0      54.423  86.823 -23.355  1.00  0.00     0.218 HD
ENDBRANCH  18  22
ENDBRANCH   4  14
BRANCH   8  24
HETATM   24  O17         0      63.698  86.331 -25.013  1.00  0.00    -0.359 OA
HETATM   25  H17         0      64.318  86.962 -24.667  1.00  0.00     0.218 HD
ENDBRANCH   8  24
TORSDOF 5
ENDMDL
