MODEL 1
REMARK VINA RESULT:      -5.9      0.000      0.000
REMARK  5 active torsions:
REMARK  status: ('A' for Active; 'I' for Inactive)
REMARK    1  A    between atoms: C4_4  and  C5_5 
REMARK    2  A    between atoms: C8_8  and  O9_9 
REMARK    3  A    between atoms: C10_11  and  O11_12 
REMARK    4  A    between atoms: C16_18  and  O17_19 
REMARK    5  A    between atoms: C19_22  and  O20_23 
ROOT
HETATM    1  O1          0      50.784  94.589  -3.326  1.00  0.00    -0.286 OA
HETATM    2  C2          0      49.876  93.719  -3.435  1.00  0.00     0.201 C 
HETATM    3  C3          0      49.939  92.679  -4.347  1.00  0.00     0.067 C 
HETATM    4  C4          0      48.880  91.795  -4.518  1.00  0.00     0.103 C 
HETATM    5  O13         0      47.799  91.948  -3.773  1.00  0.00    -0.307 OA
HETATM    6  C14         0      47.673  92.940  -2.919  1.00  0.00     0.107 C 
HETATM    7  C15         0      46.433  93.340  -2.442  1.00  0.00     0.049 C 
HETATM    8  C16         0      46.278  94.535  -1.750  1.00  0.00     0.093 C 
HETATM    9  C18         0      47.425  95.002  -1.120  1.00  0.00     0.048 C 
HETATM   10  C19         0      48.681  94.586  -1.542  1.00  0.00     0.096 C 
HETATM   11  C21         0      48.789  93.695  -2.575  1.00  0.00     0.084 C 
ENDROOT
BRANCH  10  12
HETATM   12  O20         0      49.795  95.357  -1.226  1.00  0.00    -0.359 OA
HETATM   13  H20         0      50.529  94.926  -0.803  1.00  0.00     0.218 HD
ENDBRANCH  10  12
BRANCH   4  14
HETATM   14  C5          0      48.748  91.152  -5.827  1.00  0.00     0.025 C 
HETATM   15  C6          0      48.022  89.986  -6.022  1.00  0.00     0.004 C 
HETATM   16  C7          0      47.283  89.876  -7.196  1.00  0.00     0.026 C 
HETATM   17  C8          0      47.367  90.832  -8.203  1.00  0.00     0.112 C 
HETATM   18  C10         0      48.539  91.576  -8.199  1.00  0.00     0.112 C 
HETATM   19  C12         0      49.213  91.741  -6.995  1.00  0.00     0.028 C 
BRANCH  17  20
HETATM   20  O9          0      46.268  91.132  -8.988  1.00  0.00    -0.357 OA
HETATM   21  H9          0      45.527  91.644  -8.686  1.00  0.00     0.218 HD
ENDBRANCH  17  20
BRANCH  18  22
HETATM   22  O11         0      48.758  92.408  -9.288  1.00  0.00    -0.357 OA
HETATM   23  H11         0      48.485  92.085 -10.139  1.00  0.00     0.218 HD
ENDBRANCH  18  22
ENDBRANCH   4  14
BRANCH   8  24
HETATM   24  O17         0      45.165  95.358  -1.956  1.00  0.00    -0.359 OA
HETATM   25  H17         0      44.669  95.718  -1.230  1.00  0.00     0.218 HD
ENDBRANCH   8  24
TORSDOF 5
ENDMDL
MODEL 2
REMARK VINA RESULT:      -5.6      8.224     11.376
REMARK  5 active torsions:
REMARK  status: ('A' for Active; 'I' for Inactive)
REMARK    1  A    between atoms: C4_4  and  C5_5 
REMARK    2  A    between atoms: C8_8  and  O9_9 
REMARK    3  A    between atoms: C10_11  and  O11_12 
REMARK    4  A    between atoms: C16_18  and  O17_19 
REMARK    5  A    between atoms: C19_22  and  O20_23 
ROOT
HETATM    1  O1          0      47.394  96.833 -16.689  1.00  0.00    -0.286 OA
HETATM    2  C2          0      46.959  97.169 -15.553  1.00  0.00     0.201 C 
HETATM    3  C3          0      47.580  96.798 -14.372  1.00  0.00     0.067 C 
HETATM    4  C4          0      47.024  97.095 -13.133  1.00  0.00     0.103 C 
HETATM    5  O13         0      45.887  97.767 -13.091  1.00  0.00    -0.307 OA
HETATM    6  C14         0      45.238  98.111 -14.182  1.00  0.00     0.107 C 
HETATM    7  C15         0      43.892  98.444 -14.157  1.00  0.00     0.049 C 
HETATM    8  C16         0      43.154  98.556 -15.330  1.00  0.00     0.093 C 
HETATM    9  C18         0      43.900  98.847 -16.466  1.00  0.00     0.048 C 
HETATM   10  C19         0      45.259  98.569 -16.508  1.00  0.00     0.096 C 
HETATM   11  C21         0      45.874  98.021 -15.416  1.00  0.00     0.084 C 
ENDROOT
BRANCH  10  12
HETATM   12  O20         0      45.891  98.448 -17.742  1.00  0.00    -0.359 OA
HETATM   13  H20         0      46.483  97.716 -17.869  1.00  0.00     0.218 HD
ENDBRANCH  10  12
BRANCH   4  14
HETATM   14  C5          0      47.359  96.207 -12.018  1.00  0.00     0.025 C 
HETATM   15  C6          0      46.439  95.343 -11.443  1.00  0.00     0.004 C 
HETATM   16  C7          0      46.892  94.087 -11.051  1.00  0.00     0.026 C 
HETATM   17  C8          0      48.240  93.748 -11.105  1.00  0.00     0.112 C 
HETATM   18  C10         0      49.111  94.829 -11.076  1.00  0.00     0.112 C 
HETATM   19  C12         0      48.659  96.054 -11.553  1.00  0.00     0.028 C 
BRANCH  17  20
HETATM   20  O9          0      48.634  92.451 -11.379  1.00  0.00    -0.357 OA
HETATM   21  H9          0      49.504  92.216 -11.681  1.00  0.00     0.218 HD
ENDBRANCH  17  20
BRANCH  18  22
HETATM   22  O11         0      50.461  94.544 -10.936  1.00  0.00    -0.357 OA
HETATM   23  H11         0      50.688  93.776 -10.425  1.00  0.00     0.218 HD
ENDBRANCH  18  22
ENDBRANCH   4  14
BRANCH   8  24
HETATM   24  O17         0      41.840  98.084 -15.413  1.00  0.00    -0.359 OA
HETATM   25  H17         0      41.372  97.772 -14.647  1.00  0.00     0.218 HD
ENDBRANCH   8  24
TORSDOF 5
ENDMDL
MODEL 3
REMARK VINA RESULT:      -5.3     10.382     12.075
REMARK  5 active torsions:
REMARK  status: ('A' for Active; 'I' for Inactive)
REMARK    1  A    between atoms: C4_4  and  C5_5 
REMARK    2  A    between atoms: C8_8  and  O9_9 
REMARK    3  A    between atoms: C10_11  and  O11_12 
REMARK    4  A    between atoms: C16_18  and  O17_19 
REMARK    5  A    between atoms: C19_22  and  O20_23 
ROOT
HETATM    1  O1          0      42.879  96.064 -11.302  1.00  0.00    -0.286 OA
HETATM    2  C2          0      43.055  96.735 -12.355  1.00  0.00     0.201 C 
HETATM    3  C3          0      44.249  96.732 -13.056  1.00  0.00     0.067 C 
HETATM    4  C4          0      44.451  97.559 -14.155  1.00  0.00     0.103 C 
HETATM    5  O13         0      43.466  98.349 -14.544  1.00  0.00    -0.307 OA
HETATM    6  C14         0      42.326  98.419 -13.892  1.00  0.00     0.107 C 
HETATM    7  C15         0      41.466  99.498 -14.037  1.00  0.00     0.049 C 
HETATM    8  C16         0      40.399  99.692 -13.167  1.00  0.00     0.093 C 
HETATM    9  C18         0      39.938  98.541 -12.538  1.00  0.00     0.048 C 
HETATM   10  C19         0      40.757  97.427 -12.417  1.00  0.00     0.096 C 
HETATM   11  C21         0      42.022  97.455 -12.937  1.00  0.00     0.084 C 
ENDROOT
BRANCH  10  12
HETATM   12  O20         0      40.473  96.477 -11.441  1.00  0.00    -0.359 OA
HETATM   13  H20         0      39.763  95.869 -11.605  1.00  0.00     0.218 HD
ENDBRANCH  10  12
BRANCH   4  14
HETATM   14  C5          0      45.829  97.952 -14.454  1.00  0.00     0.025 C 
HETATM   15  C6          0      46.857  97.853 -13.527  1.00  0.00     0.004 C 
HETATM   16  C7          0      48.106  97.453 -13.990  1.00  0.00     0.026 C 
HETATM   17  C8          0      48.363  97.287 -15.347  1.00  0.00     0.112 C 
HETATM   18  C10         0      47.516  97.998 -16.187  1.00  0.00     0.112 C 
HETATM   19  C12         0      46.241  98.310 -15.731  1.00  0.00     0.028 C 
BRANCH  17  20
HETATM   20  O9          0      49.252  96.324 -15.787  1.00  0.00    -0.357 OA
HETATM   21  H9          0      49.155  95.395 -15.611  1.00  0.00     0.218 HD
ENDBRANCH  17  20
BRANCH  18  22
HETATM   22  O11         0      47.843  98.019 -17.536  1.00  0.00    -0.357 OA
HETATM   23  H11         0      48.207  98.828 -17.877  1.00  0.00     0.218 HD
ENDBRANCH  18  22
ENDBRANCH   4  14
BRANCH   8  24
HETATM   24  O17         0      40.052 100.969 -12.712  1.00  0.00    -0.359 OA
HETATM   25  H17         0      39.426 101.511 -13.177  1.00  0.00     0.218 HD
ENDBRANCH   8  24
TORSDOF 5
ENDMDL
MODEL 4
REMARK VINA RESULT:      -5.3      4.308      6.462
REMARK  5 active torsions:
REMARK  status: ('A' for Active; 'I' for Inactive)
REMARK    1  A    between atoms: C4_4  and  C5_5 
REMARK    2  A    between atoms: C8_8  and  O9_9 
REMARK    3  A    between atoms: C10_11  and  O11_12 
REMARK    4  A    between atoms: C16_18  and  O17_19 
REMARK    5  A    between atoms: C19_22  and  O20_23 
ROOT
HETATM    1  O1          0      51.900  97.006  -3.844  1.00  0.00    -0.286 OA
HETATM    2  C2          0      50.676  97.308  -3.795  1.00  0.00     0.201 C 
HETATM    3  C3          0      49.822  96.826  -2.818  1.00  0.00     0.067 C 
HETATM    4  C4          0      48.458  97.092  -2.847  1.00  0.00     0.103 C 
HETATM    5  O13         0      47.978  97.841  -3.825  1.00  0.00    -0.307 OA
HETATM    6  C14         0      48.739  98.292  -4.798  1.00  0.00     0.107 C 
HETATM    7  C15         0      48.205  98.720  -6.005  1.00  0.00     0.049 C 
HETATM    8  C16         0      49.014  98.952  -7.110  1.00  0.00     0.093 C 
HETATM    9  C18         0      50.339  99.252  -6.815  1.00  0.00     0.048 C 
HETATM   10  C19         0      50.892  98.880  -5.597  1.00  0.00     0.096 C 
HETATM   11  C21         0      50.122  98.227  -4.673  1.00  0.00     0.084 C 
ENDROOT
BRANCH  10  12
HETATM   12  O20         0      52.275  98.783  -5.480  1.00  0.00    -0.359 OA
HETATM   13  H20         0      52.796  99.542  -5.712  1.00  0.00     0.218 HD
ENDBRANCH  10  12
BRANCH   4  14
HETATM   14  C5          0      47.572  96.120  -2.204  1.00  0.00     0.025 C 
HETATM   15  C6          0      46.299  95.835  -2.676  1.00  0.00     0.004 C 
HETATM   16  C7          0      45.870  94.513  -2.616  1.00  0.00     0.026 C 
HETATM   17  C8          0      46.625  93.529  -1.987  1.00  0.00     0.112 C 
HETATM   18  C10         0      47.516  94.003  -1.034  1.00  0.00     0.112 C 
HETATM   19  C12         0      47.995  95.301  -1.165  1.00  0.00     0.028 C 
BRANCH  17  20
HETATM   20  O9          0      46.615  92.225  -2.449  1.00  0.00    -0.357 OA
HETATM   21  H9          0      47.377  91.788  -2.811  1.00  0.00     0.218 HD
ENDBRANCH  17  20
BRANCH  18  22
HETATM   22  O11         0      48.155  93.057  -0.245  1.00  0.00    -0.357 OA
HETATM   23  H11         0      47.759  92.194  -0.204  1.00  0.00     0.218 HD
ENDBRANCH  18  22
ENDBRANCH   4  14
BRANCH   8  24
HETATM   24  O17         0      48.613  98.581  -8.398  1.00  0.00    -0.359 OA
HETATM   25  H17         0      49.108  98.836  -9.168  1.00  0.00     0.218 HD
ENDBRANCH   8  24
TORSDOF 5
ENDMDL
MODEL 5
REMARK VINA RESULT:      -5.3      5.625      8.661
REMARK  5 active torsions:
REMARK  status: ('A' for Active; 'I' for Inactive)
REMARK    1  A    between atoms: C4_4  and  C5_5 
REMARK    2  A    between atoms: C8_8  and  O9_9 
REMARK    3  A    between atoms: C10_11  and  O11_12 
REMARK    4  A    between atoms: C16_18  and  O17_19 
REMARK    5  A    between atoms: C19_22  and  O20_23 
ROOT
HETATM    1  O1          0      48.187  96.404 -14.083  1.00  0.00    -0.286 OA
HETATM    2  C2          0      47.638  95.956 -13.039  1.00  0.00     0.201 C 
HETATM    3  C3          0      48.228  94.998 -12.233  1.00  0.00     0.067 C 
HETATM    4  C4          0      47.558  94.448 -11.146  1.00  0.00     0.103 C 
HETATM    5  O13         0      46.336  94.871 -10.873  1.00  0.00    -0.307 OA
HETATM    6  C14         0      45.716  95.751 -11.628  1.00  0.00     0.107 C 
HETATM    7  C15         0      44.337  95.899 -11.596  1.00  0.00     0.049 C 
HETATM    8  C16         0      43.668  96.638 -12.564  1.00  0.00     0.093 C 
HETATM    9  C18         0      44.435  97.608 -13.197  1.00  0.00     0.048 C 
HETATM   10  C19         0      45.821  97.516 -13.208  1.00  0.00     0.096 C 
HETATM   11  C21         0      46.436  96.470 -12.576  1.00  0.00     0.084 C 
ENDROOT
BRANCH  10  12
HETATM   12  O20         0      46.541  98.209 -14.176  1.00  0.00    -0.359 OA
HETATM   13  H20         0      46.609  99.152 -14.090  1.00  0.00     0.218 HD
ENDBRANCH  10  12
BRANCH   4  14
HETATM   14  C5          0      47.944  93.096 -10.736  1.00  0.00     0.025 C 
HETATM   15  C6          0      48.908  92.851  -9.769  1.00  0.00     0.004 C 
HETATM   16  C7          0      48.688  91.793  -8.893  1.00  0.00     0.026 C 
HETATM   17  C8          0      47.613  90.925  -9.053  1.00  0.00     0.112 C 
HETATM   18  C10         0      47.108  90.860 -10.345  1.00  0.00     0.112 C 
HETATM   19  C12         0      47.268  91.964 -11.173  1.00  0.00     0.028 C 
BRANCH  17  20
HETATM   20  O9          0      46.992  90.356  -7.955  1.00  0.00    -0.357 OA
HETATM   21  H9          0      46.587  90.859  -7.258  1.00  0.00     0.218 HD
ENDBRANCH  17  20
BRANCH  18  22
HETATM   22  O11         0      46.165  89.875 -10.601  1.00  0.00    -0.357 OA
HETATM   23  H11         0      45.733  89.904 -11.447  1.00  0.00     0.218 HD
ENDBRANCH  18  22
ENDBRANCH   4  14
BRANCH   8  24
HETATM   24  O17         0      42.442  96.212 -13.088  1.00  0.00    -0.359 OA
HETATM   25  H17         0      42.356  95.931 -13.991  1.00  0.00     0.218 HD
ENDBRANCH   8  24
TORSDOF 5
ENDMDL
MODEL 6
REMARK VINA RESULT:      -5.1      2.306      6.482
REMARK  5 active torsions:
REMARK  status: ('A' for Active; 'I' for Inactive)
REMARK    1  A    between atoms: C4_4  and  C5_5 
REMARK    2  A    between atoms: C8_8  and  O9_9 
REMARK    3  A    between atoms: C10_11  and  O11_12 
REMARK    4  A    between atoms: C16_18  and  O17_19 
REMARK    5  A    between atoms: C19_22  and  O20_23 
ROOT
HETATM    1  O1          0      48.658  91.603  -6.477  1.00  0.00    -0.286 OA
HETATM    2  C2          0      48.920  91.419  -5.256  1.00  0.00     0.201 C 
HETATM    3  C3          0      48.058  91.793  -4.239  1.00  0.00     0.067 C 
HETATM    4  C4          0      48.415  91.673  -2.901  1.00  0.00     0.103 C 
HETATM    5  O13         0      49.600  91.169  -2.602  1.00  0.00    -0.307 OA
HETATM    6  C14         0      50.470  90.833  -3.529  1.00  0.00     0.107 C 
HETATM    7  C15         0      51.821  90.691  -3.246  1.00  0.00     0.049 C 
HETATM    8  C16         0      52.764  90.590  -4.262  1.00  0.00     0.093 C 
HETATM    9  C18         0      52.275  90.111  -5.471  1.00  0.00     0.048 C 
HETATM   10  C19         0      50.921  90.195  -5.767  1.00  0.00     0.096 C 
HETATM   11  C21         0      50.059  90.738  -4.854  1.00  0.00     0.084 C 
ENDROOT
BRANCH  10  12
HETATM   12  O20         0      50.510  90.131  -7.095  1.00  0.00    -0.359 OA
HETATM   13  H20         0      49.794  90.693  -7.367  1.00  0.00     0.218 HD
ENDBRANCH  10  12
BRANCH   4  14
HETATM   14  C5          0      47.781  92.591  -1.954  1.00  0.00     0.025 C 
HETATM   15  C6          0      48.423  93.062  -0.818  1.00  0.00     0.004 C 
HETATM   16  C7          0      48.200  94.386  -0.452  1.00  0.00     0.026 C 
HETATM   17  C8          0      47.266  95.177  -1.113  1.00  0.00     0.112 C 
HETATM   18  C10         0      46.267  94.470  -1.769  1.00  0.00     0.112 C 
HETATM   19  C12         0      46.546  93.178  -2.199  1.00  0.00     0.028 C 
BRANCH  17  20
HETATM   20  O9          0      47.469  96.537  -1.263  1.00  0.00    -0.357 OA
HETATM   21  H9          0      47.930  96.925  -1.998  1.00  0.00     0.218 HD
ENDBRANCH  17  20
BRANCH  18  22
HETATM   22  O11         0      45.209  95.207  -2.282  1.00  0.00    -0.357 OA
HETATM   23  H11         0      44.697  94.800  -2.972  1.00  0.00     0.218 HD
ENDBRANCH  18  22
ENDBRANCH   4  14
BRANCH   8  24
HETATM   24  O17         0      54.005  91.230  -4.171  1.00  0.00    -0.359 OA
HETATM   25  H17         0      54.115  92.037  -3.682  1.00  0.00     0.218 HD
ENDBRANCH   8  24
TORSDOF 5
ENDMDL
MODEL 7
REMARK VINA RESULT:      -5.0      8.793     12.079
REMARK  5 active torsions:
REMARK  status: ('A' for Active; 'I' for Inactive)
REMARK    1  A    between atoms: C4_4  and  C5_5 
REMARK    2  A    between atoms: C8_8  and  O9_9 
REMARK    3  A    between atoms: C10_11  and  O11_12 
REMARK    4  A    between atoms: C16_18  and  O17_19 
REMARK    5  A    between atoms: C19_22  and  O20_23 
ROOT
HETATM    1  O1          0      46.187  96.586 -17.851  1.00  0.00    -0.286 OA
HETATM    2  C2          0      46.367  97.041 -16.689  1.00  0.00     0.201 C 
HETATM    3  C3          0      47.519  96.800 -15.958  1.00  0.00     0.067 C 
HETATM    4  C4          0      47.649  97.227 -14.642  1.00  0.00     0.103 C 
HETATM    5  O13         0      46.651  97.895 -14.089  1.00  0.00    -0.307 OA
HETATM    6  C14         0      45.522  98.118 -14.726  1.00  0.00     0.107 C 
HETATM    7  C15         0      44.356  98.447 -14.051  1.00  0.00     0.049 C 
HETATM    8  C16         0      43.123  98.431 -14.691  1.00  0.00     0.093 C 
HETATM    9  C18         0      43.175  98.601 -16.069  1.00  0.00     0.048 C 
HETATM   10  C19         0      44.341  98.325 -16.771  1.00  0.00     0.096 C 
HETATM   11  C21         0      45.453  97.899 -16.097  1.00  0.00     0.084 C 
ENDROOT
BRANCH  10  12
HETATM   12  O20         0      44.269  98.074 -18.137  1.00  0.00    -0.359 OA
HETATM   13  H20         0      43.722  98.642 -18.666  1.00  0.00     0.218 HD
ENDBRANCH  10  12
BRANCH   4  14
HETATM   14  C5          0      48.550  96.464 -13.776  1.00  0.00     0.025 C 
HETATM   15  C6          0      49.884  96.801 -13.596  1.00  0.00     0.004 C 
HETATM   16  C7          0      50.421  96.648 -12.322  1.00  0.00     0.026 C 
HETATM   17  C8          0      49.699  96.054 -11.293  1.00  0.00     0.112 C 
HETATM   18  C10         0      48.680  95.209 -11.712  1.00  0.00     0.112 C 
HETATM   19  C12         0      48.102  95.437 -12.955  1.00  0.00     0.028 C 
BRANCH  17  20
HETATM   20  O9          0      49.870  96.460  -9.981  1.00  0.00    -0.357 OA
HETATM   21  H9          0      50.530  97.085  -9.704  1.00  0.00     0.218 HD
ENDBRANCH  17  20
BRANCH  18  22
HETATM   22  O11         0      48.054  94.448 -10.735  1.00  0.00    -0.357 OA
HETATM   23  H11         0      47.259  94.805 -10.355  1.00  0.00     0.218 HD
ENDBRANCH  18  22
ENDBRANCH   4  14
BRANCH   8  24
HETATM   24  O17         0      41.975  97.948 -14.052  1.00  0.00    -0.359 OA
HETATM   25  H17         0      41.352  97.389 -14.500  1.00  0.00     0.218 HD
ENDBRANCH   8  24
TORSDOF 5
ENDMDL
MODEL 8
REMARK VINA RESULT:      -5.0      8.169     11.650
REMARK  5 active torsions:
REMARK  status: ('A' for Active; 'I' for Inactive)
REMARK    1  A    between atoms: C4_4  and  C5_5 
REMARK    2  A    between atoms: C8_8  and  O9_9 
REMARK    3  A    between atoms: C10_11  and  O11_12 
REMARK    4  A    between atoms: C16_18  and  O17_19 
REMARK    5  A    between atoms: C19_22  and  O20_23 
ROOT
HETATM    1  O1          0      50.125  97.086 -16.008  1.00  0.00    -0.286 OA
HETATM    2  C2          0      49.073  97.248 -15.330  1.00  0.00     0.201 C 
HETATM    3  C3          0      48.995  96.943 -13.982  1.00  0.00     0.067 C 
HETATM    4  C4          0      47.796  97.034 -13.283  1.00  0.00     0.103 C 
HETATM    5  O13         0      46.716  97.442 -13.926  1.00  0.00    -0.307 OA
HETATM    6  C14         0      46.727  97.708 -15.213  1.00  0.00     0.107 C 
HETATM    7  C15         0      45.560  97.742 -15.963  1.00  0.00     0.049 C 
HETATM    8  C16         0      45.595  97.768 -17.352  1.00  0.00     0.093 C 
HETATM    9  C18         0      46.764  98.284 -17.900  1.00  0.00     0.048 C 
HETATM   10  C19         0      47.939  98.309 -17.161  1.00  0.00     0.096 C 
HETATM   11  C21         0      47.943  97.836 -15.877  1.00  0.00     0.084 C 
ENDROOT
BRANCH  10  12
HETATM   12  O20         0      49.158  98.405 -17.825  1.00  0.00    -0.359 OA
HETATM   13  H20         0      49.911  98.707 -17.331  1.00  0.00     0.218 HD
ENDBRANCH  10  12
BRANCH   4  14
HETATM   14  C5          0      47.636  96.169 -12.113  1.00  0.00     0.025 C 
HETATM   15  C6          0      46.397  95.854 -11.575  1.00  0.00     0.004 C 
HETATM   16  C7          0      46.210  94.558 -11.103  1.00  0.00     0.026 C 
HETATM   17  C8          0      47.257  93.646 -11.042  1.00  0.00     0.112 C 
HETATM   18  C10         0      48.522  94.217 -10.990  1.00  0.00     0.112 C 
HETATM   19  C12         0      48.700  95.478 -11.547  1.00  0.00     0.028 C 
BRANCH  17  20
HETATM   20  O9          0      47.032  92.294 -11.235  1.00  0.00    -0.357 OA
HETATM   21  H9          0      46.423  91.947 -11.876  1.00  0.00     0.218 HD
ENDBRANCH  17  20
BRANCH  18  22
HETATM   22  O11         0      49.587  93.364 -10.740  1.00  0.00    -0.357 OA
HETATM   23  H11         0      49.491  92.461 -11.021  1.00  0.00     0.218 HD
ENDBRANCH  18  22
ENDBRANCH   4  14
BRANCH   8  24
HETATM   24  O17         0      44.686  97.031 -18.119  1.00  0.00    -0.359 OA
HETATM   25  H17         0      44.829  96.870 -19.044  1.00  0.00     0.218 HD
ENDBRANCH   8  24
TORSDOF 5
ENDMDL
MODEL 9
REMARK VINA RESULT:      -4.9      7.634     10.672
REMARK  5 active torsions:
REMARK  status: ('A' for Active; 'I' for Inactive)
REMARK    1  A    between atoms: C4_4  and  C5_5 
REMARK    2  A    between atoms: C8_8  and  O9_9 
REMARK    3  A    between atoms: C10_11  and  O11_12 
REMARK    4  A    between atoms: C16_18  and  O17_19 
REMARK    5  A    between atoms: C19_22  and  O20_23 
ROOT
HETATM    1  O1          0      46.441  97.626 -14.348  1.00  0.00    -0.286 OA
HETATM    2  C2          0      47.527  97.289 -13.803  1.00  0.00     0.201 C 
HETATM    3  C3          0      48.764  97.685 -14.284  1.00  0.00     0.067 C 
HETATM    4  C4          0      49.947  97.216 -13.725  1.00  0.00     0.103 C 
HETATM    5  O13         0      49.880  96.388 -12.698  1.00  0.00    -0.307 OA
HETATM    6  C14         0      48.733  95.951 -12.226  1.00  0.00     0.107 C 
HETATM    7  C15         0      48.652  94.809 -11.442  1.00  0.00     0.049 C 
HETATM    8  C16         0      47.429  94.212 -11.162  1.00  0.00     0.093 C 
HETATM    9  C18         0      46.331  95.061 -11.230  1.00  0.00     0.048 C 
HETATM   10  C19         0      46.393  96.236 -11.967  1.00  0.00     0.096 C 
HETATM   11  C21         0      47.550  96.569 -12.618  1.00  0.00     0.084 C 
ENDROOT
BRANCH  10  12
HETATM   12  O20         0      45.211  96.838 -12.388  1.00  0.00    -0.359 OA
HETATM   13  H20         0      44.674  96.372 -13.017  1.00  0.00     0.218 HD
ENDBRANCH  10  12
BRANCH   4  14
HETATM   14  C5          0      51.124  97.166 -14.594  1.00  0.00     0.025 C 
HETATM   15  C6          0      52.391  97.535 -14.166  1.00  0.00     0.004 C 
HETATM   16  C7          0      53.470  96.784 -14.623  1.00  0.00     0.026 C 
HETATM   17  C8          0      53.311  95.785 -15.578  1.00  0.00     0.112 C 
HETATM   18  C10         0      52.185  95.922 -16.378  1.00  0.00     0.112 C 
HETATM   19  C12         0      51.089  96.605 -15.864  1.00  0.00     0.028 C 
BRANCH  17  20
HETATM   20  O9          0      54.108  94.655 -15.560  1.00  0.00    -0.357 OA
HETATM   21  H9          0      54.664  94.412 -14.828  1.00  0.00     0.218 HD
ENDBRANCH  17  20
BRANCH  18  22
HETATM   22  O11         0      52.078  95.066 -17.464  1.00  0.00    -0.357 OA
HETATM   23  H11         0      52.538  95.317 -18.257  1.00  0.00     0.218 HD
ENDBRANCH  18  22
ENDBRANCH   4  14
BRANCH   8  24
HETATM   24  O17         0      47.283  92.820 -11.150  1.00  0.00    -0.359 OA
HETATM   25  H17         0      46.864  92.368 -10.427  1.00  0.00     0.218 HD
ENDBRANCH   8  24
TORSDOF 5
ENDMDL
