MODEL 1
REMARK VINA RESULT:      -6.8      0.000      0.000
REMARK  5 active torsions:
REMARK  status: ('A' for Active; 'I' for Inactive)
REMARK    1  A    between atoms: C4_4  and  C5_5 
REMARK    2  A    between atoms: C8_8  and  O9_9 
REMARK    3  A    between atoms: C10_11  and  O11_12 
REMARK    4  A    between atoms: C16_18  and  O17_19 
REMARK    5  A    between atoms: C19_22  and  O20_23 
ROOT
HETATM    1  O1          0      65.658  22.075  -2.235  1.00  0.00    -0.286 OA
HETATM    2  C2          0      65.517  23.291  -2.541  1.00  0.00     0.201 C 
HETATM    3  C3          0      66.546  24.059  -3.059  1.00  0.00     0.067 C 
HETATM    4  C4          0      66.393  25.421  -3.291  1.00  0.00     0.103 C 
HETATM    5  O13         0      65.227  25.983  -3.025  1.00  0.00    -0.307 OA
HETATM    6  C14         0      64.229  25.308  -2.497  1.00  0.00     0.107 C 
HETATM    7  C15         0      63.175  25.943  -1.856  1.00  0.00     0.049 C 
HETATM    8  C16         0      62.265  25.230  -1.085  1.00  0.00     0.093 C 
HETATM    9  C18         0      62.142  23.886  -1.415  1.00  0.00     0.048 C 
HETATM   10  C19         0      63.158  23.231  -2.098  1.00  0.00     0.096 C 
HETATM   11  C21         0      64.283  23.919  -2.463  1.00  0.00     0.084 C 
ENDROOT
BRANCH  10  12
HETATM   12  O20         0      63.232  21.843  -2.040  1.00  0.00    -0.359 OA
HETATM   13  H20         0      63.115  21.357  -2.847  1.00  0.00     0.218 HD
ENDBRANCH  10  12
BRANCH   4  14
HETATM   14  C5          0      67.600  26.248  -3.246  1.00  0.00     0.025 C 
HETATM   15  C6          0      67.564  27.623  -3.060  1.00  0.00     0.004 C 
HETATM   16  C7          0      68.555  28.193  -2.268  1.00  0.00     0.026 C 
HETATM   17  C8          0      69.623  27.444  -1.785  1.00  0.00     0.112 C 
HETATM   18  C10         0      69.907  26.299  -2.518  1.00  0.00     0.112 C 
HETATM   19  C12         0      68.877  25.701  -3.234  1.00  0.00     0.028 C 
BRANCH  17  20
HETATM   20  O9          0      70.192  27.731  -0.557  1.00  0.00    -0.357 OA
HETATM   21  H9          0      71.086  28.034  -0.447  1.00  0.00     0.218 HD
ENDBRANCH  17  20
BRANCH  18  22
HETATM   22  O11         0      71.073  25.620  -2.196  1.00  0.00    -0.357 OA
HETATM   23  H11         0      71.016  24.674  -2.132  1.00  0.00     0.218 HD
ENDBRANCH  18  22
ENDBRANCH   4  14
BRANCH   8  24
HETATM   24  O17         0      61.779  25.738   0.125  1.00  0.00    -0.359 OA
HETATM   25  H17         0      62.049  25.379   0.962  1.00  0.00     0.218 HD
ENDBRANCH   8  24
TORSDOF 5
ENDMDL
MODEL 2
REMARK VINA RESULT:      -6.1      1.671      2.161
REMARK  5 active torsions:
REMARK  status: ('A' for Active; 'I' for Inactive)
REMARK    1  A    between atoms: C4_4  and  C5_5 
REMARK    2  A    between atoms: C8_8  and  O9_9 
REMARK    3  A    between atoms: C10_11  and  O11_12 
REMARK    4  A    between atoms: C16_18  and  O17_19 
REMARK    5  A    between atoms: C19_22  and  O20_23 
ROOT
HETATM    1  O1          0      65.824  22.203  -2.289  1.00  0.00    -0.286 OA
HETATM    2  C2          0      65.637  23.411  -2.602  1.00  0.00     0.201 C 
HETATM    3  C3          0      66.629  24.205  -3.151  1.00  0.00     0.067 C 
HETATM    4  C4          0      66.427  25.560  -3.392  1.00  0.00     0.103 C 
HETATM    5  O13         0      65.250  26.087  -3.105  1.00  0.00    -0.307 OA
HETATM    6  C14         0      64.287  25.386  -2.548  1.00  0.00     0.107 C 
HETATM    7  C15         0      63.228  25.993  -1.889  1.00  0.00     0.049 C 
HETATM    8  C16         0      62.359  25.260  -1.091  1.00  0.00     0.093 C 
HETATM    9  C18         0      62.271  23.909  -1.406  1.00  0.00     0.048 C 
HETATM   10  C19         0      63.292  23.280  -2.105  1.00  0.00     0.096 C 
HETATM   11  C21         0      64.386  24.000  -2.503  1.00  0.00     0.084 C 
ENDROOT
BRANCH  10  12
HETATM   12  O20         0      63.412  21.896  -2.035  1.00  0.00    -0.359 OA
HETATM   13  H20         0      63.074  21.458  -1.263  1.00  0.00     0.218 HD
ENDBRANCH  10  12
BRANCH   4  14
HETATM   14  C5          0      67.609  26.425  -3.383  1.00  0.00     0.025 C 
HETATM   15  C6          0      68.850  26.007  -3.839  1.00  0.00     0.004 C 
HETATM   16  C7          0      69.623  26.929  -4.538  1.00  0.00     0.026 C 
HETATM   17  C8          0      69.237  28.259  -4.664  1.00  0.00     0.112 C 
HETATM   18  C10         0      68.364  28.704  -3.681  1.00  0.00     0.112 C 
HETATM   19  C12         0      67.541  27.773  -3.057  1.00  0.00     0.028 C 
BRANCH  17  20
HETATM   20  O9          0      69.546  28.982  -5.802  1.00  0.00    -0.357 OA
HETATM   21  H9          0      70.374  28.914  -6.262  1.00  0.00     0.218 HD
ENDBRANCH  17  20
BRANCH  18  22
HETATM   22  O11         0      68.095  30.065  -3.648  1.00  0.00    -0.357 OA
HETATM   23  H11         0      68.539  30.606  -4.291  1.00  0.00     0.218 HD
ENDBRANCH  18  22
ENDBRANCH   4  14
BRANCH   8  24
HETATM   24  O17         0      61.884  25.765   0.125  1.00  0.00    -0.359 OA
HETATM   25  H17         0      61.481  26.623   0.186  1.00  0.00     0.218 HD
ENDBRANCH   8  24
TORSDOF 5
ENDMDL
MODEL 3
REMARK VINA RESULT:      -5.6      1.946      2.816
REMARK  5 active torsions:
REMARK  status: ('A' for Active; 'I' for Inactive)
REMARK    1  A    between atoms: C4_4  and  C5_5 
REMARK    2  A    between atoms: C8_8  and  O9_9 
REMARK    3  A    between atoms: C10_11  and  O11_12 
REMARK    4  A    between atoms: C16_18  and  O17_19 
REMARK    5  A    between atoms: C19_22  and  O20_23 
ROOT
HETATM    1  O1          0      68.229  22.769  -3.168  1.00  0.00    -0.286 OA
HETATM    2  C2          0      67.567  23.837  -3.271  1.00  0.00     0.201 C 
HETATM    3  C3          0      68.163  25.082  -3.378  1.00  0.00     0.067 C 
HETATM    4  C4          0      67.411  26.252  -3.387  1.00  0.00     0.103 C 
HETATM    5  O13         0      66.095  26.161  -3.310  1.00  0.00    -0.307 OA
HETATM    6  C14         0      65.481  25.006  -3.169  1.00  0.00     0.107 C 
HETATM    7  C15         0      64.180  24.924  -2.694  1.00  0.00     0.049 C 
HETATM    8  C16         0      63.629  23.708  -2.308  1.00  0.00     0.093 C 
HETATM    9  C18         0      64.203  22.589  -2.898  1.00  0.00     0.048 C 
HETATM   10  C19         0      65.486  22.649  -3.425  1.00  0.00     0.096 C 
HETATM   11  C21         0      66.184  23.825  -3.378  1.00  0.00     0.084 C 
ENDROOT
BRANCH  10  12
HETATM   12  O20         0      66.204  21.471  -3.606  1.00  0.00    -0.359 OA
HETATM   13  H20         0      65.775  20.753  -4.056  1.00  0.00     0.218 HD
ENDBRANCH  10  12
BRANCH   4  14
HETATM   14  C5          0      68.062  27.470  -2.903  1.00  0.00     0.025 C 
HETATM   15  C6          0      69.223  27.452  -2.143  1.00  0.00     0.004 C 
HETATM   16  C7          0      70.170  28.441  -2.388  1.00  0.00     0.026 C 
HETATM   17  C8          0      69.917  29.492  -3.264  1.00  0.00     0.112 C 
HETATM   18  C10         0      68.571  29.768  -3.464  1.00  0.00     0.112 C 
HETATM   19  C12         0      67.653  28.739  -3.295  1.00  0.00     0.028 C 
BRANCH  17  20
HETATM   20  O9          0      70.936  30.049  -4.015  1.00  0.00    -0.357 OA
HETATM   21  H9          0      71.561  29.539  -4.518  1.00  0.00     0.218 HD
ENDBRANCH  17  20
BRANCH  18  22
HETATM   22  O11         0      68.266  30.920  -4.175  1.00  0.00    -0.357 OA
HETATM   23  H11         0      67.839  30.806  -5.016  1.00  0.00     0.218 HD
ENDBRANCH  18  22
ENDBRANCH   4  14
BRANCH   8  24
HETATM   24  O17         0      62.809  23.605  -1.178  1.00  0.00    -0.359 OA
HETATM   25  H17         0      63.172  23.542  -0.302  1.00  0.00     0.218 HD
ENDBRANCH   8  24
TORSDOF 5
ENDMDL
MODEL 4
REMARK VINA RESULT:      -5.3      2.119      3.512
REMARK  5 active torsions:
REMARK  status: ('A' for Active; 'I' for Inactive)
REMARK    1  A    between atoms: C4_4  and  C5_5 
REMARK    2  A    between atoms: C8_8  and  O9_9 
REMARK    3  A    between atoms: C10_11  and  O11_12 
REMARK    4  A    between atoms: C16_18  and  O17_19 
REMARK    5  A    between atoms: C19_22  and  O20_23 
ROOT
HETATM    1  O1          0      62.159  24.833  -0.793  1.00  0.00    -0.286 OA
HETATM    2  C2          0      62.817  24.109  -1.589  1.00  0.00     0.201 C 
HETATM    3  C3          0      64.181  24.253  -1.781  1.00  0.00     0.067 C 
HETATM    4  C4          0      64.864  23.511  -2.739  1.00  0.00     0.103 C 
HETATM    5  O13         0      64.189  22.637  -3.464  1.00  0.00    -0.307 OA
HETATM    6  C14         0      62.888  22.487  -3.348  1.00  0.00     0.107 C 
HETATM    7  C15         0      62.128  21.891  -4.344  1.00  0.00     0.049 C 
HETATM    8  C16         0      60.741  21.964  -4.335  1.00  0.00     0.093 C 
HETATM    9  C18         0      60.172  22.164  -3.082  1.00  0.00     0.048 C 
HETATM   10  C19         0      60.918  22.715  -2.049  1.00  0.00     0.096 C 
HETATM   11  C21         0      62.228  23.048  -2.260  1.00  0.00     0.084 C 
ENDROOT
BRANCH  10  12
HETATM   12  O20         0      60.259  23.305  -0.975  1.00  0.00    -0.359 OA
HETATM   13  H20         0      60.090  22.771  -0.208  1.00  0.00     0.218 HD
ENDBRANCH  10  12
BRANCH   4  14
HETATM   14  C5          0      66.082  24.100  -3.298  1.00  0.00     0.025 C 
HETATM   15  C6          0      66.289  25.470  -3.374  1.00  0.00     0.004 C 
HETATM   16  C7          0      67.574  25.942  -3.124  1.00  0.00     0.026 C 
HETATM   17  C8          0      68.646  25.076  -2.939  1.00  0.00     0.112 C 
HETATM   18  C10         0      68.477  23.816  -3.496  1.00  0.00     0.112 C 
HETATM   19  C12         0      67.183  23.333  -3.656  1.00  0.00     0.028 C 
BRANCH  17  20
HETATM   20  O9          0      69.683  25.405  -2.084  1.00  0.00    -0.357 OA
HETATM   21  H9          0      70.134  26.242  -2.098  1.00  0.00     0.218 HD
ENDBRANCH  17  20
BRANCH  18  22
HETATM   22  O11         0      69.583  22.979  -3.505  1.00  0.00    -0.357 OA
HETATM   23  H11         0      70.390  23.337  -3.858  1.00  0.00     0.218 HD
ENDBRANCH  18  22
ENDBRANCH   4  14
BRANCH   8  24
HETATM   24  O17         0      60.012  22.160  -5.513  1.00  0.00    -0.359 OA
HETATM   25  H17         0      60.394  22.000  -6.368  1.00  0.00     0.218 HD
ENDBRANCH   8  24
TORSDOF 5
ENDMDL
MODEL 5
REMARK VINA RESULT:      -5.3      2.749      3.693
REMARK  5 active torsions:
REMARK  status: ('A' for Active; 'I' for Inactive)
REMARK    1  A    between atoms: C4_4  and  C5_5 
REMARK    2  A    between atoms: C8_8  and  O9_9 
REMARK    3  A    between atoms: C10_11  and  O11_12 
REMARK    4  A    between atoms: C16_18  and  O17_19 
REMARK    5  A    between atoms: C19_22  and  O20_23 
ROOT
HETATM    1  O1          0      62.637  22.221  -1.571  1.00  0.00    -0.286 OA
HETATM    2  C2          0      63.163  22.626  -2.644  1.00  0.00     0.201 C 
HETATM    3  C3          0      64.511  22.922  -2.753  1.00  0.00     0.067 C 
HETATM    4  C4          0      65.046  23.464  -3.916  1.00  0.00     0.103 C 
HETATM    5  O13         0      64.244  23.679  -4.944  1.00  0.00    -0.307 OA
HETATM    6  C14         0      62.951  23.450  -4.881  1.00  0.00     0.107 C 
HETATM    7  C15         0      62.061  24.030  -5.774  1.00  0.00     0.049 C 
HETATM    8  C16         0      60.690  23.994  -5.553  1.00  0.00     0.093 C 
HETATM    9  C18         0      60.252  22.948  -4.749  1.00  0.00     0.048 C 
HETATM   10  C19         0      61.127  22.315  -3.877  1.00  0.00     0.096 C 
HETATM   11  C21         0      62.435  22.712  -3.821  1.00  0.00     0.084 C 
ENDROOT
BRANCH  10  12
HETATM   12  O20         0      60.615  21.602  -2.798  1.00  0.00    -0.359 OA
HETATM   13  H20         0      61.227  21.270  -2.153  1.00  0.00     0.218 HD
ENDBRANCH  10  12
BRANCH   4  14
HETATM   14  C5          0      66.252  24.283  -3.781  1.00  0.00     0.025 C 
HETATM   15  C6          0      67.396  24.068  -4.536  1.00  0.00     0.004 C 
HETATM   16  C7          0      68.099  25.186  -4.974  1.00  0.00     0.026 C 
HETATM   17  C8          0      67.756  26.470  -4.564  1.00  0.00     0.112 C 
HETATM   18  C10         0      67.053  26.528  -3.367  1.00  0.00     0.112 C 
HETATM   19  C12         0      66.290  25.428  -2.995  1.00  0.00     0.028 C 
BRANCH  17  20
HETATM   20  O9          0      67.927  27.553  -5.407  1.00  0.00    -0.357 OA
HETATM   21  H9          0      68.667  28.148  -5.359  1.00  0.00     0.218 HD
ENDBRANCH  17  20
BRANCH  18  22
HETATM   22  O11         0      66.851  27.787  -2.818  1.00  0.00    -0.357 OA
HETATM   23  H11         0      67.586  28.179  -2.361  1.00  0.00     0.218 HD
ENDBRANCH  18  22
ENDBRANCH   4  14
BRANCH   8  24
HETATM   24  O17         0      59.877  25.099  -5.831  1.00  0.00    -0.359 OA
HETATM   25  H17         0      60.030  25.944  -5.426  1.00  0.00     0.218 HD
ENDBRANCH   8  24
TORSDOF 5
ENDMDL
MODEL 6
REMARK VINA RESULT:      -5.2      3.287      4.863
REMARK  5 active torsions:
REMARK  status: ('A' for Active; 'I' for Inactive)
REMARK    1  A    between atoms: C4_4  and  C5_5 
REMARK    2  A    between atoms: C8_8  and  O9_9 
REMARK    3  A    between atoms: C10_11  and  O11_12 
REMARK    4  A    between atoms: C16_18  and  O17_19 
REMARK    5  A    between atoms: C19_22  and  O20_23 
ROOT
HETATM    1  O1          0      64.206  26.580  -2.343  1.00  0.00    -0.286 OA
HETATM    2  C2          0      64.226  25.333  -2.531  1.00  0.00     0.201 C 
HETATM    3  C3          0      65.003  24.733  -3.507  1.00  0.00     0.067 C 
HETATM    4  C4          0      64.929  23.368  -3.761  1.00  0.00     0.103 C 
HETATM    5  O13         0      64.108  22.631  -3.034  1.00  0.00    -0.307 OA
HETATM    6  C14         0      63.321  23.156  -2.120  1.00  0.00     0.107 C 
HETATM    7  C15         0      62.201  22.486  -1.648  1.00  0.00     0.049 C 
HETATM    8  C16         0      61.240  23.136  -0.883  1.00  0.00     0.093 C 
HETATM    9  C18         0      61.695  24.255  -0.197  1.00  0.00     0.048 C 
HETATM   10  C19         0      62.839  24.922  -0.614  1.00  0.00     0.096 C 
HETATM   11  C21         0      63.533  24.464  -1.701  1.00  0.00     0.084 C 
ENDROOT
BRANCH  10  12
HETATM   12  O20         0      63.038  26.242  -0.222  1.00  0.00    -0.359 OA
HETATM   13  H20         0      62.905  26.460   0.693  1.00  0.00     0.218 HD
ENDBRANCH  10  12
BRANCH   4  14
HETATM   14  C5          0      65.270  22.919  -5.112  1.00  0.00     0.025 C 
HETATM   15  C6          0      64.338  22.842  -6.137  1.00  0.00     0.004 C 
HETATM   16  C7          0      64.754  23.206  -7.414  1.00  0.00     0.026 C 
HETATM   17  C8          0      66.083  23.506  -7.691  1.00  0.00     0.112 C 
HETATM   18  C10         0      66.999  22.954  -6.804  1.00  0.00     0.112 C 
HETATM   19  C12         0      66.580  22.679  -5.508  1.00  0.00     0.028 C 
BRANCH  17  20
HETATM   20  O9          0      66.413  24.450  -8.647  1.00  0.00    -0.357 OA
HETATM   21  H9          0      67.300  24.748  -8.810  1.00  0.00     0.218 HD
ENDBRANCH  17  20
BRANCH  18  22
HETATM   22  O11         0      68.341  23.063  -7.138  1.00  0.00    -0.357 OA
HETATM   23  H11         0      68.896  23.547  -6.538  1.00  0.00     0.218 HD
ENDBRANCH  18  22
ENDBRANCH   4  14
BRANCH   8  24
HETATM   24  O17         0      59.875  22.887  -1.062  1.00  0.00    -0.359 OA
HETATM   25  H17         0      59.358  22.441  -0.401  1.00  0.00     0.218 HD
ENDBRANCH   8  24
TORSDOF 5
ENDMDL
MODEL 7
REMARK VINA RESULT:      -5.1      3.194      4.634
REMARK  5 active torsions:
REMARK  status: ('A' for Active; 'I' for Inactive)
REMARK    1  A    between atoms: C4_4  and  C5_5 
REMARK    2  A    between atoms: C8_8  and  O9_9 
REMARK    3  A    between atoms: C10_11  and  O11_12 
REMARK    4  A    between atoms: C16_18  and  O17_19 
REMARK    5  A    between atoms: C19_22  and  O20_23 
ROOT
HETATM    1  O1          0      63.764  25.774  -3.251  1.00  0.00    -0.286 OA
HETATM    2  C2          0      63.852  24.515  -3.258  1.00  0.00     0.201 C 
HETATM    3  C3          0      64.959  23.837  -2.776  1.00  0.00     0.067 C 
HETATM    4  C4          0      65.073  22.456  -2.890  1.00  0.00     0.103 C 
HETATM    5  O13         0      64.087  21.782  -3.454  1.00  0.00    -0.307 OA
HETATM    6  C14         0      63.031  22.380  -3.961  1.00  0.00     0.107 C 
HETATM    7  C15         0      62.209  21.752  -4.885  1.00  0.00     0.049 C 
HETATM    8  C16         0      61.256  22.463  -5.604  1.00  0.00     0.093 C 
HETATM    9  C18         0      60.817  23.634  -4.997  1.00  0.00     0.048 C 
HETATM   10  C19         0      61.594  24.264  -4.034  1.00  0.00     0.096 C 
HETATM   11  C21         0      62.793  23.718  -3.666  1.00  0.00     0.084 C 
ENDROOT
BRANCH  10  12
HETATM   12  O20         0      61.379  25.611  -3.760  1.00  0.00    -0.359 OA
HETATM   13  H20         0      61.784  25.978  -2.984  1.00  0.00     0.218 HD
ENDBRANCH  10  12
BRANCH   4  14
HETATM   14  C5          0      66.426  21.898  -2.936  1.00  0.00     0.025 C 
HETATM   15  C6          0      67.085  21.621  -4.125  1.00  0.00     0.004 C 
HETATM   16  C7          0      68.450  21.882  -4.182  1.00  0.00     0.026 C 
HETATM   17  C8          0      69.164  22.278  -3.056  1.00  0.00     0.112 C 
HETATM   18  C10         0      68.586  21.918  -1.846  1.00  0.00     0.112 C 
HETATM   19  C12         0      67.208  21.746  -1.798  1.00  0.00     0.028 C 
BRANCH  17  20
HETATM   20  O9          0      70.240  23.141  -3.167  1.00  0.00    -0.357 OA
HETATM   21  H9          0      71.084  22.890  -3.526  1.00  0.00     0.218 HD
ENDBRANCH  17  20
BRANCH  18  22
HETATM   22  O11         0      69.345  22.120  -0.702  1.00  0.00    -0.357 OA
HETATM   23  H11         0      69.289  21.455  -0.026  1.00  0.00     0.218 HD
ENDBRANCH  18  22
ENDBRANCH   4  14
BRANCH   8  24
HETATM   24  O17         0      61.018  22.202  -6.958  1.00  0.00    -0.359 OA
HETATM   25  H17         0      61.372  21.432  -7.387  1.00  0.00     0.218 HD
ENDBRANCH   8  24
TORSDOF 5
ENDMDL
MODEL 8
REMARK VINA RESULT:      -5.1      1.902      6.543
REMARK  5 active torsions:
REMARK  status: ('A' for Active; 'I' for Inactive)
REMARK    1  A    between atoms: C4_4  and  C5_5 
REMARK    2  A    between atoms: C8_8  and  O9_9 
REMARK    3  A    between atoms: C10_11  and  O11_12 
REMARK    4  A    between atoms: C16_18  and  O17_19 
REMARK    5  A    between atoms: C19_22  and  O20_23 
ROOT
HETATM    1  O1          0      68.266  26.861  -2.994  1.00  0.00    -0.286 OA
HETATM    2  C2          0      67.703  25.745  -3.161  1.00  0.00     0.201 C 
HETATM    3  C3          0      66.342  25.617  -3.384  1.00  0.00     0.067 C 
HETATM    4  C4          0      65.731  24.370  -3.462  1.00  0.00     0.103 C 
HETATM    5  O13         0      66.479  23.288  -3.338  1.00  0.00    -0.307 OA
HETATM    6  C14         0      67.768  23.354  -3.088  1.00  0.00     0.107 C 
HETATM    7  C15         0      68.468  22.274  -2.570  1.00  0.00     0.049 C 
HETATM    8  C16         0      69.757  22.421  -2.072  1.00  0.00     0.093 C 
HETATM    9  C18         0      70.467  23.499  -2.589  1.00  0.00     0.048 C 
HETATM   10  C19         0      69.799  24.575  -3.158  1.00  0.00     0.096 C 
HETATM   11  C21         0      68.433  24.568  -3.225  1.00  0.00     0.084 C 
ENDROOT
BRANCH  10  12
HETATM   12  O20         0      70.451  25.799  -3.266  1.00  0.00    -0.359 OA
HETATM   13  H20         0      71.063  25.916  -3.983  1.00  0.00     0.218 HD
ENDBRANCH  10  12
BRANCH   4  14
HETATM   14  C5          0      64.316  24.295  -3.096  1.00  0.00     0.025 C 
HETATM   15  C6          0      63.596  23.109  -3.116  1.00  0.00     0.004 C 
HETATM   16  C7          0      62.666  22.902  -2.102  1.00  0.00     0.026 C 
HETATM   17  C8          0      62.362  23.895  -1.177  1.00  0.00     0.112 C 
HETATM   18  C10         0      62.633  25.188  -1.605  1.00  0.00     0.112 C 
HETATM   19  C12         0      63.627  25.374  -2.557  1.00  0.00     0.028 C 
BRANCH  17  20
HETATM   20  O9          0      62.024  23.571   0.125  1.00  0.00    -0.357 OA
HETATM   21  H9          0      62.313  22.779   0.564  1.00  0.00     0.218 HD
ENDBRANCH  17  20
BRANCH  18  22
HETATM   22  O11         0      62.177  26.224  -0.802  1.00  0.00    -0.357 OA
HETATM   23  H11         0      62.693  26.430  -0.031  1.00  0.00     0.218 HD
ENDBRANCH  18  22
ENDBRANCH   4  14
BRANCH   8  24
HETATM   24  O17         0      70.172  21.755  -0.913  1.00  0.00    -0.359 OA
HETATM   25  H17         0      70.539  20.880  -0.945  1.00  0.00     0.218 HD
ENDBRANCH   8  24
TORSDOF 5
ENDMDL
MODEL 9
REMARK VINA RESULT:      -5.1      3.593      6.298
REMARK  5 active torsions:
REMARK  status: ('A' for Active; 'I' for Inactive)
REMARK    1  A    between atoms: C4_4  and  C5_5 
REMARK    2  A    between atoms: C8_8  and  O9_9 
REMARK    3  A    between atoms: C10_11  and  O11_12 
REMARK    4  A    between atoms: C16_18  and  O17_19 
REMARK    5  A    between atoms: C19_22  and  O20_23 
ROOT
HETATM    1  O1          0      66.321  23.356  -6.115  1.00  0.00    -0.286 OA
HETATM    2  C2          0      65.868  22.863  -5.045  1.00  0.00     0.201 C 
HETATM    3  C3          0      64.580  23.098  -4.597  1.00  0.00     0.067 C 
HETATM    4  C4          0      64.139  22.627  -3.365  1.00  0.00     0.103 C 
HETATM    5  O13         0      64.973  21.922  -2.620  1.00  0.00    -0.307 OA
HETATM    6  C14         0      66.218  21.702  -2.982  1.00  0.00     0.107 C 
HETATM    7  C15         0      67.190  21.328  -2.065  1.00  0.00     0.049 C 
HETATM    8  C16         0      68.539  21.345  -2.397  1.00  0.00     0.093 C 
HETATM    9  C18         0      68.812  21.226  -3.754  1.00  0.00     0.048 C 
HETATM   10  C19         0      67.846  21.547  -4.698  1.00  0.00     0.096 C 
HETATM   11  C21         0      66.610  21.968  -4.289  1.00  0.00     0.084 C 
ENDROOT
BRANCH  10  12
HETATM   12  O20         0      68.239  21.845  -5.999  1.00  0.00    -0.359 OA
HETATM   13  H20         0      68.112  21.180  -6.666  1.00  0.00     0.218 HD
ENDBRANCH  10  12
BRANCH   4  14
HETATM   14  C5          0      63.066  23.374  -2.707  1.00  0.00     0.025 C 
HETATM   15  C6          0      62.471  22.953  -1.527  1.00  0.00     0.004 C 
HETATM   16  C7          0      62.135  23.926  -0.591  1.00  0.00     0.026 C 
HETATM   17  C8          0      62.261  25.282  -0.872  1.00  0.00     0.112 C 
HETATM   18  C10         0      62.246  25.598  -2.224  1.00  0.00     0.112 C 
HETATM   19  C12         0      62.668  24.635  -3.132  1.00  0.00     0.028 C 
BRANCH  17  20
HETATM   20  O9          0      62.588  26.185   0.125  1.00  0.00    -0.357 OA
HETATM   21  H9          0      61.958  26.544   0.739  1.00  0.00     0.218 HD
ENDBRANCH  17  20
BRANCH  18  22
HETATM   22  O11         0      62.179  26.945  -2.553  1.00  0.00    -0.357 OA
HETATM   23  H11         0      61.752  27.520  -1.929  1.00  0.00     0.218 HD
ENDBRANCH  18  22
ENDBRANCH   4  14
BRANCH   8  24
HETATM   24  O17         0      69.508  21.785  -1.488  1.00  0.00    -0.359 OA
HETATM   25  H17         0      70.255  21.246  -1.255  1.00  0.00     0.218 HD
ENDBRANCH   8  24
TORSDOF 5
ENDMDL
