MODEL 1
REMARK VINA RESULT:      -5.8      0.000      0.000
REMARK  5 active torsions:
REMARK  status: ('A' for Active; 'I' for Inactive)
REMARK    1  A    between atoms: C4_4  and  C5_5 
REMARK    2  A    between atoms: C8_8  and  O9_9 
REMARK    3  A    between atoms: C10_11  and  O11_12 
REMARK    4  A    between atoms: C16_18  and  O17_19 
REMARK    5  A    between atoms: C19_22  and  O20_23 
ROOT
HETATM    1  O1          0      53.273  67.655  -1.088  1.00  0.00    -0.286 OA
HETATM    2  C2          0      52.702  67.537  -2.206  1.00  0.00     0.201 C 
HETATM    3  C3          0      53.016  66.535  -3.108  1.00  0.00     0.067 C 
HETATM    4  C4          0      52.445  66.489  -4.375  1.00  0.00     0.103 C 
HETATM    5  O13         0      51.567  67.418  -4.709  1.00  0.00    -0.307 OA
HETATM    6  C14         0      51.261  68.412  -3.905  1.00  0.00     0.107 C 
HETATM    7  C15         0      50.672  69.578  -4.375  1.00  0.00     0.049 C 
HETATM    8  C16         0      50.585  70.714  -3.579  1.00  0.00     0.093 C 
HETATM    9  C18         0      50.608  70.475  -2.211  1.00  0.00     0.048 C 
HETATM   10  C19         0      51.147  69.298  -1.709  1.00  0.00     0.096 C 
HETATM   11  C21         0      51.645  68.358  -2.570  1.00  0.00     0.084 C 
ENDROOT
BRANCH  10  12
HETATM   12  O20         0      51.561  69.251  -0.381  1.00  0.00    -0.359 OA
HETATM   13  H20         0      52.417  69.605  -0.169  1.00  0.00     0.218 HD
ENDBRANCH  10  12
BRANCH   4  14
HETATM   14  C5          0      53.216  65.834  -5.433  1.00  0.00     0.025 C 
HETATM   15  C6          0      53.466  66.431  -6.660  1.00  0.00     0.004 C 
HETATM   16  C7          0      54.718  66.227  -7.232  1.00  0.00     0.026 C 
HETATM   17  C8          0      55.642  65.351  -6.673  1.00  0.00     0.112 C 
HETATM   18  C10         0      55.091  64.367  -5.863  1.00  0.00     0.112 C 
HETATM   19  C12         0      53.880  64.630  -5.235  1.00  0.00     0.028 C 
BRANCH  17  20
HETATM   20  O9          0      57.000  65.600  -6.764  1.00  0.00    -0.357 OA
HETATM   21  H9          0      57.394  66.134  -7.444  1.00  0.00     0.218 HD
ENDBRANCH  17  20
BRANCH  18  22
HETATM   22  O11         0      55.942  63.358  -5.433  1.00  0.00    -0.357 OA
HETATM   23  H11         0      56.783  63.626  -5.080  1.00  0.00     0.218 HD
ENDBRANCH  18  22
ENDBRANCH   4  14
BRANCH   8  24
HETATM   24  O17         0      50.801  71.992  -4.107  1.00  0.00    -0.359 OA
HETATM   25  H17         0      50.280  72.738  -3.836  1.00  0.00     0.218 HD
ENDBRANCH   8  24
TORSDOF 5
ENDMDL
MODEL 2
REMARK VINA RESULT:      -5.8      2.353      7.097
REMARK  5 active torsions:
REMARK  status: ('A' for Active; 'I' for Inactive)
REMARK    1  A    between atoms: C4_4  and  C5_5 
REMARK    2  A    between atoms: C8_8  and  O9_9 
REMARK    3  A    between atoms: C10_11  and  O11_12 
REMARK    4  A    between atoms: C16_18  and  O17_19 
REMARK    5  A    between atoms: C19_22  and  O20_23 
ROOT
HETATM    1  O1          0      51.186  67.404  -1.605  1.00  0.00    -0.286 OA
HETATM    2  C2          0      51.485  68.336  -2.401  1.00  0.00     0.201 C 
HETATM    3  C3          0      51.165  69.661  -2.160  1.00  0.00     0.067 C 
HETATM    4  C4          0      51.415  70.654  -3.100  1.00  0.00     0.103 C 
HETATM    5  O13         0      51.992  70.318  -4.240  1.00  0.00    -0.307 OA
HETATM    6  C14         0      52.282  69.069  -4.535  1.00  0.00     0.107 C 
HETATM    7  C15         0      52.505  68.660  -5.842  1.00  0.00     0.049 C 
HETATM    8  C16         0      52.557  67.312  -6.177  1.00  0.00     0.093 C 
HETATM    9  C18         0      52.908  66.462  -5.135  1.00  0.00     0.048 C 
HETATM   10  C19         0      52.743  66.858  -3.815  1.00  0.00     0.096 C 
HETATM   11  C21         0      52.246  68.102  -3.537  1.00  0.00     0.084 C 
ENDROOT
BRANCH  10  12
HETATM   12  O20         0      52.674  65.890  -2.818  1.00  0.00    -0.359 OA
HETATM   13  H20         0      51.816  65.652  -2.487  1.00  0.00     0.218 HD
ENDBRANCH  10  12
BRANCH   4  14
HETATM   14  C5          0      50.556  71.839  -3.067  1.00  0.00     0.025 C 
HETATM   15  C6          0      50.049  72.368  -1.889  1.00  0.00     0.004 C 
HETATM   16  C7          0      49.981  73.753  -1.780  1.00  0.00     0.026 C 
HETATM   17  C8          0      50.281  74.584  -2.854  1.00  0.00     0.112 C 
HETATM   18  C10         0      50.152  73.988  -4.102  1.00  0.00     0.112 C 
HETATM   19  C12         0      50.309  72.611  -4.195  1.00  0.00     0.028 C 
BRANCH  17  20
HETATM   20  O9          0      50.859  75.824  -2.651  1.00  0.00    -0.357 OA
HETATM   21  H9          0      51.307  76.073  -1.851  1.00  0.00     0.218 HD
ENDBRANCH  17  20
BRANCH  18  22
HETATM   22  O11         0      50.254  74.819  -5.209  1.00  0.00    -0.357 OA
HETATM   23  H11         0      50.377  74.399  -6.052  1.00  0.00     0.218 HD
ENDBRANCH  18  22
ENDBRANCH   4  14
BRANCH   8  24
HETATM   24  O17         0      51.979  66.831  -7.357  1.00  0.00    -0.359 OA
HETATM   25  H17         0      52.501  66.641  -8.127  1.00  0.00     0.218 HD
ENDBRANCH   8  24
TORSDOF 5
ENDMDL
MODEL 3
REMARK VINA RESULT:      -5.7      3.313      7.510
REMARK  5 active torsions:
REMARK  status: ('A' for Active; 'I' for Inactive)
REMARK    1  A    between atoms: C4_4  and  C5_5 
REMARK    2  A    between atoms: C8_8  and  O9_9 
REMARK    3  A    between atoms: C10_11  and  O11_12 
REMARK    4  A    between atoms: C16_18  and  O17_19 
REMARK    5  A    between atoms: C19_22  and  O20_23 
ROOT
HETATM    1  O1          0      50.690  69.145  -5.572  1.00  0.00    -0.286 OA
HETATM    2  C2          0      50.605  69.627  -4.410  1.00  0.00     0.201 C 
HETATM    3  C3          0      50.101  70.891  -4.156  1.00  0.00     0.067 C 
HETATM    4  C4          0      50.114  71.437  -2.877  1.00  0.00     0.103 C 
HETATM    5  O13         0      50.602  70.716  -1.884  1.00  0.00    -0.307 OA
HETATM    6  C14         0      51.127  69.526  -2.076  1.00  0.00     0.107 C 
HETATM    7  C15         0      51.981  68.946  -1.150  1.00  0.00     0.049 C 
HETATM    8  C16         0      52.728  67.816  -1.465  1.00  0.00     0.093 C 
HETATM    9  C18         0      52.200  67.029  -2.481  1.00  0.00     0.048 C 
HETATM   10  C19         0      51.306  67.566  -3.398  1.00  0.00     0.096 C 
HETATM   11  C21         0      50.927  68.876  -3.289  1.00  0.00     0.084 C 
ENDROOT
BRANCH  10  12
HETATM   12  O20         0      51.129  66.935  -4.625  1.00  0.00    -0.359 OA
HETATM   13  H20         0      50.295  67.046  -5.067  1.00  0.00     0.218 HD
ENDBRANCH  10  12
BRANCH   4  14
HETATM   14  C5          0      50.150  72.897  -2.773  1.00  0.00     0.025 C 
HETATM   15  C6          0      50.491  73.559  -1.603  1.00  0.00     0.004 C 
HETATM   16  C7          0      51.257  74.715  -1.716  1.00  0.00     0.026 C 
HETATM   17  C8          0      51.562  75.270  -2.954  1.00  0.00     0.112 C 
HETATM   18  C10         0      50.684  74.929  -3.974  1.00  0.00     0.112 C 
HETATM   19  C12         0      49.994  73.726  -3.876  1.00  0.00     0.028 C 
BRANCH  17  20
HETATM   20  O9          0      52.763  75.926  -3.161  1.00  0.00    -0.357 OA
HETATM   21  H9          0      53.483  75.562  -3.662  1.00  0.00     0.218 HD
ENDBRANCH  17  20
BRANCH  18  22
HETATM   22  O11         0      50.829  75.601  -5.179  1.00  0.00    -0.357 OA
HETATM   23  H11         0      50.559  76.512  -5.199  1.00  0.00     0.218 HD
ENDBRANCH  18  22
ENDBRANCH   4  14
BRANCH   8  24
HETATM   24  O17         0      54.053  67.675  -1.037  1.00  0.00    -0.359 OA
HETATM   25  H17         0      54.512  66.846  -1.101  1.00  0.00     0.218 HD
ENDBRANCH   8  24
TORSDOF 5
ENDMDL
MODEL 4
REMARK VINA RESULT:      -5.4      2.463      3.984
REMARK  5 active torsions:
REMARK  status: ('A' for Active; 'I' for Inactive)
REMARK    1  A    between atoms: C4_4  and  C5_5 
REMARK    2  A    between atoms: C8_8  and  O9_9 
REMARK    3  A    between atoms: C10_11  and  O11_12 
REMARK    4  A    between atoms: C16_18  and  O17_19 
REMARK    5  A    between atoms: C19_22  and  O20_23 
ROOT
HETATM    1  O1          0      53.788  71.951  -1.684  1.00  0.00    -0.286 OA
HETATM    2  C2          0      52.675  71.543  -2.116  1.00  0.00     0.201 C 
HETATM    3  C3          0      52.368  70.199  -2.246  1.00  0.00     0.067 C 
HETATM    4  C4          0      51.174  69.777  -2.821  1.00  0.00     0.103 C 
HETATM    5  O13         0      50.310  70.688  -3.231  1.00  0.00    -0.307 OA
HETATM    6  C14         0      50.568  71.976  -3.165  1.00  0.00     0.107 C 
HETATM    7  C15         0      49.876  72.900  -3.935  1.00  0.00     0.049 C 
HETATM    8  C16         0      50.316  74.213  -4.055  1.00  0.00     0.093 C 
HETATM    9  C18         0      51.104  74.666  -3.004  1.00  0.00     0.048 C 
HETATM   10  C19         0      51.773  73.767  -2.185  1.00  0.00     0.096 C 
HETATM   11  C21         0      51.642  72.422  -2.404  1.00  0.00     0.084 C 
ENDROOT
BRANCH  10  12
HETATM   12  O20         0      52.868  74.204  -1.446  1.00  0.00    -0.359 OA
HETATM   13  H20         0      53.655  73.672  -1.459  1.00  0.00     0.218 HD
ENDBRANCH  10  12
BRANCH   4  14
HETATM   14  C5          0      51.168  68.460  -3.462  1.00  0.00     0.025 C 
HETATM   15  C6          0      50.677  68.250  -4.742  1.00  0.00     0.004 C 
HETATM   16  C7          0      51.358  67.348  -5.553  1.00  0.00     0.026 C 
HETATM   17  C8          0      52.410  66.579  -5.067  1.00  0.00     0.112 C 
HETATM   18  C10         0      52.404  66.393  -3.691  1.00  0.00     0.112 C 
HETATM   19  C12         0      51.790  67.354  -2.897  1.00  0.00     0.028 C 
BRANCH  17  20
HETATM   20  O9          0      53.469  66.229  -5.885  1.00  0.00    -0.357 OA
HETATM   21  H9          0      53.643  65.340  -6.171  1.00  0.00     0.218 HD
ENDBRANCH  17  20
BRANCH  18  22
HETATM   22  O11         0      53.317  65.484  -3.176  1.00  0.00    -0.357 OA
HETATM   23  H11         0      53.240  64.584  -3.471  1.00  0.00     0.218 HD
ENDBRANCH  18  22
ENDBRANCH   4  14
BRANCH   8  24
HETATM   24  O17         0      50.255  74.894  -5.276  1.00  0.00    -0.359 OA
HETATM   25  H17         0      49.678  74.613  -5.976  1.00  0.00     0.218 HD
ENDBRANCH   8  24
TORSDOF 5
ENDMDL
MODEL 5
REMARK VINA RESULT:      -5.4      1.595      6.755
REMARK  5 active torsions:
REMARK  status: ('A' for Active; 'I' for Inactive)
REMARK    1  A    between atoms: C4_4  and  C5_5 
REMARK    2  A    between atoms: C8_8  and  O9_9 
REMARK    3  A    between atoms: C10_11  and  O11_12 
REMARK    4  A    between atoms: C16_18  and  O17_19 
REMARK    5  A    between atoms: C19_22  and  O20_23 
ROOT
HETATM    1  O1          0      53.772  67.000  -7.771  1.00  0.00    -0.286 OA
HETATM    2  C2          0      53.465  66.643  -6.600  1.00  0.00     0.201 C 
HETATM    3  C3          0      52.361  67.139  -5.929  1.00  0.00     0.067 C 
HETATM    4  C4          0      52.104  66.807  -4.604  1.00  0.00     0.103 C 
HETATM    5  O13         0      52.929  65.981  -3.985  1.00  0.00    -0.307 OA
HETATM    6  C14         0      54.012  65.511  -4.564  1.00  0.00     0.107 C 
HETATM    7  C15         0      55.066  64.988  -3.828  1.00  0.00     0.049 C 
HETATM    8  C16         0      56.299  64.732  -4.416  1.00  0.00     0.093 C 
HETATM    9  C18         0      56.261  64.514  -5.788  1.00  0.00     0.048 C 
HETATM   10  C19         0      55.198  64.982  -6.548  1.00  0.00     0.096 C 
HETATM   11  C21         0      54.170  65.649  -5.939  1.00  0.00     0.084 C 
ENDROOT
BRANCH  10  12
HETATM   12  O20         0      55.364  65.151  -7.919  1.00  0.00    -0.359 OA
HETATM   13  H20         0      55.019  64.480  -8.495  1.00  0.00     0.218 HD
ENDBRANCH  10  12
BRANCH   4  14
HETATM   14  C5          0      51.343  67.771  -3.807  1.00  0.00     0.025 C 
HETATM   15  C6          0      51.264  67.707  -2.423  1.00  0.00     0.004 C 
HETATM   16  C7          0      51.283  68.907  -1.720  1.00  0.00     0.026 C 
HETATM   17  C8          0      51.245  70.135  -2.372  1.00  0.00     0.112 C 
HETATM   18  C10         0      50.698  70.097  -3.648  1.00  0.00     0.112 C 
HETATM   19  C12         0      50.769  68.907  -4.362  1.00  0.00     0.028 C 
BRANCH  17  20
HETATM   20  O9          0      51.900  71.236  -1.849  1.00  0.00    -0.357 OA
HETATM   21  H9          0      51.455  71.995  -1.492  1.00  0.00     0.218 HD
ENDBRANCH  17  20
BRANCH  18  22
HETATM   22  O11         0      50.463  71.317  -4.267  1.00  0.00    -0.357 OA
HETATM   23  H11         0      51.194  71.714  -4.726  1.00  0.00     0.218 HD
ENDBRANCH  18  22
ENDBRANCH   4  14
BRANCH   8  24
HETATM   24  O17         0      57.497  65.008  -3.748  1.00  0.00    -0.359 OA
HETATM   25  H17         0      58.139  64.329  -3.572  1.00  0.00     0.218 HD
ENDBRANCH   8  24
TORSDOF 5
ENDMDL
MODEL 6
REMARK VINA RESULT:      -5.3      3.278      5.577
REMARK  5 active torsions:
REMARK  status: ('A' for Active; 'I' for Inactive)
REMARK    1  A    between atoms: C4_4  and  C5_5 
REMARK    2  A    between atoms: C8_8  and  O9_9 
REMARK    3  A    between atoms: C10_11  and  O11_12 
REMARK    4  A    between atoms: C16_18  and  O17_19 
REMARK    5  A    between atoms: C19_22  and  O20_23 
ROOT
HETATM    1  O1          0      54.735  72.754  -2.924  1.00  0.00    -0.286 OA
HETATM    2  C2          0      53.492  72.539  -2.949  1.00  0.00     0.201 C 
HETATM    3  C3          0      52.914  71.409  -2.394  1.00  0.00     0.067 C 
HETATM    4  C4          0      51.555  71.147  -2.525  1.00  0.00     0.103 C 
HETATM    5  O13         0      50.801  72.013  -3.179  1.00  0.00    -0.307 OA
HETATM    6  C14         0      51.305  73.082  -3.756  1.00  0.00     0.107 C 
HETATM    7  C15         0      50.624  73.763  -4.754  1.00  0.00     0.049 C 
HETATM    8  C16         0      51.256  74.726  -5.532  1.00  0.00     0.093 C 
HETATM    9  C18         0      52.360  75.326  -4.940  1.00  0.00     0.048 C 
HETATM   10  C19         0      53.038  74.693  -3.906  1.00  0.00     0.096 C 
HETATM   11  C21         0      52.604  73.476  -3.455  1.00  0.00     0.084 C 
ENDROOT
BRANCH  10  12
HETATM   12  O20         0      54.349  75.064  -3.625  1.00  0.00    -0.359 OA
HETATM   13  H20         0      54.650  74.990  -2.727  1.00  0.00     0.218 HD
ENDBRANCH  10  12
BRANCH   4  14
HETATM   14  C5          0      51.136  69.745  -2.475  1.00  0.00     0.025 C 
HETATM   15  C6          0      50.845  69.006  -3.612  1.00  0.00     0.004 C 
HETATM   16  C7          0      51.240  67.672  -3.632  1.00  0.00     0.026 C 
HETATM   17  C8          0      51.784  67.055  -2.511  1.00  0.00     0.112 C 
HETATM   18  C10         0      51.451  67.652  -1.302  1.00  0.00     0.112 C 
HETATM   19  C12         0      51.144  69.008  -1.298  1.00  0.00     0.028 C 
BRANCH  17  20
HETATM   20  O9          0      52.742  66.065  -2.641  1.00  0.00    -0.357 OA
HETATM   21  H9          0      53.674  66.216  -2.537  1.00  0.00     0.218 HD
ENDBRANCH  17  20
BRANCH  18  22
HETATM   22  O11         0      51.808  66.973  -0.146  1.00  0.00    -0.357 OA
HETATM   23  H11         0      51.695  66.029  -0.150  1.00  0.00     0.218 HD
ENDBRANCH  18  22
ENDBRANCH   4  14
BRANCH   8  24
HETATM   24  O17         0      51.010  74.830  -6.906  1.00  0.00    -0.359 OA
HETATM   25  H17         0      51.333  75.563  -7.416  1.00  0.00     0.218 HD
ENDBRANCH   8  24
TORSDOF 5
ENDMDL
MODEL 7
REMARK VINA RESULT:      -5.2      1.722      6.678
REMARK  5 active torsions:
REMARK  status: ('A' for Active; 'I' for Inactive)
REMARK    1  A    between atoms: C4_4  and  C5_5 
REMARK    2  A    between atoms: C8_8  and  O9_9 
REMARK    3  A    between atoms: C10_11  and  O11_12 
REMARK    4  A    between atoms: C16_18  and  O17_19 
REMARK    5  A    between atoms: C19_22  and  O20_23 
ROOT
HETATM    1  O1          0      53.931  69.548  -7.246  1.00  0.00    -0.286 OA
HETATM    2  C2          0      53.442  68.557  -6.637  1.00  0.00     0.201 C 
HETATM    3  C3          0      52.419  68.676  -5.711  1.00  0.00     0.067 C 
HETATM    4  C4          0      51.969  67.584  -4.979  1.00  0.00     0.103 C 
HETATM    5  O13         0      52.522  66.403  -5.194  1.00  0.00    -0.307 OA
HETATM    6  C14         0      53.521  66.242  -6.034  1.00  0.00     0.107 C 
HETATM    7  C15         0      54.354  65.135  -5.975  1.00  0.00     0.049 C 
HETATM    8  C16         0      55.548  65.091  -6.687  1.00  0.00     0.093 C 
HETATM    9  C18         0      55.592  65.909  -7.809  1.00  0.00     0.048 C 
HETATM   10  C19         0      54.740  66.999  -7.922  1.00  0.00     0.096 C 
HETATM   11  C21         0      53.837  67.260  -6.927  1.00  0.00     0.084 C 
ENDROOT
BRANCH  10  12
HETATM   12  O20         0      55.070  68.034  -8.791  1.00  0.00    -0.359 OA
HETATM   13  H20         0      54.720  68.003  -9.673  1.00  0.00     0.218 HD
ENDBRANCH  10  12
BRANCH   4  14
HETATM   14  C5          0      51.373  67.854  -3.669  1.00  0.00     0.025 C 
HETATM   15  C6          0      51.375  66.928  -2.636  1.00  0.00     0.004 C 
HETATM   16  C7          0      51.573  67.404  -1.344  1.00  0.00     0.026 C 
HETATM   17  C8          0      51.633  68.766  -1.069  1.00  0.00     0.112 C 
HETATM   18  C10         0      51.006  69.575  -2.008  1.00  0.00     0.112 C 
HETATM   19  C12         0      50.897  69.110  -3.313  1.00  0.00     0.028 C 
BRANCH  17  20
HETATM   20  O9          0      52.440  69.250  -0.055  1.00  0.00    -0.357 OA
HETATM   21  H9          0      52.557  68.813   0.781  1.00  0.00     0.218 HD
ENDBRANCH  17  20
BRANCH  18  22
HETATM   22  O11         0      50.871  70.919  -1.689  1.00  0.00    -0.357 OA
HETATM   23  H11         0      50.010  71.303  -1.803  1.00  0.00     0.218 HD
ENDBRANCH  18  22
ENDBRANCH   4  14
BRANCH   8  24
HETATM   24  O17         0      56.708  64.539  -6.132  1.00  0.00    -0.359 OA
HETATM   25  H17         0      56.936  64.672  -5.219  1.00  0.00     0.218 HD
ENDBRANCH   8  24
TORSDOF 5
ENDMDL
MODEL 8
REMARK VINA RESULT:      -5.1      1.899      2.781
REMARK  5 active torsions:
REMARK  status: ('A' for Active; 'I' for Inactive)
REMARK    1  A    between atoms: C4_4  and  C5_5 
REMARK    2  A    between atoms: C8_8  and  O9_9 
REMARK    3  A    between atoms: C10_11  and  O11_12 
REMARK    4  A    between atoms: C16_18  and  O17_19 
REMARK    5  A    between atoms: C19_22  and  O20_23 
ROOT
HETATM    1  O1          0      54.521  66.531  -2.113  1.00  0.00    -0.286 OA
HETATM    2  C2          0      54.149  66.090  -3.235  1.00  0.00     0.201 C 
HETATM    3  C3          0      54.915  65.218  -3.990  1.00  0.00     0.067 C 
HETATM    4  C4          0      54.529  64.828  -5.268  1.00  0.00     0.103 C 
HETATM    5  O13         0      53.392  65.291  -5.756  1.00  0.00    -0.307 OA
HETATM    6  C14         0      52.646  66.150  -5.097  1.00  0.00     0.107 C 
HETATM    7  C15         0      51.694  66.933  -5.735  1.00  0.00     0.049 C 
HETATM    8  C16         0      51.094  68.008  -5.090  1.00  0.00     0.093 C 
HETATM    9  C18         0      51.081  67.928  -3.703  1.00  0.00     0.048 C 
HETATM   10  C19         0      51.989  67.118  -3.034  1.00  0.00     0.096 C 
HETATM   11  C21         0      52.894  66.380  -3.748  1.00  0.00     0.084 C 
ENDROOT
BRANCH  10  12
HETATM   12  O20         0      52.263  67.366  -1.693  1.00  0.00    -0.359 OA
HETATM   13  H20         0      52.795  68.123  -1.479  1.00  0.00     0.218 HD
ENDBRANCH  10  12
BRANCH   4  14
HETATM   14  C5          0      55.590  64.440  -6.199  1.00  0.00     0.025 C 
HETATM   15  C6          0      55.862  65.143  -7.364  1.00  0.00     0.004 C 
HETATM   16  C7          0      57.195  65.286  -7.734  1.00  0.00     0.026 C 
HETATM   17  C8          0      58.217  64.641  -7.045  1.00  0.00     0.112 C 
HETATM   18  C10         0      57.819  63.510  -6.344  1.00  0.00     0.112 C 
HETATM   19  C12         0      56.500  63.431  -5.912  1.00  0.00     0.028 C 
BRANCH  17  20
HETATM   20  O9          0      59.465  65.224  -6.918  1.00  0.00    -0.357 OA
HETATM   21  H9          0      60.016  65.458  -7.656  1.00  0.00     0.218 HD
ENDBRANCH  17  20
BRANCH  18  22
HETATM   22  O11         0      58.823  62.724  -5.797  1.00  0.00    -0.357 OA
HETATM   23  H11         0      59.428  62.314  -6.405  1.00  0.00     0.218 HD
ENDBRANCH  18  22
ENDBRANCH   4  14
BRANCH   8  24
HETATM   24  O17         0      50.839  69.209  -5.760  1.00  0.00    -0.359 OA
HETATM   25  H17         0      51.403  69.967  -5.659  1.00  0.00     0.218 HD
ENDBRANCH   8  24
TORSDOF 5
ENDMDL
MODEL 9
REMARK VINA RESULT:      -5.0      1.707      2.523
REMARK  5 active torsions:
REMARK  status: ('A' for Active; 'I' for Inactive)
REMARK    1  A    between atoms: C4_4  and  C5_5 
REMARK    2  A    between atoms: C8_8  and  O9_9 
REMARK    3  A    between atoms: C10_11  and  O11_12 
REMARK    4  A    between atoms: C16_18  and  O17_19 
REMARK    5  A    between atoms: C19_22  and  O20_23 
ROOT
HETATM    1  O1          0      54.556  69.147  -1.626  1.00  0.00    -0.286 OA
HETATM    2  C2          0      54.159  68.162  -2.307  1.00  0.00     0.201 C 
HETATM    3  C3          0      54.976  67.091  -2.625  1.00  0.00     0.067 C 
HETATM    4  C4          0      54.543  66.068  -3.462  1.00  0.00     0.103 C 
HETATM    5  O13         0      53.314  66.119  -3.943  1.00  0.00    -0.307 OA
HETATM    6  C14         0      52.510  67.132  -3.703  1.00  0.00     0.107 C 
HETATM    7  C15         0      51.405  67.393  -4.500  1.00  0.00     0.049 C 
HETATM    8  C16         0      50.712  68.594  -4.402  1.00  0.00     0.093 C 
HETATM    9  C18         0      50.828  69.240  -3.178  1.00  0.00     0.048 C 
HETATM   10  C19         0      51.897  68.968  -2.335  1.00  0.00     0.096 C 
HETATM   11  C21         0      52.836  68.044  -2.705  1.00  0.00     0.084 C 
ENDROOT
BRANCH  10  12
HETATM   12  O20         0      52.244  69.894  -1.356  1.00  0.00    -0.359 OA
HETATM   13  H20         0      52.508  69.565  -0.505  1.00  0.00     0.218 HD
ENDBRANCH  10  12
BRANCH   4  14
HETATM   14  C5          0      55.567  65.342  -4.216  1.00  0.00     0.025 C 
HETATM   15  C6          0      56.318  64.313  -3.668  1.00  0.00     0.004 C 
HETATM   16  C7          0      56.609  63.223  -4.481  1.00  0.00     0.026 C 
HETATM   17  C8          0      56.283  63.214  -5.833  1.00  0.00     0.112 C 
HETATM   18  C10         0      56.133  64.472  -6.402  1.00  0.00     0.112 C 
HETATM   19  C12         0      55.757  65.528  -5.580  1.00  0.00     0.028 C 
BRANCH  17  20
HETATM   20  O9          0      55.935  62.036  -6.470  1.00  0.00    -0.357 OA
HETATM   21  H9          0      56.118  61.172  -6.120  1.00  0.00     0.218 HD
ENDBRANCH  17  20
BRANCH  18  22
HETATM   22  O11         0      55.994  64.525  -7.781  1.00  0.00    -0.357 OA
HETATM   23  H11         0      55.263  64.050  -8.159  1.00  0.00     0.218 HD
ENDBRANCH  18  22
ENDBRANCH   4  14
BRANCH   8  24
HETATM   24  O17         0      50.230  69.252  -5.539  1.00  0.00    -0.359 OA
HETATM   25  H17         0      50.103  68.797  -6.363  1.00  0.00     0.218 HD
ENDBRANCH   8  24
TORSDOF 5
ENDMDL
