MODEL 1
REMARK VINA RESULT:      -2.1      0.000      0.000
REMARK  5 active torsions:
REMARK  status: ('A' for Active; 'I' for Inactive)
REMARK    1  A    between atoms: C4_4  and  C5_5 
REMARK    2  A    between atoms: C8_8  and  O9_9 
REMARK    3  A    between atoms: C10_11  and  O11_12 
REMARK    4  A    between atoms: C16_18  and  O17_19 
REMARK    5  A    between atoms: C19_22  and  O20_23 
ROOT
HETATM    1  O1          0      15.422  19.459   7.777  1.00  0.00    -0.286 OA
HETATM    2  C2          0      16.645  19.502   7.473  1.00  0.00     0.201 C 
HETATM    3  C3          0      17.104  20.035   6.280  1.00  0.00     0.067 C 
HETATM    4  C4          0      18.446  19.978   5.925  1.00  0.00     0.103 C 
HETATM    5  O13         0      19.301  19.417   6.762  1.00  0.00    -0.307 OA
HETATM    6  C14         0      18.914  18.863   7.890  1.00  0.00     0.107 C 
HETATM    7  C15         0      19.706  17.944   8.563  1.00  0.00     0.049 C 
HETATM    8  C16         0      19.196  17.177   9.603  1.00  0.00     0.093 C 
HETATM    9  C18         0      18.100  17.727  10.256  1.00  0.00     0.048 C 
HETATM   10  C19         0      17.313  18.683   9.629  1.00  0.00     0.096 C 
HETATM   11  C21         0      17.628  19.100   8.364  1.00  0.00     0.084 C 
ENDROOT
BRANCH  10  12
HETATM   12  O20         0      16.015  18.900  10.082  1.00  0.00    -0.359 OA
HETATM   13  H20         0      15.326  18.341   9.743  1.00  0.00     0.218 HD
ENDBRANCH  10  12
BRANCH   4  14
HETATM   14  C5          0      18.762  19.985   4.495  1.00  0.00     0.025 C 
HETATM   15  C6          0      20.031  19.717   4.004  1.00  0.00     0.004 C 
HETATM   16  C7          0      20.125  18.978   2.829  1.00  0.00     0.026 C 
HETATM   17  C8          0      18.997  18.630   2.094  1.00  0.00     0.112 C 
HETATM   18  C10         0      17.895  19.449   2.300  1.00  0.00     0.112 C 
HETATM   19  C12         0      17.783  20.111   3.518  1.00  0.00     0.028 C 
BRANCH  17  20
HETATM   20  O9          0      18.948  17.439   1.392  1.00  0.00    -0.357 OA
HETATM   21  H9          0      19.512  16.696   1.573  1.00  0.00     0.218 HD
ENDBRANCH  17  20
BRANCH  18  22
HETATM   22  O11         0      16.808  19.265   1.458  1.00  0.00    -0.357 OA
HETATM   23  H11         0      16.777  19.800   0.672  1.00  0.00     0.218 HD
ENDBRANCH  18  22
ENDBRANCH   4  14
BRANCH   8  24
HETATM   24  O17         0      19.540  15.828   9.751  1.00  0.00    -0.359 OA
HETATM   25  H17         0      18.902  15.177  10.016  1.00  0.00     0.218 HD
ENDBRANCH   8  24
TORSDOF 5
ENDMDL
MODEL 2
REMARK VINA RESULT:      -1.9      1.319      2.021
REMARK  5 active torsions:
REMARK  status: ('A' for Active; 'I' for Inactive)
REMARK    1  A    between atoms: C4_4  and  C5_5 
REMARK    2  A    between atoms: C8_8  and  O9_9 
REMARK    3  A    between atoms: C10_11  and  O11_12 
REMARK    4  A    between atoms: C16_18  and  O17_19 
REMARK    5  A    between atoms: C19_22  and  O20_23 
ROOT
HETATM    1  O1          0      16.131  18.748  10.114  1.00  0.00    -0.286 OA
HETATM    2  C2          0      17.261  18.739   9.553  1.00  0.00     0.201 C 
HETATM    3  C3          0      17.576  19.565   8.488  1.00  0.00     0.067 C 
HETATM    4  C4          0      18.792  19.464   7.822  1.00  0.00     0.103 C 
HETATM    5  O13         0      19.669  18.566   8.236  1.00  0.00    -0.307 OA
HETATM    6  C14         0      19.406  17.732   9.217  1.00  0.00     0.107 C 
HETATM    7  C15         0      20.125  16.558   9.392  1.00  0.00     0.049 C 
HETATM    8  C16         0      19.687  15.566  10.260  1.00  0.00     0.093 C 
HETATM    9  C18         0      18.857  16.007  11.284  1.00  0.00     0.048 C 
HETATM   10  C19         0      18.159  17.200  11.162  1.00  0.00     0.096 C 
HETATM   11  C21         0      18.301  17.958  10.032  1.00  0.00     0.084 C 
ENDROOT
BRANCH  10  12
HETATM   12  O20         0      17.035  17.415  11.954  1.00  0.00    -0.359 OA
HETATM   13  H20         0      16.269  17.801  11.545  1.00  0.00     0.218 HD
ENDBRANCH  10  12
BRANCH   4  14
HETATM   14  C5          0      18.826  19.889   6.421  1.00  0.00     0.025 C 
HETATM   15  C6          0      20.009  20.074   5.720  1.00  0.00     0.004 C 
HETATM   16  C7          0      20.035  19.682   4.385  1.00  0.00     0.026 C 
HETATM   17  C8          0      18.887  19.247   3.730  1.00  0.00     0.112 C 
HETATM   18  C10         0      17.697  19.690   4.291  1.00  0.00     0.112 C 
HETATM   19  C12         0      17.678  19.994   5.647  1.00  0.00     0.028 C 
BRANCH  17  20
HETATM   20  O9          0      18.959  18.283   2.740  1.00  0.00    -0.357 OA
HETATM   21  H9          0      19.505  17.508   2.796  1.00  0.00     0.218 HD
ENDBRANCH  17  20
BRANCH  18  22
HETATM   22  O11         0      16.535  19.445   3.573  1.00  0.00    -0.357 OA
HETATM   23  H11         0      16.174  20.171   3.078  1.00  0.00     0.218 HD
ENDBRANCH  18  22
ENDBRANCH   4  14
BRANCH   8  24
HETATM   24  O17         0      19.793  14.210   9.932  1.00  0.00    -0.359 OA
HETATM   25  H17         0      20.165  13.924   9.105  1.00  0.00     0.218 HD
ENDBRANCH   8  24
TORSDOF 5
ENDMDL
MODEL 3
REMARK VINA RESULT:      -1.6      1.863      6.695
REMARK  5 active torsions:
REMARK  status: ('A' for Active; 'I' for Inactive)
REMARK    1  A    between atoms: C4_4  and  C5_5 
REMARK    2  A    between atoms: C8_8  and  O9_9 
REMARK    3  A    between atoms: C10_11  and  O11_12 
REMARK    4  A    between atoms: C16_18  and  O17_19 
REMARK    5  A    between atoms: C19_22  and  O20_23 
ROOT
HETATM    1  O1          0      18.880  15.246   5.091  1.00  0.00    -0.286 OA
HETATM    2  C2          0      19.165  16.410   5.487  1.00  0.00     0.201 C 
HETATM    3  C3          0      19.136  16.777   6.821  1.00  0.00     0.067 C 
HETATM    4  C4          0      19.354  18.091   7.220  1.00  0.00     0.103 C 
HETATM    5  O13         0      19.615  19.000   6.296  1.00  0.00    -0.307 OA
HETATM    6  C14         0      19.618  18.712   5.013  1.00  0.00     0.107 C 
HETATM    7  C15         0      19.491  19.695   4.043  1.00  0.00     0.049 C 
HETATM    8  C16         0      19.240  19.371   2.715  1.00  0.00     0.093 C 
HETATM    9  C18         0      19.646  18.097   2.335  1.00  0.00     0.048 C 
HETATM   10  C19         0      19.828  17.102   3.285  1.00  0.00     0.096 C 
HETATM   11  C21         0      19.622  17.381   4.609  1.00  0.00     0.084 C 
ENDROOT
BRANCH  10  12
HETATM   12  O20         0      19.801  15.769   2.888  1.00  0.00    -0.359 OA
HETATM   13  H20         0      18.966  15.398   2.629  1.00  0.00     0.218 HD
ENDBRANCH  10  12
BRANCH   4  14
HETATM   14  C5          0      18.739  18.521   8.477  1.00  0.00     0.025 C 
HETATM   15  C6          0      17.977  19.675   8.585  1.00  0.00     0.004 C 
HETATM   16  C7          0      16.854  19.632   9.406  1.00  0.00     0.026 C 
HETATM   17  C8          0      16.571  18.523  10.197  1.00  0.00     0.112 C 
HETATM   18  C10         0      17.671  17.731  10.500  1.00  0.00     0.112 C 
HETATM   19  C12         0      18.745  17.729   9.618  1.00  0.00     0.028 C 
BRANCH  17  20
HETATM   20  O9          0      15.264  18.156  10.462  1.00  0.00    -0.357 OA
HETATM   21  H9          0      14.643  17.894   9.792  1.00  0.00     0.218 HD
ENDBRANCH  17  20
BRANCH  18  22
HETATM   22  O11         0      17.482  16.725  11.436  1.00  0.00    -0.357 OA
HETATM   23  H11         0      18.254  16.242  11.710  1.00  0.00     0.218 HD
ENDBRANCH  18  22
ENDBRANCH   4  14
BRANCH   8  24
HETATM   24  O17         0      18.356  20.125   1.935  1.00  0.00    -0.359 OA
HETATM   25  H17         0      18.416  20.140   0.987  1.00  0.00     0.218 HD
ENDBRANCH   8  24
TORSDOF 5
ENDMDL
MODEL 4
REMARK VINA RESULT:      -1.6      1.590      2.070
REMARK  5 active torsions:
REMARK  status: ('A' for Active; 'I' for Inactive)
REMARK    1  A    between atoms: C4_4  and  C5_5 
REMARK    2  A    between atoms: C8_8  and  O9_9 
REMARK    3  A    between atoms: C10_11  and  O11_12 
REMARK    4  A    between atoms: C16_18  and  O17_19 
REMARK    5  A    between atoms: C19_22  and  O20_23 
ROOT
HETATM    1  O1          0      17.067  20.090   6.698  1.00  0.00    -0.286 OA
HETATM    2  C2          0      18.054  19.482   6.198  1.00  0.00     0.201 C 
HETATM    3  C3          0      18.438  19.634   4.877  1.00  0.00     0.067 C 
HETATM    4  C4          0      19.465  18.876   4.325  1.00  0.00     0.103 C 
HETATM    5  O13         0      20.096  18.007   5.095  1.00  0.00    -0.307 OA
HETATM    6  C14         0      19.747  17.797   6.345  1.00  0.00     0.107 C 
HETATM    7  C15         0      20.114  16.644   7.023  1.00  0.00     0.049 C 
HETATM    8  C16         0      19.538  16.308   8.242  1.00  0.00     0.093 C 
HETATM    9  C18         0      19.026  17.380   8.963  1.00  0.00     0.048 C 
HETATM   10  C19         0      18.691  18.566   8.324  1.00  0.00     0.096 C 
HETATM   11  C21         0      18.883  18.686   6.974  1.00  0.00     0.084 C 
ENDROOT
BRANCH  10  12
HETATM   12  O20         0      17.802  19.442   8.938  1.00  0.00    -0.359 OA
HETATM   13  H20         0      18.080  19.869   9.739  1.00  0.00     0.218 HD
ENDBRANCH  10  12
BRANCH   4  14
HETATM   14  C5          0      19.419  18.637   2.882  1.00  0.00     0.025 C 
HETATM   15  C6          0      19.725  17.409   2.313  1.00  0.00     0.004 C 
HETATM   16  C7          0      18.962  16.994   1.226  1.00  0.00     0.026 C 
HETATM   17  C8          0      18.017  17.828   0.637  1.00  0.00     0.112 C 
HETATM   18  C10         0      18.230  19.184   0.847  1.00  0.00     0.112 C 
HETATM   19  C12         0      18.922  19.575   1.987  1.00  0.00     0.028 C 
BRANCH  17  20
HETATM   20  O9          0      16.862  17.309   0.082  1.00  0.00    -0.357 OA
HETATM   21  H9          0      16.032  17.772   0.058  1.00  0.00     0.218 HD
ENDBRANCH  17  20
BRANCH  18  22
HETATM   22  O11         0      17.432  20.064   0.130  1.00  0.00    -0.357 OA
HETATM   23  H11         0      17.522  20.988   0.331  1.00  0.00     0.218 HD
ENDBRANCH  18  22
ENDBRANCH   4  14
BRANCH   8  24
HETATM   24  O17         0      19.201  14.986   8.550  1.00  0.00    -0.359 OA
HETATM   25  H17         0      18.971  14.359   7.874  1.00  0.00     0.218 HD
ENDBRANCH   8  24
TORSDOF 5
ENDMDL
MODEL 5
REMARK VINA RESULT:      -1.5      1.405      1.995
REMARK  5 active torsions:
REMARK  status: ('A' for Active; 'I' for Inactive)
REMARK    1  A    between atoms: C4_4  and  C5_5 
REMARK    2  A    between atoms: C8_8  and  O9_9 
REMARK    3  A    between atoms: C10_11  and  O11_12 
REMARK    4  A    between atoms: C16_18  and  O17_19 
REMARK    5  A    between atoms: C19_22  and  O20_23 
ROOT
HETATM    1  O1          0      15.265  18.901   9.841  1.00  0.00    -0.286 OA
HETATM    2  C2          0      16.336  18.882   9.175  1.00  0.00     0.201 C 
HETATM    3  C3          0      16.404  19.288   7.853  1.00  0.00     0.067 C 
HETATM    4  C4          0      17.573  19.161   7.111  1.00  0.00     0.103 C 
HETATM    5  O13         0      18.645  18.658   7.697  1.00  0.00    -0.307 OA
HETATM    6  C14         0      18.624  18.223   8.938  1.00  0.00     0.107 C 
HETATM    7  C15         0      19.588  17.350   9.423  1.00  0.00     0.049 C 
HETATM    8  C16         0      19.424  16.698  10.639  1.00  0.00     0.093 C 
HETATM    9  C18         0      18.580  17.337  11.539  1.00  0.00     0.048 C 
HETATM   10  C19         0      17.635  18.251  11.092  1.00  0.00     0.096 C 
HETATM   11  C21         0      17.546  18.539   9.758  1.00  0.00     0.084 C 
ENDROOT
BRANCH  10  12
HETATM   12  O20         0      16.539  18.545  11.897  1.00  0.00    -0.359 OA
HETATM   13  H20         0      16.633  19.233  12.545  1.00  0.00     0.218 HD
ENDBRANCH  10  12
BRANCH   4  14
HETATM   14  C5          0      17.434  19.025   5.660  1.00  0.00     0.025 C 
HETATM   15  C6          0      17.227  20.110   4.820  1.00  0.00     0.004 C 
HETATM   16  C7          0      17.868  20.100   3.585  1.00  0.00     0.026 C 
HETATM   17  C8          0      18.583  18.992   3.143  1.00  0.00     0.112 C 
HETATM   18  C10         0      18.210  17.790   3.730  1.00  0.00     0.112 C 
HETATM   19  C12         0      17.649  17.822   5.001  1.00  0.00     0.028 C 
BRANCH  17  20
HETATM   20  O9          0      19.704  19.143   2.346  1.00  0.00    -0.357 OA
HETATM   21  H9          0      20.260  19.913   2.358  1.00  0.00     0.218 HD
ENDBRANCH  17  20
BRANCH  18  22
HETATM   22  O11         0      18.755  16.632   3.192  1.00  0.00    -0.357 OA
HETATM   23  H11         0      18.152  16.024   2.781  1.00  0.00     0.218 HD
ENDBRANCH  18  22
ENDBRANCH   4  14
BRANCH   8  24
HETATM   24  O17         0      19.801  15.361  10.806  1.00  0.00    -0.359 OA
HETATM   25  H17         0      20.492  15.108  11.406  1.00  0.00     0.218 HD
ENDBRANCH   8  24
TORSDOF 5
ENDMDL
MODEL 6
REMARK VINA RESULT:      -1.3      3.475      8.484
REMARK  5 active torsions:
REMARK  status: ('A' for Active; 'I' for Inactive)
REMARK    1  A    between atoms: C4_4  and  C5_5 
REMARK    2  A    between atoms: C8_8  and  O9_9 
REMARK    3  A    between atoms: C10_11  and  O11_12 
REMARK    4  A    between atoms: C16_18  and  O17_19 
REMARK    5  A    between atoms: C19_22  and  O20_23 
ROOT
HETATM    1  O1          0      15.713  17.350  10.512  1.00  0.00    -0.286 OA
HETATM    2  C2          0      16.964  17.192  10.547  1.00  0.00     0.201 C 
HETATM    3  C3          0      17.635  16.770  11.683  1.00  0.00     0.067 C 
HETATM    4  C4          0      19.023  16.702  11.726  1.00  0.00     0.103 C 
HETATM    5  O13         0      19.708  17.031  10.645  1.00  0.00    -0.307 OA
HETATM    6  C14         0      19.123  17.473   9.554  1.00  0.00     0.107 C 
HETATM    7  C15         0      19.820  18.184   8.587  1.00  0.00     0.049 C 
HETATM    8  C16         0      19.156  18.863   7.572  1.00  0.00     0.093 C 
HETATM    9  C18         0      17.891  18.375   7.269  1.00  0.00     0.048 C 
HETATM   10  C19         0      17.185  17.621   8.196  1.00  0.00     0.096 C 
HETATM   11  C21         0      17.745  17.341   9.412  1.00  0.00     0.084 C 
ENDROOT
BRANCH  10  12
HETATM   12  O20         0      15.803  17.513   8.074  1.00  0.00    -0.359 OA
HETATM   13  H20         0      15.345  18.187   7.586  1.00  0.00     0.218 HD
ENDBRANCH  10  12
BRANCH   4  14
HETATM   14  C5          0      19.660  16.847  13.036  1.00  0.00     0.025 C 
HETATM   15  C6          0      19.782  18.068  13.681  1.00  0.00     0.004 C 
HETATM   16  C7          0      19.613  18.088  15.062  1.00  0.00     0.026 C 
HETATM   17  C8          0      19.461  16.915  15.795  1.00  0.00     0.112 C 
HETATM   18  C10         0      19.975  15.779  15.184  1.00  0.00     0.112 C 
HETATM   19  C12         0      20.054  15.754  13.797  1.00  0.00     0.028 C 
BRANCH  17  20
HETATM   20  O9          0      18.671  16.886  16.930  1.00  0.00    -0.357 OA
HETATM   21  H9          0      18.485  16.096  17.424  1.00  0.00     0.218 HD
ENDBRANCH  17  20
BRANCH  18  22
HETATM   22  O11         0      20.020  14.621  15.947  1.00  0.00    -0.357 OA
HETATM   23  H11         0      19.270  14.442  16.502  1.00  0.00     0.218 HD
ENDBRANCH  18  22
ENDBRANCH   4  14
BRANCH   8  24
HETATM   24  O17         0      19.582  20.124   7.140  1.00  0.00    -0.359 OA
HETATM   25  H17         0      20.035  20.724   7.720  1.00  0.00     0.218 HD
ENDBRANCH   8  24
TORSDOF 5
ENDMDL
MODEL 7
REMARK VINA RESULT:      -1.2      1.841      6.822
REMARK  5 active torsions:
REMARK  status: ('A' for Active; 'I' for Inactive)
REMARK    1  A    between atoms: C4_4  and  C5_5 
REMARK    2  A    between atoms: C8_8  and  O9_9 
REMARK    3  A    between atoms: C10_11  and  O11_12 
REMARK    4  A    between atoms: C16_18  and  O17_19 
REMARK    5  A    between atoms: C19_22  and  O20_23 
ROOT
HETATM    1  O1          0      18.948  16.071   5.039  1.00  0.00    -0.286 OA
HETATM    2  C2          0      18.725  17.159   5.636  1.00  0.00     0.201 C 
HETATM    3  C3          0      19.021  17.356   6.974  1.00  0.00     0.067 C 
HETATM    4  C4          0      18.670  18.528   7.633  1.00  0.00     0.103 C 
HETATM    5  O13         0      18.058  19.481   6.952  1.00  0.00    -0.307 OA
HETATM    6  C14         0      17.720  19.331   5.690  1.00  0.00     0.107 C 
HETATM    7  C15         0      16.752  20.125   5.093  1.00  0.00     0.049 C 
HETATM    8  C16         0      16.219  19.803   3.851  1.00  0.00     0.093 C 
HETATM    9  C18         0      17.038  19.019   3.046  1.00  0.00     0.048 C 
HETATM   10  C19         0      18.047  18.248   3.606  1.00  0.00     0.096 C 
HETATM   11  C21         0      18.249  18.272   4.959  1.00  0.00     0.084 C 
ENDROOT
BRANCH  10  12
HETATM   12  O20         0      18.556  17.169   2.890  1.00  0.00    -0.359 OA
HETATM   13  H20         0      18.687  17.277   1.956  1.00  0.00     0.218 HD
ENDBRANCH  10  12
BRANCH   4  14
HETATM   14  C5          0      18.454  18.445   9.079  1.00  0.00     0.025 C 
HETATM   15  C6          0      17.493  19.196   9.740  1.00  0.00     0.004 C 
HETATM   16  C7          0      16.799  18.585  10.779  1.00  0.00     0.026 C 
HETATM   17  C8          0      17.139  17.316  11.236  1.00  0.00     0.112 C 
HETATM   18  C10         0      18.448  16.936  10.970  1.00  0.00     0.112 C 
HETATM   19  C12         0      19.089  17.500   9.873  1.00  0.00     0.028 C 
BRANCH  17  20
HETATM   20  O9          0      16.172  16.453  11.719  1.00  0.00    -0.357 OA
HETATM   21  H9          0      16.025  16.288  12.643  1.00  0.00     0.218 HD
ENDBRANCH  17  20
BRANCH  18  22
HETATM   22  O11         0      18.896  15.765  11.565  1.00  0.00    -0.357 OA
HETATM   23  H11         0      19.345  15.851  12.398  1.00  0.00     0.218 HD
ENDBRANCH  18  22
ENDBRANCH   4  14
BRANCH   8  24
HETATM   24  O17         0      14.856  19.963   3.578  1.00  0.00    -0.359 OA
HETATM   25  H17         0      14.464  20.823   3.484  1.00  0.00     0.218 HD
ENDBRANCH   8  24
TORSDOF 5
ENDMDL
MODEL 8
REMARK VINA RESULT:      -1.2      2.895      6.495
REMARK  5 active torsions:
REMARK  status: ('A' for Active; 'I' for Inactive)
REMARK    1  A    between atoms: C4_4  and  C5_5 
REMARK    2  A    between atoms: C8_8  and  O9_9 
REMARK    3  A    between atoms: C10_11  and  O11_12 
REMARK    4  A    between atoms: C16_18  and  O17_19 
REMARK    5  A    between atoms: C19_22  and  O20_23 
ROOT
HETATM    1  O1          0      17.876  15.941   9.672  1.00  0.00    -0.286 OA
HETATM    2  C2          0      17.469  17.133   9.607  1.00  0.00     0.201 C 
HETATM    3  C3          0      16.239  17.534  10.101  1.00  0.00     0.067 C 
HETATM    4  C4          0      15.771  18.832   9.925  1.00  0.00     0.103 C 
HETATM    5  O13         0      16.535  19.700   9.286  1.00  0.00    -0.307 OA
HETATM    6  C14         0      17.693  19.362   8.764  1.00  0.00     0.107 C 
HETATM    7  C15         0      18.300  20.123   7.776  1.00  0.00     0.049 C 
HETATM    8  C16         0      19.383  19.636   7.053  1.00  0.00     0.093 C 
HETATM    9  C18         0      20.124  18.653   7.697  1.00  0.00     0.048 C 
HETATM   10  C19         0      19.563  17.904   8.723  1.00  0.00     0.096 C 
HETATM   11  C21         0      18.275  18.148   9.114  1.00  0.00     0.084 C 
ENDROOT
BRANCH  10  12
HETATM   12  O20         0      20.124  16.675   9.053  1.00  0.00    -0.359 OA
HETATM   13  H20         0      19.987  16.345   9.933  1.00  0.00     0.218 HD
ENDBRANCH  10  12
BRANCH   4  14
HETATM   14  C5          0      14.320  19.024   9.909  1.00  0.00     0.025 C 
HETATM   15  C6          0      13.693  19.951   9.089  1.00  0.00     0.004 C 
HETATM   16  C7          0      12.477  19.588   8.518  1.00  0.00     0.026 C 
HETATM   17  C8          0      11.839  18.399   8.855  1.00  0.00     0.112 C 
HETATM   18  C10         0      12.195  17.880  10.093  1.00  0.00     0.112 C 
HETATM   19  C12         0      13.451  18.190  10.602  1.00  0.00     0.028 C 
BRANCH  17  20
HETATM   20  O9          0      11.083  17.712   7.923  1.00  0.00    -0.357 OA
HETATM   21  H9          0      11.200  16.790   7.724  1.00  0.00     0.218 HD
ENDBRANCH  17  20
BRANCH  18  22
HETATM   22  O11         0      11.455  16.804  10.560  1.00  0.00    -0.357 OA
HETATM   23  H11         0      10.644  16.610  10.104  1.00  0.00     0.218 HD
ENDBRANCH  18  22
ENDBRANCH   4  14
BRANCH   8  24
HETATM   24  O17         0      19.506  19.868   5.679  1.00  0.00    -0.359 OA
HETATM   25  H17         0      20.346  20.060   5.278  1.00  0.00     0.218 HD
ENDBRANCH   8  24
TORSDOF 5
ENDMDL
MODEL 9
REMARK VINA RESULT:      -1.2      3.189      7.658
REMARK  5 active torsions:
REMARK  status: ('A' for Active; 'I' for Inactive)
REMARK    1  A    between atoms: C4_4  and  C5_5 
REMARK    2  A    between atoms: C8_8  and  O9_9 
REMARK    3  A    between atoms: C10_11  and  O11_12 
REMARK    4  A    between atoms: C16_18  and  O17_19 
REMARK    5  A    between atoms: C19_22  and  O20_23 
ROOT
HETATM    1  O1          0      16.342  15.770   8.084  1.00  0.00    -0.286 OA
HETATM    2  C2          0      17.333  16.174   8.753  1.00  0.00     0.201 C 
HETATM    3  C3          0      17.414  16.040  10.129  1.00  0.00     0.067 C 
HETATM    4  C4          0      18.468  16.585  10.853  1.00  0.00     0.103 C 
HETATM    5  O13         0      19.421  17.227  10.201  1.00  0.00    -0.307 OA
HETATM    6  C14         0      19.373  17.415   8.900  1.00  0.00     0.107 C 
HETATM    7  C15         0      20.125  18.400   8.276  1.00  0.00     0.049 C 
HETATM    8  C16         0      19.885  18.764   6.956  1.00  0.00     0.093 C 
HETATM    9  C18         0      19.279  17.784   6.179  1.00  0.00     0.048 C 
HETATM   10  C19         0      18.558  16.758   6.773  1.00  0.00     0.096 C 
HETATM   11  C21         0      18.457  16.700   8.136  1.00  0.00     0.084 C 
ENDROOT
BRANCH  10  12
HETATM   12  O20         0      17.618  16.061   6.019  1.00  0.00    -0.359 OA
HETATM   13  H20         0      17.371  16.419   5.175  1.00  0.00     0.218 HD
ENDBRANCH  10  12
BRANCH   4  14
HETATM   14  C5          0      18.209  16.937  12.250  1.00  0.00     0.025 C 
HETATM   15  C6          0      19.085  16.623  13.279  1.00  0.00     0.004 C 
HETATM   16  C7          0      19.251  17.562  14.293  1.00  0.00     0.026 C 
HETATM   17  C8          0      18.476  18.714  14.354  1.00  0.00     0.112 C 
HETATM   18  C10         0      17.257  18.629  13.694  1.00  0.00     0.112 C 
HETATM   19  C12         0      17.143  17.743  12.629  1.00  0.00     0.028 C 
BRANCH  17  20
HETATM   20  O9          0      18.997  19.894  14.854  1.00  0.00    -0.357 OA
HETATM   21  H9          0      19.921  20.031  15.028  1.00  0.00     0.218 HD
ENDBRANCH  17  20
BRANCH  18  22
HETATM   22  O11         0      16.366  19.676  13.881  1.00  0.00    -0.357 OA
HETATM   23  H11         0      15.690  19.788  13.223  1.00  0.00     0.218 HD
ENDBRANCH  18  22
ENDBRANCH   4  14
BRANCH   8  24
HETATM   24  O17         0      19.936  20.101   6.547  1.00  0.00    -0.359 OA
HETATM   25  H17         0      20.181  20.797   7.146  1.00  0.00     0.218 HD
ENDBRANCH   8  24
TORSDOF 5
ENDMDL
