MODEL 1
REMARK VINA RESULT:      -1.9      0.000      0.000
REMARK  5 active torsions:
REMARK  status: ('A' for Active; 'I' for Inactive)
REMARK    1  A    between atoms: C4_4  and  C5_5 
REMARK    2  A    between atoms: C8_8  and  O9_9 
REMARK    3  A    between atoms: C10_11  and  O11_12 
REMARK    4  A    between atoms: C16_18  and  O17_19 
REMARK    5  A    between atoms: C19_22  and  O20_23 
ROOT
HETATM    1  O1          0      19.353  35.654  36.333  1.00  0.00    -0.286 OA
HETATM    2  C2          0      19.653  34.473  36.006  1.00  0.00     0.201 C 
HETATM    3  C3          0      19.892  34.095  34.695  1.00  0.00     0.067 C 
HETATM    4  C4          0      20.120  32.768  34.350  1.00  0.00     0.103 C 
HETATM    5  O13         0      20.125  31.855  35.305  1.00  0.00    -0.307 OA
HETATM    6  C14         0      19.866  32.154  36.559  1.00  0.00     0.107 C 
HETATM    7  C15         0      19.478  31.188  37.476  1.00  0.00     0.049 C 
HETATM    8  C16         0      18.963  31.537  38.719  1.00  0.00     0.093 C 
HETATM    9  C18         0      19.347  32.790  39.182  1.00  0.00     0.048 C 
HETATM   10  C19         0      19.784  33.766  38.296  1.00  0.00     0.096 C 
HETATM   11  C21         0      19.855  33.486  36.959  1.00  0.00     0.084 C 
ENDROOT
BRANCH  10  12
HETATM   12  O20         0      19.745  35.102  38.682  1.00  0.00    -0.359 OA
HETATM   13  H20         0      19.516  35.749  38.025  1.00  0.00     0.218 HD
ENDBRANCH  10  12
BRANCH   4  14
HETATM   14  C5          0      19.769  32.361  32.988  1.00  0.00     0.025 C 
HETATM   15  C6          0      19.559  31.037  32.629  1.00  0.00     0.004 C 
HETATM   16  C7          0      18.540  30.769  31.721  1.00  0.00     0.026 C 
HETATM   17  C8          0      17.840  31.790  31.088  1.00  0.00     0.112 C 
HETATM   18  C10         0      18.517  33.000  31.019  1.00  0.00     0.112 C 
HETATM   19  C12         0      19.471  33.279  31.990  1.00  0.00     0.028 C 
BRANCH  17  20
HETATM   20  O9          0      16.505  31.636  30.759  1.00  0.00    -0.357 OA
HETATM   21  H9          0      16.160  31.759  29.882  1.00  0.00     0.218 HD
ENDBRANCH  17  20
BRANCH  18  22
HETATM   22  O11         0      17.948  33.995  30.236  1.00  0.00    -0.357 OA
HETATM   23  H11         0      17.366  34.606  30.673  1.00  0.00     0.218 HD
ENDBRANCH  18  22
ENDBRANCH   4  14
BRANCH   8  24
HETATM   24  O17         0      17.892  30.839  39.287  1.00  0.00    -0.359 OA
HETATM   25  H17         0      17.281  31.260  39.880  1.00  0.00     0.218 HD
ENDBRANCH   8  24
TORSDOF 5
ENDMDL
MODEL 2
REMARK VINA RESULT:      -1.9      3.422      6.238
REMARK  5 active torsions:
REMARK  status: ('A' for Active; 'I' for Inactive)
REMARK    1  A    between atoms: C4_4  and  C5_5 
REMARK    2  A    between atoms: C8_8  and  O9_9 
REMARK    3  A    between atoms: C10_11  and  O11_12 
REMARK    4  A    between atoms: C16_18  and  O17_19 
REMARK    5  A    between atoms: C19_22  and  O20_23 
ROOT
HETATM    1  O1          0      19.433  28.224  35.380  1.00  0.00    -0.286 OA
HETATM    2  C2          0      19.695  28.694  34.239  1.00  0.00     0.201 C 
HETATM    3  C3          0      19.792  30.053  33.991  1.00  0.00     0.067 C 
HETATM    4  C4          0      19.980  30.547  32.705  1.00  0.00     0.103 C 
HETATM    5  O13         0      20.087  29.690  31.705  1.00  0.00    -0.307 OA
HETATM    6  C14         0      19.965  28.393  31.880  1.00  0.00     0.107 C 
HETATM    7  C15         0      19.677  27.537  30.827  1.00  0.00     0.049 C 
HETATM    8  C16         0      19.300  26.218  31.050  1.00  0.00     0.093 C 
HETATM    9  C18         0      19.732  25.681  32.257  1.00  0.00     0.048 C 
HETATM   10  C19         0      20.072  26.510  33.317  1.00  0.00     0.096 C 
HETATM   11  C21         0      19.998  27.868  33.168  1.00  0.00     0.084 C 
ENDROOT
BRANCH  10  12
HETATM   12  O20         0      20.076  25.995  34.609  1.00  0.00    -0.359 OA
HETATM   13  H20         0      20.547  26.476  35.279  1.00  0.00     0.218 HD
ENDBRANCH  10  12
BRANCH   4  14
HETATM   14  C5          0      19.484  31.896  32.427  1.00  0.00     0.025 C 
HETATM   15  C6          0      18.265  32.137  31.810  1.00  0.00     0.004 C 
HETATM   16  C7          0      17.515  33.217  32.264  1.00  0.00     0.026 C 
HETATM   17  C8          0      18.017  34.109  33.206  1.00  0.00     0.112 C 
HETATM   18  C10         0      19.403  34.161  33.275  1.00  0.00     0.112 C 
HETATM   19  C12         0      20.125  33.036  32.895  1.00  0.00     0.028 C 
BRANCH  17  20
HETATM   20  O9          0      17.179  34.716  34.124  1.00  0.00    -0.357 OA
HETATM   21  H9          0      16.485  34.261  34.587  1.00  0.00     0.218 HD
ENDBRANCH  17  20
BRANCH  18  22
HETATM   22  O11         0      19.956  35.164  34.058  1.00  0.00    -0.357 OA
HETATM   23  H11         0      19.568  35.304  34.914  1.00  0.00     0.218 HD
ENDBRANCH  18  22
ENDBRANCH   4  14
BRANCH   8  24
HETATM   24  O17         0      18.295  25.609  30.291  1.00  0.00    -0.359 OA
HETATM   25  H17         0      18.007  25.971  29.462  1.00  0.00     0.218 HD
ENDBRANCH   8  24
TORSDOF 5
ENDMDL
MODEL 3
REMARK VINA RESULT:      -1.9      2.781      6.184
REMARK  5 active torsions:
REMARK  status: ('A' for Active; 'I' for Inactive)
REMARK    1  A    between atoms: C4_4  and  C5_5 
REMARK    2  A    between atoms: C8_8  and  O9_9 
REMARK    3  A    between atoms: C10_11  and  O11_12 
REMARK    4  A    between atoms: C16_18  and  O17_19 
REMARK    5  A    between atoms: C19_22  and  O20_23 
ROOT
HETATM    1  O1          0      18.828  30.383  31.156  1.00  0.00    -0.286 OA
HETATM    2  C2          0      19.279  30.701  32.291  1.00  0.00     0.201 C 
HETATM    3  C3          0      19.729  29.766  33.208  1.00  0.00     0.067 C 
HETATM    4  C4          0      20.125  30.134  34.489  1.00  0.00     0.103 C 
HETATM    5  O13         0      20.086  31.412  34.823  1.00  0.00    -0.307 OA
HETATM    6  C14         0      19.632  32.335  34.003  1.00  0.00     0.107 C 
HETATM    7  C15         0      19.215  33.577  34.460  1.00  0.00     0.049 C 
HETATM    8  C16         0      18.506  34.447  33.640  1.00  0.00     0.093 C 
HETATM    9  C18         0      18.704  34.261  32.277  1.00  0.00     0.048 C 
HETATM   10  C19         0      19.164  33.046  31.790  1.00  0.00     0.096 C 
HETATM   11  C21         0      19.442  32.027  32.660  1.00  0.00     0.084 C 
ENDROOT
BRANCH  10  12
HETATM   12  O20         0      18.947  32.722  30.454  1.00  0.00    -0.359 OA
HETATM   13  H20         0      19.244  33.336  29.793  1.00  0.00     0.218 HD
ENDBRANCH  10  12
BRANCH   4  14
HETATM   14  C5          0      20.002  29.126  35.544  1.00  0.00     0.025 C 
HETATM   15  C6          0      19.787  29.453  36.875  1.00  0.00     0.004 C 
HETATM   16  C7          0      18.934  28.636  37.609  1.00  0.00     0.026 C 
HETATM   17  C8          0      18.417  27.458  37.080  1.00  0.00     0.112 C 
HETATM   18  C10         0      19.162  26.913  36.043  1.00  0.00     0.112 C 
HETATM   19  C12         0      19.941  27.766  35.270  1.00  0.00     0.028 C 
BRANCH  17  20
HETATM   20  O9          0      17.157  27.013  37.437  1.00  0.00    -0.357 OA
HETATM   21  H9          0      16.814  27.053  38.323  1.00  0.00     0.218 HD
ENDBRANCH  17  20
BRANCH  18  22
HETATM   22  O11         0      18.799  25.647  35.606  1.00  0.00    -0.357 OA
HETATM   23  H11         0      19.250  24.910  36.003  1.00  0.00     0.218 HD
ENDBRANCH  18  22
ENDBRANCH   4  14
BRANCH   8  24
HETATM   24  O17         0      17.437  35.204  34.132  1.00  0.00    -0.359 OA
HETATM   25  H17         0      16.610  35.261  33.668  1.00  0.00     0.218 HD
ENDBRANCH   8  24
TORSDOF 5
ENDMDL
MODEL 4
REMARK VINA RESULT:      -1.8      2.766      6.367
REMARK  5 active torsions:
REMARK  status: ('A' for Active; 'I' for Inactive)
REMARK    1  A    between atoms: C4_4  and  C5_5 
REMARK    2  A    between atoms: C8_8  and  O9_9 
REMARK    3  A    between atoms: C10_11  and  O11_12 
REMARK    4  A    between atoms: C16_18  and  O17_19 
REMARK    5  A    between atoms: C19_22  and  O20_23 
ROOT
HETATM    1  O1          0      18.812  27.900  36.659  1.00  0.00    -0.286 OA
HETATM    2  C2          0      19.218  28.882  35.979  1.00  0.00     0.201 C 
HETATM    3  C3          0      19.147  30.189  36.430  1.00  0.00     0.067 C 
HETATM    4  C4          0      19.506  31.260  35.621  1.00  0.00     0.103 C 
HETATM    5  O13         0      19.944  31.013  34.399  1.00  0.00    -0.307 OA
HETATM    6  C14         0      19.996  29.795  33.908  1.00  0.00     0.107 C 
HETATM    7  C15         0      20.063  29.560  32.542  1.00  0.00     0.049 C 
HETATM    8  C16         0      19.861  28.288  32.018  1.00  0.00     0.093 C 
HETATM    9  C18         0      20.124  27.243  32.895  1.00  0.00     0.048 C 
HETATM   10  C19         0      20.111  27.454  34.267  1.00  0.00     0.096 C 
HETATM   11  C21         0      19.855  28.705  34.760  1.00  0.00     0.084 C 
ENDROOT
BRANCH  10  12
HETATM   12  O20         0      19.939  26.369  35.121  1.00  0.00    -0.359 OA
HETATM   13  H20         0      19.070  25.991  35.190  1.00  0.00     0.218 HD
ENDBRANCH  10  12
BRANCH   4  14
HETATM   14  C5          0      18.869  32.549  35.894  1.00  0.00     0.025 C 
HETATM   15  C6          0      17.505  32.683  36.110  1.00  0.00     0.004 C 
HETATM   16  C7          0      17.091  33.595  37.075  1.00  0.00     0.026 C 
HETATM   17  C8          0      17.992  34.443  37.711  1.00  0.00     0.112 C 
HETATM   18  C10         0      19.164  34.679  37.005  1.00  0.00     0.112 C 
HETATM   19  C12         0      19.600  33.711  36.107  1.00  0.00     0.028 C 
BRANCH  17  20
HETATM   20  O9          0      17.796  34.828  39.025  1.00  0.00    -0.357 OA
HETATM   21  H9          0      17.389  34.275  39.682  1.00  0.00     0.218 HD
ENDBRANCH  17  20
BRANCH  18  22
HETATM   22  O11         0      20.010  35.660  37.501  1.00  0.00    -0.357 OA
HETATM   23  H11         0      20.710  35.373  38.077  1.00  0.00     0.218 HD
ENDBRANCH  18  22
ENDBRANCH   4  14
BRANCH   8  24
HETATM   24  O17         0      19.137  28.093  30.837  1.00  0.00    -0.359 OA
HETATM   25  H17         0      18.863  27.228  30.557  1.00  0.00     0.218 HD
ENDBRANCH   8  24
TORSDOF 5
ENDMDL
MODEL 5
REMARK VINA RESULT:      -1.8      2.679      3.649
REMARK  5 active torsions:
REMARK  status: ('A' for Active; 'I' for Inactive)
REMARK    1  A    between atoms: C4_4  and  C5_5 
REMARK    2  A    between atoms: C8_8  and  O9_9 
REMARK    3  A    between atoms: C10_11  and  O11_12 
REMARK    4  A    between atoms: C16_18  and  O17_19 
REMARK    5  A    between atoms: C19_22  and  O20_23 
ROOT
HETATM    1  O1          0      15.878  32.076  37.026  1.00  0.00    -0.286 OA
HETATM    2  C2          0      16.981  32.404  36.510  1.00  0.00     0.201 C 
HETATM    3  C3          0      17.602  31.654  35.526  1.00  0.00     0.067 C 
HETATM    4  C4          0      18.865  31.982  35.048  1.00  0.00     0.103 C 
HETATM    5  O13         0      19.471  33.050  35.537  1.00  0.00    -0.307 OA
HETATM    6  C14         0      18.943  33.775  36.498  1.00  0.00     0.107 C 
HETATM    7  C15         0      19.712  34.626  37.279  1.00  0.00     0.049 C 
HETATM    8  C16         0      19.206  35.189  38.444  1.00  0.00     0.093 C 
HETATM    9  C18         0      17.822  35.299  38.491  1.00  0.00     0.048 C 
HETATM   10  C19         0      17.023  34.495  37.689  1.00  0.00     0.096 C 
HETATM   11  C21         0      17.604  33.600  36.833  1.00  0.00     0.084 C 
ENDROOT
BRANCH  10  12
HETATM   12  O20         0      15.692  34.293  38.039  1.00  0.00    -0.359 OA
HETATM   13  H20         0      15.125  35.053  38.090  1.00  0.00     0.218 HD
ENDBRANCH  10  12
BRANCH   4  14
HETATM   14  C5          0      19.682  30.892  34.510  1.00  0.00     0.025 C 
HETATM   15  C6          0      20.107  29.820  35.281  1.00  0.00     0.004 C 
HETATM   16  C7          0      20.124  28.564  34.684  1.00  0.00     0.026 C 
HETATM   17  C8          0      19.857  28.396  33.330  1.00  0.00     0.112 C 
HETATM   18  C10         0      20.072  29.526  32.552  1.00  0.00     0.112 C 
HETATM   19  C12         0      19.966  30.773  33.156  1.00  0.00     0.028 C 
BRANCH  17  20
HETATM   20  O9          0      19.227  27.254  32.868  1.00  0.00    -0.357 OA
HETATM   21  H9          0      18.479  26.853  33.295  1.00  0.00     0.218 HD
ENDBRANCH  17  20
BRANCH  18  22
HETATM   22  O11         0      20.004  29.364  31.176  1.00  0.00    -0.357 OA
HETATM   23  H11         0      19.889  28.477  30.852  1.00  0.00     0.218 HD
ENDBRANCH  18  22
ENDBRANCH   4  14
BRANCH   8  24
HETATM   24  O17         0      19.994  35.316  39.594  1.00  0.00    -0.359 OA
HETATM   25  H17         0      20.770  35.863  39.610  1.00  0.00     0.218 HD
ENDBRANCH   8  24
TORSDOF 5
ENDMDL
MODEL 6
REMARK VINA RESULT:      -1.7      4.459      6.753
REMARK  5 active torsions:
REMARK  status: ('A' for Active; 'I' for Inactive)
REMARK    1  A    between atoms: C4_4  and  C5_5 
REMARK    2  A    between atoms: C8_8  and  O9_9 
REMARK    3  A    between atoms: C10_11  and  O11_12 
REMARK    4  A    between atoms: C16_18  and  O17_19 
REMARK    5  A    between atoms: C19_22  and  O20_23 
ROOT
HETATM    1  O1          0      18.361  29.901  30.543  1.00  0.00    -0.286 OA
HETATM    2  C2          0      18.963  29.367  31.515  1.00  0.00     0.201 C 
HETATM    3  C3          0      19.140  27.998  31.628  1.00  0.00     0.067 C 
HETATM    4  C4          0      19.716  27.429  32.758  1.00  0.00     0.103 C 
HETATM    5  O13         0      20.119  28.223  33.733  1.00  0.00    -0.307 OA
HETATM    6  C14         0      19.941  29.526  33.693  1.00  0.00     0.107 C 
HETATM    7  C15         0      19.984  30.305  34.840  1.00  0.00     0.049 C 
HETATM    8  C16         0      19.548  31.625  34.833  1.00  0.00     0.093 C 
HETATM    9  C18         0      19.586  32.249  33.592  1.00  0.00     0.048 C 
HETATM   10  C19         0      19.591  31.498  32.425  1.00  0.00     0.096 C 
HETATM   11  C21         0      19.575  30.132  32.496  1.00  0.00     0.084 C 
ENDROOT
BRANCH  10  12
HETATM   12  O20         0      19.195  32.093  31.231  1.00  0.00    -0.359 OA
HETATM   13  H20         0      19.214  33.041  31.179  1.00  0.00     0.218 HD
ENDBRANCH  10  12
BRANCH   4  14
HETATM   14  C5          0      19.337  26.052  33.081  1.00  0.00     0.025 C 
HETATM   15  C6          0      20.097  25.238  33.908  1.00  0.00     0.004 C 
HETATM   16  C7          0      19.419  24.391  34.779  1.00  0.00     0.026 C 
HETATM   17  C8          0      18.035  24.259  34.737  1.00  0.00     0.112 C 
HETATM   18  C10         0      17.457  24.595  33.520  1.00  0.00     0.112 C 
HETATM   19  C12         0      18.115  25.509  32.706  1.00  0.00     0.028 C 
BRANCH  17  20
HETATM   20  O9          0      17.311  24.017  35.891  1.00  0.00    -0.357 OA
HETATM   21  H9          0      16.415  23.701  35.896  1.00  0.00     0.218 HD
ENDBRANCH  17  20
BRANCH  18  22
HETATM   22  O11         0      16.109  24.303  33.363  1.00  0.00    -0.357 OA
HETATM   23  H11         0      15.856  23.389  33.432  1.00  0.00     0.218 HD
ENDBRANCH  18  22
ENDBRANCH   4  14
BRANCH   8  24
HETATM   24  O17         0      18.820  32.158  35.903  1.00  0.00    -0.359 OA
HETATM   25  H17         0      18.023  32.655  35.765  1.00  0.00     0.218 HD
ENDBRANCH   8  24
TORSDOF 5
ENDMDL
MODEL 7
REMARK VINA RESULT:      -1.7      1.645      6.713
REMARK  5 active torsions:
REMARK  status: ('A' for Active; 'I' for Inactive)
REMARK    1  A    between atoms: C4_4  and  C5_5 
REMARK    2  A    between atoms: C8_8  and  O9_9 
REMARK    3  A    between atoms: C10_11  and  O11_12 
REMARK    4  A    between atoms: C16_18  and  O17_19 
REMARK    5  A    between atoms: C19_22  and  O20_23 
ROOT
HETATM    1  O1          0      18.839  29.375  33.694  1.00  0.00    -0.286 OA
HETATM    2  C2          0      19.297  30.443  34.184  1.00  0.00     0.201 C 
HETATM    3  C3          0      19.720  30.546  35.498  1.00  0.00     0.067 C 
HETATM    4  C4          0      20.124  31.761  36.040  1.00  0.00     0.103 C 
HETATM    5  O13         0      20.119  32.833  35.269  1.00  0.00    -0.307 OA
HETATM    6  C14         0      19.691  32.799  34.026  1.00  0.00     0.107 C 
HETATM    7  C15         0      19.308  33.949  33.352  1.00  0.00     0.049 C 
HETATM    8  C16         0      18.624  33.885  32.145  1.00  0.00     0.093 C 
HETATM    9  C18         0      18.818  32.714  31.422  1.00  0.00     0.048 C 
HETATM   10  C19         0      19.246  31.556  32.057  1.00  0.00     0.096 C 
HETATM   11  C21         0      19.495  31.571  33.402  1.00  0.00     0.084 C 
ENDROOT
BRANCH  10  12
HETATM   12  O20         0      19.022  30.324  31.449  1.00  0.00    -0.359 OA
HETATM   13  H20         0      18.876  30.311  30.511  1.00  0.00     0.218 HD
ENDBRANCH  10  12
BRANCH   4  14
HETATM   14  C5          0      19.973  31.932  37.486  1.00  0.00     0.025 C 
HETATM   15  C6          0      20.124  33.157  38.119  1.00  0.00     0.004 C 
HETATM   16  C7          0      19.264  33.450  39.172  1.00  0.00     0.026 C 
HETATM   17  C8          0      18.372  32.506  39.669  1.00  0.00     0.112 C 
HETATM   18  C10         0      18.727  31.186  39.422  1.00  0.00     0.112 C 
HETATM   19  C12         0      19.518  30.912  38.313  1.00  0.00     0.028 C 
BRANCH  17  20
HETATM   20  O9          0      17.141  32.889  40.172  1.00  0.00    -0.357 OA
HETATM   21  H9          0      17.033  33.485  40.904  1.00  0.00     0.218 HD
ENDBRANCH  17  20
BRANCH  18  22
HETATM   22  O11         0      17.978  30.205  40.055  1.00  0.00    -0.357 OA
HETATM   23  H11         0      17.626  30.418  40.912  1.00  0.00     0.218 HD
ENDBRANCH  18  22
ENDBRANCH   4  14
BRANCH   8  24
HETATM   24  O17         0      17.575  34.764  31.853  1.00  0.00    -0.359 OA
HETATM   25  H17         0      17.728  35.600  31.428  1.00  0.00     0.218 HD
ENDBRANCH   8  24
TORSDOF 5
ENDMDL
MODEL 8
REMARK VINA RESULT:      -1.7      2.595      5.835
REMARK  5 active torsions:
REMARK  status: ('A' for Active; 'I' for Inactive)
REMARK    1  A    between atoms: C4_4  and  C5_5 
REMARK    2  A    between atoms: C8_8  and  O9_9 
REMARK    3  A    between atoms: C10_11  and  O11_12 
REMARK    4  A    between atoms: C16_18  and  O17_19 
REMARK    5  A    between atoms: C19_22  and  O20_23 
ROOT
HETATM    1  O1          0      19.334  32.698  30.866  1.00  0.00    -0.286 OA
HETATM    2  C2          0      18.769  32.847  31.985  1.00  0.00     0.201 C 
HETATM    3  C3          0      18.376  34.084  32.468  1.00  0.00     0.067 C 
HETATM    4  C4          0      17.850  34.233  33.746  1.00  0.00     0.103 C 
HETATM    5  O13         0      17.707  33.159  34.503  1.00  0.00    -0.307 OA
HETATM    6  C14         0      18.098  31.968  34.107  1.00  0.00     0.107 C 
HETATM    7  C15         0      18.324  30.936  35.007  1.00  0.00     0.049 C 
HETATM    8  C16         0      18.975  29.770  34.620  1.00  0.00     0.093 C 
HETATM    9  C18         0      18.897  29.477  33.264  1.00  0.00     0.048 C 
HETATM   10  C19         0      18.626  30.477  32.340  1.00  0.00     0.096 C 
HETATM   11  C21         0      18.417  31.760  32.769  1.00  0.00     0.084 C 
ENDROOT
BRANCH  10  12
HETATM   12  O20         0      18.974  30.284  31.007  1.00  0.00    -0.359 OA
HETATM   13  H20         0      19.528  29.543  30.794  1.00  0.00     0.218 HD
ENDBRANCH  10  12
BRANCH   4  14
HETATM   14  C5          0      18.024  35.534  34.395  1.00  0.00     0.025 C 
HETATM   15  C6          0      17.012  36.479  34.468  1.00  0.00     0.004 C 
HETATM   16  C7          0      16.903  37.218  35.642  1.00  0.00     0.026 C 
HETATM   17  C8          0      17.849  37.118  36.657  1.00  0.00     0.112 C 
HETATM   18  C10         0      19.096  36.667  36.245  1.00  0.00     0.112 C 
HETATM   19  C12         0      19.166  35.859  35.116  1.00  0.00     0.028 C 
BRANCH  17  20
HETATM   20  O9          0      17.483  37.258  37.984  1.00  0.00    -0.357 OA
HETATM   21  H9          0      17.156  36.545  38.519  1.00  0.00     0.218 HD
ENDBRANCH  17  20
BRANCH  18  22
HETATM   22  O11         0      20.125  36.728  37.174  1.00  0.00    -0.357 OA
HETATM   23  H11         0      19.937  36.400  38.046  1.00  0.00     0.218 HD
ENDBRANCH  18  22
ENDBRANCH   4  14
BRANCH   8  24
HETATM   24  O17         0      19.904  29.142  35.456  1.00  0.00    -0.359 OA
HETATM   25  H17         0      20.840  29.241  35.326  1.00  0.00     0.218 HD
ENDBRANCH   8  24
TORSDOF 5
ENDMDL
MODEL 9
REMARK VINA RESULT:      -1.7      2.601      6.305
REMARK  5 active torsions:
REMARK  status: ('A' for Active; 'I' for Inactive)
REMARK    1  A    between atoms: C4_4  and  C5_5 
REMARK    2  A    between atoms: C8_8  and  O9_9 
REMARK    3  A    between atoms: C10_11  and  O11_12 
REMARK    4  A    between atoms: C16_18  and  O17_19 
REMARK    5  A    between atoms: C19_22  and  O20_23 
ROOT
HETATM    1  O1          0      15.824  30.729  34.019  1.00  0.00    -0.286 OA
HETATM    2  C2          0      17.053  30.754  34.300  1.00  0.00     0.201 C 
HETATM    3  C3          0      17.607  31.686  35.162  1.00  0.00     0.067 C 
HETATM    4  C4          0      18.979  31.757  35.374  1.00  0.00     0.103 C 
HETATM    5  O13         0      19.763  30.896  34.750  1.00  0.00    -0.307 OA
HETATM    6  C14         0      19.293  30.016  33.894  1.00  0.00     0.107 C 
HETATM    7  C15         0      20.110  29.399  32.957  1.00  0.00     0.049 C 
HETATM    8  C16         0      19.575  28.673  31.900  1.00  0.00     0.093 C 
HETATM    9  C18         0      18.301  28.163  32.123  1.00  0.00     0.048 C 
HETATM   10  C19         0      17.475  28.727  33.086  1.00  0.00     0.096 C 
HETATM   11  C21         0      17.924  29.782  33.833  1.00  0.00     0.084 C 
ENDROOT
BRANCH  10  12
HETATM   12  O20         0      16.101  28.520  33.008  1.00  0.00    -0.359 OA
HETATM   13  H20         0      15.764  28.041  32.261  1.00  0.00     0.218 HD
ENDBRANCH  10  12
BRANCH   4  14
HETATM   14  C5          0      19.530  33.055  35.768  1.00  0.00     0.025 C 
HETATM   15  C6          0      19.591  34.139  34.904  1.00  0.00     0.004 C 
HETATM   16  C7          0      19.334  35.400  35.433  1.00  0.00     0.026 C 
HETATM   17  C8          0      19.156  35.595  36.799  1.00  0.00     0.112 C 
HETATM   18  C10         0      19.727  34.619  37.604  1.00  0.00     0.112 C 
HETATM   19  C12         0      19.894  33.343  37.077  1.00  0.00     0.028 C 
BRANCH  17  20
HETATM   20  O9          0      18.296  36.572  37.269  1.00  0.00    -0.357 OA
HETATM   21  H9          0      18.033  37.332  36.762  1.00  0.00     0.218 HD
ENDBRANCH  17  20
BRANCH  18  22
HETATM   22  O11         0      19.743  34.861  38.970  1.00  0.00    -0.357 OA
HETATM   23  H11         0      19.450  35.718  39.258  1.00  0.00     0.218 HD
ENDBRANCH  18  22
ENDBRANCH   4  14
BRANCH   8  24
HETATM   24  O17         0      20.125  28.742  30.615  1.00  0.00    -0.359 OA
HETATM   25  H17         0      19.806  28.196  29.906  1.00  0.00     0.218 HD
ENDBRANCH   8  24
TORSDOF 5
ENDMDL
