MODEL 1
REMARK VINA RESULT:      -5.8      0.000      0.000
REMARK  5 active torsions:
REMARK  status: ('A' for Active; 'I' for Inactive)
REMARK    1  A    between atoms: C4_4  and  C5_5 
REMARK    2  A    between atoms: C8_8  and  O9_9 
REMARK    3  A    between atoms: C10_11  and  O11_12 
REMARK    4  A    between atoms: C16_18  and  O17_19 
REMARK    5  A    between atoms: C19_22  and  O20_23 
ROOT
HETATM    1  O1          0      17.348  84.110   8.604  1.00  0.00    -0.286 OA
HETATM    2  C2          0      16.920  82.960   8.897  1.00  0.00     0.201 C 
HETATM    3  C3          0      16.511  82.046   7.941  1.00  0.00     0.067 C 
HETATM    4  C4          0      15.948  80.825   8.295  1.00  0.00     0.103 C 
HETATM    5  O13         0      15.822  80.532   9.577  1.00  0.00    -0.307 OA
HETATM    6  C14         0      16.159  81.379  10.524  1.00  0.00     0.107 C 
HETATM    7  C15         0      15.675  81.259  11.819  1.00  0.00     0.049 C 
HETATM    8  C16         0      15.824  82.285  12.744  1.00  0.00     0.093 C 
HETATM    9  C18         0      16.888  83.145  12.499  1.00  0.00     0.048 C 
HETATM   10  C19         0      17.427  83.256  11.225  1.00  0.00     0.096 C 
HETATM   11  C21         0      16.919  82.499  10.205  1.00  0.00     0.084 C 
ENDROOT
BRANCH  10  12
HETATM   12  O20         0      18.161  84.390  10.893  1.00  0.00    -0.359 OA
HETATM   13  H20         0      18.473  84.473   9.999  1.00  0.00     0.218 HD
ENDBRANCH  10  12
BRANCH   4  14
HETATM   14  C5          0      15.026  80.211   7.337  1.00  0.00     0.025 C 
HETATM   15  C6          0      13.672  80.052   7.593  1.00  0.00     0.004 C 
HETATM   16  C7          0      12.789  80.250   6.536  1.00  0.00     0.026 C 
HETATM   17  C8          0      13.241  80.466   5.239  1.00  0.00     0.112 C 
HETATM   18  C10         0      14.518  79.986   4.982  1.00  0.00     0.112 C 
HETATM   19  C12         0      15.409  79.879   6.044  1.00  0.00     0.028 C 
BRANCH  17  20
HETATM   20  O9          0      12.537  81.281   4.370  1.00  0.00    -0.357 OA
HETATM   21  H9          0      12.716  82.207   4.253  1.00  0.00     0.218 HD
ENDBRANCH  17  20
BRANCH  18  22
HETATM   22  O11         0      14.943  80.005   3.662  1.00  0.00    -0.357 OA
HETATM   23  H11         0      15.881  80.049   3.512  1.00  0.00     0.218 HD
ENDBRANCH  18  22
ENDBRANCH   4  14
BRANCH   8  24
HETATM   24  O17         0      14.798  82.619  13.635  1.00  0.00    -0.359 OA
HETATM   25  H17         0      14.074  82.028  13.806  1.00  0.00     0.218 HD
ENDBRANCH   8  24
TORSDOF 5
ENDMDL
MODEL 2
REMARK VINA RESULT:      -5.7      3.799      6.138
REMARK  5 active torsions:
REMARK  status: ('A' for Active; 'I' for Inactive)
REMARK    1  A    between atoms: C4_4  and  C5_5 
REMARK    2  A    between atoms: C8_8  and  O9_9 
REMARK    3  A    between atoms: C10_11  and  O11_12 
REMARK    4  A    between atoms: C16_18  and  O17_19 
REMARK    5  A    between atoms: C19_22  and  O20_23 
ROOT
HETATM    1  O1          0      17.929  85.032   4.911  1.00  0.00    -0.286 OA
HETATM    2  C2          0      17.634  85.324   6.102  1.00  0.00     0.201 C 
HETATM    3  C3          0      17.804  84.440   7.155  1.00  0.00     0.067 C 
HETATM    4  C4          0      17.376  84.748   8.441  1.00  0.00     0.103 C 
HETATM    5  O13         0      16.812  85.924   8.658  1.00  0.00    -0.307 OA
HETATM    6  C14         0      16.593  86.784   7.688  1.00  0.00     0.107 C 
HETATM    7  C15         0      15.671  87.812   7.816  1.00  0.00     0.049 C 
HETATM    8  C16         0      15.259  88.554   6.716  1.00  0.00     0.093 C 
HETATM    9  C18         0      16.160  88.586   5.659  1.00  0.00     0.048 C 
HETATM   10  C19         0      17.127  87.598   5.526  1.00  0.00     0.096 C 
HETATM   11  C21         0      17.204  86.594   6.452  1.00  0.00     0.084 C 
ENDROOT
BRANCH  10  12
HETATM   12  O20         0      17.716  87.386   4.283  1.00  0.00    -0.359 OA
HETATM   13  H20         0      18.655  87.250   4.253  1.00  0.00     0.218 HD
ENDBRANCH  10  12
BRANCH   4  14
HETATM   14  C5          0      17.029  83.628   9.318  1.00  0.00     0.025 C 
HETATM   15  C6          0      15.749  83.428   9.812  1.00  0.00     0.004 C 
HETATM   16  C7          0      15.289  82.118   9.900  1.00  0.00     0.026 C 
HETATM   17  C8          0      16.119  81.035   9.634  1.00  0.00     0.112 C 
HETATM   18  C10         0      17.476  81.295   9.776  1.00  0.00     0.112 C 
HETATM   19  C12         0      17.920  82.600   9.599  1.00  0.00     0.028 C 
BRANCH  17  20
HETATM   20  O9          0      15.614  79.876   9.072  1.00  0.00    -0.357 OA
HETATM   21  H9          0      15.031  79.864   8.322  1.00  0.00     0.218 HD
ENDBRANCH  17  20
BRANCH  18  22
HETATM   22  O11         0      18.335  80.208   9.709  1.00  0.00    -0.357 OA
HETATM   23  H11         0      18.799  80.076   8.890  1.00  0.00     0.218 HD
ENDBRANCH  18  22
ENDBRANCH   4  14
BRANCH   8  24
HETATM   24  O17         0      13.924  88.943   6.557  1.00  0.00    -0.359 OA
HETATM   25  H17         0      13.238  88.311   6.377  1.00  0.00     0.218 HD
ENDBRANCH   8  24
TORSDOF 5
ENDMDL
MODEL 3
REMARK VINA RESULT:      -5.7      3.590      5.822
REMARK  5 active torsions:
REMARK  status: ('A' for Active; 'I' for Inactive)
REMARK    1  A    between atoms: C4_4  and  C5_5 
REMARK    2  A    between atoms: C8_8  and  O9_9 
REMARK    3  A    between atoms: C10_11  and  O11_12 
REMARK    4  A    between atoms: C16_18  and  O17_19 
REMARK    5  A    between atoms: C19_22  and  O20_23 
ROOT
HETATM    1  O1          0      20.125  86.217   8.512  1.00  0.00    -0.286 OA
HETATM    2  C2          0      18.891  86.045   8.711  1.00  0.00     0.201 C 
HETATM    3  C3          0      18.389  84.973   9.429  1.00  0.00     0.067 C 
HETATM    4  C4          0      17.022  84.751   9.546  1.00  0.00     0.103 C 
HETATM    5  O13         0      16.189  85.601   8.971  1.00  0.00    -0.307 OA
HETATM    6  C14         0      16.613  86.613   8.247  1.00  0.00     0.107 C 
HETATM    7  C15         0      15.789  87.254   7.333  1.00  0.00     0.049 C 
HETATM    8  C16         0      16.303  88.143   6.397  1.00  0.00     0.093 C 
HETATM    9  C18         0      17.506  88.740   6.754  1.00  0.00     0.048 C 
HETATM   10  C19         0      18.333  88.150   7.699  1.00  0.00     0.096 C 
HETATM   11  C21         0      17.954  86.980   8.298  1.00  0.00     0.084 C 
ENDROOT
BRANCH  10  12
HETATM   12  O20         0      19.682  88.491   7.731  1.00  0.00    -0.359 OA
HETATM   13  H20         0      20.126  88.472   8.570  1.00  0.00     0.218 HD
ENDBRANCH  10  12
BRANCH   4  14
HETATM   14  C5          0      16.583  83.371   9.761  1.00  0.00     0.025 C 
HETATM   15  C6          0      15.304  82.932   9.453  1.00  0.00     0.004 C 
HETATM   16  C7          0      15.173  81.656   8.915  1.00  0.00     0.026 C 
HETATM   17  C8          0      16.259  80.793   8.811  1.00  0.00     0.112 C 
HETATM   18  C10         0      17.298  81.061   9.692  1.00  0.00     0.112 C 
HETATM   19  C12         0      17.458  82.364  10.148  1.00  0.00     0.028 C 
BRANCH  17  20
HETATM   20  O9          0      16.350  79.891   7.766  1.00  0.00    -0.357 OA
HETATM   21  H9          0      15.607  79.608   7.246  1.00  0.00     0.218 HD
ENDBRANCH  17  20
BRANCH  18  22
HETATM   22  O11         0      18.319  80.124   9.762  1.00  0.00    -0.357 OA
HETATM   23  H11         0      18.480  79.726  10.610  1.00  0.00     0.218 HD
ENDBRANCH  18  22
ENDBRANCH   4  14
BRANCH   8  24
HETATM   24  O17         0      15.830  88.170   5.080  1.00  0.00    -0.359 OA
HETATM   25  H17         0      15.861  87.402   4.523  1.00  0.00     0.218 HD
ENDBRANCH   8  24
TORSDOF 5
ENDMDL
MODEL 4
REMARK VINA RESULT:      -5.7      3.486      5.907
REMARK  5 active torsions:
REMARK  status: ('A' for Active; 'I' for Inactive)
REMARK    1  A    between atoms: C4_4  and  C5_5 
REMARK    2  A    between atoms: C8_8  and  O9_9 
REMARK    3  A    between atoms: C10_11  and  O11_12 
REMARK    4  A    between atoms: C16_18  and  O17_19 
REMARK    5  A    between atoms: C19_22  and  O20_23 
ROOT
HETATM    1  O1          0      15.876  85.133  11.674  1.00  0.00    -0.286 OA
HETATM    2  C2          0      16.487  84.802  10.621  1.00  0.00     0.201 C 
HETATM    3  C3          0      17.255  85.691   9.889  1.00  0.00     0.067 C 
HETATM    4  C4          0      17.834  85.328   8.678  1.00  0.00     0.103 C 
HETATM    5  O13         0      17.657  84.096   8.234  1.00  0.00    -0.307 OA
HETATM    6  C14         0      16.906  83.225   8.871  1.00  0.00     0.107 C 
HETATM    7  C15         0      16.395  82.100   8.239  1.00  0.00     0.049 C 
HETATM    8  C16         0      15.406  81.326   8.833  1.00  0.00     0.093 C 
HETATM    9  C18         0      15.355  81.401  10.220  1.00  0.00     0.048 C 
HETATM   10  C19         0      15.899  82.490  10.888  1.00  0.00     0.096 C 
HETATM   11  C21         0      16.505  83.489  10.176  1.00  0.00     0.084 C 
ENDROOT
BRANCH  10  12
HETATM   12  O20         0      15.475  82.775  12.182  1.00  0.00    -0.359 OA
HETATM   13  H20         0      14.632  83.198  12.291  1.00  0.00     0.218 HD
ENDBRANCH  10  12
BRANCH   4  14
HETATM   14  C5          0      18.087  86.397   7.710  1.00  0.00     0.025 C 
HETATM   15  C6          0      19.283  87.098   7.659  1.00  0.00     0.004 C 
HETATM   16  C7          0      19.778  87.438   6.404  1.00  0.00     0.026 C 
HETATM   17  C8          0      19.045  87.209   5.244  1.00  0.00     0.112 C 
HETATM   18  C10         0      17.673  87.111   5.435  1.00  0.00     0.112 C 
HETATM   19  C12         0      17.208  86.687   6.674  1.00  0.00     0.028 C 
BRANCH  17  20
HETATM   20  O9          0      19.680  86.898   4.055  1.00  0.00    -0.357 OA
HETATM   21  H9          0      19.919  86.014   3.800  1.00  0.00     0.218 HD
ENDBRANCH  17  20
BRANCH  18  22
HETATM   22  O11         0      16.882  87.073   4.296  1.00  0.00    -0.357 OA
HETATM   23  H11         0      17.307  86.818   3.485  1.00  0.00     0.218 HD
ENDBRANCH  18  22
ENDBRANCH   4  14
BRANCH   8  24
HETATM   24  O17         0      14.349  80.794   8.086  1.00  0.00    -0.359 OA
HETATM   25  H17         0      14.199  81.047   7.183  1.00  0.00     0.218 HD
ENDBRANCH   8  24
TORSDOF 5
ENDMDL
MODEL 5
REMARK VINA RESULT:      -5.5      3.493      5.774
REMARK  5 active torsions:
REMARK  status: ('A' for Active; 'I' for Inactive)
REMARK    1  A    between atoms: C4_4  and  C5_5 
REMARK    2  A    between atoms: C8_8  and  O9_9 
REMARK    3  A    between atoms: C10_11  and  O11_12 
REMARK    4  A    between atoms: C16_18  and  O17_19 
REMARK    5  A    between atoms: C19_22  and  O20_23 
ROOT
HETATM    1  O1          0      16.000  85.133  11.198  1.00  0.00    -0.286 OA
HETATM    2  C2          0      16.530  84.656  10.157  1.00  0.00     0.201 C 
HETATM    3  C3          0      17.300  85.414   9.291  1.00  0.00     0.067 C 
HETATM    4  C4          0      17.786  84.890   8.099  1.00  0.00     0.103 C 
HETATM    5  O13         0      17.518  83.630   7.803  1.00  0.00    -0.307 OA
HETATM    6  C14         0      16.761  82.878   8.571  1.00  0.00     0.107 C 
HETATM    7  C15         0      16.154  81.725   8.095  1.00  0.00     0.049 C 
HETATM    8  C16         0      15.162  81.078   8.822  1.00  0.00     0.093 C 
HETATM    9  C18         0      15.197  81.304  10.192  1.00  0.00     0.048 C 
HETATM   10  C19         0      15.836  82.424  10.706  1.00  0.00     0.096 C 
HETATM   11  C21         0      16.451  83.304   9.858  1.00  0.00     0.084 C 
ENDROOT
BRANCH  10  12
HETATM   12  O20         0      15.505  82.871  11.982  1.00  0.00    -0.359 OA
HETATM   13  H20         0      16.196  83.242  12.517  1.00  0.00     0.218 HD
ENDBRANCH  10  12
BRANCH   4  14
HETATM   14  C5          0      18.038  85.832   7.007  1.00  0.00     0.025 C 
HETATM   15  C6          0      17.875  85.496   5.671  1.00  0.00     0.004 C 
HETATM   16  C7          0      17.345  86.463   4.823  1.00  0.00     0.026 C 
HETATM   17  C8          0      17.111  87.764   5.256  1.00  0.00     0.112 C 
HETATM   18  C10         0      17.869  88.155   6.352  1.00  0.00     0.112 C 
HETATM   19  C12         0      18.314  87.175   7.231  1.00  0.00     0.028 C 
BRANCH  17  20
HETATM   20  O9          0      16.055  88.500   4.750  1.00  0.00    -0.357 OA
HETATM   21  H9          0      15.978  88.755   3.838  1.00  0.00     0.218 HD
ENDBRANCH  17  20
BRANCH  18  22
HETATM   22  O11         0      17.814  89.495   6.707  1.00  0.00    -0.357 OA
HETATM   23  H11         0      18.573  90.027   6.497  1.00  0.00     0.218 HD
ENDBRANCH  18  22
ENDBRANCH   4  14
BRANCH   8  24
HETATM   24  O17         0      14.036  80.533   8.194  1.00  0.00    -0.359 OA
HETATM   25  H17         0      14.037  79.648   7.849  1.00  0.00     0.218 HD
ENDBRANCH   8  24
TORSDOF 5
ENDMDL
MODEL 6
REMARK VINA RESULT:      -5.2     14.516     16.264
REMARK  5 active torsions:
REMARK  status: ('A' for Active; 'I' for Inactive)
REMARK    1  A    between atoms: C4_4  and  C5_5 
REMARK    2  A    between atoms: C8_8  and  O9_9 
REMARK    3  A    between atoms: C10_11  and  O11_12 
REMARK    4  A    between atoms: C16_18  and  O17_19 
REMARK    5  A    between atoms: C19_22  and  O20_23 
ROOT
HETATM    1  O1          0       4.110  94.145   2.788  1.00  0.00    -0.286 OA
HETATM    2  C2          0       4.196  92.958   2.368  1.00  0.00     0.201 C 
HETATM    3  C3          0       3.243  91.993   2.644  1.00  0.00     0.067 C 
HETATM    4  C4          0       3.413  90.669   2.256  1.00  0.00     0.103 C 
HETATM    5  O13         0       4.505  90.338   1.589  1.00  0.00    -0.307 OA
HETATM    6  C14         0       5.458  91.208   1.333  1.00  0.00     0.107 C 
HETATM    7  C15         0       6.745  90.806   1.007  1.00  0.00     0.049 C 
HETATM    8  C16         0       7.801  91.710   0.988  1.00  0.00     0.093 C 
HETATM    9  C18         0       7.435  93.035   0.782  1.00  0.00     0.048 C 
HETATM   10  C19         0       6.142  93.460   1.054  1.00  0.00     0.096 C 
HETATM   11  C21         0       5.215  92.565   1.514  1.00  0.00     0.084 C 
ENDROOT
BRANCH  10  12
HETATM   12  O20         0       5.902  94.814   1.266  1.00  0.00    -0.359 OA
HETATM   13  H20         0       5.832  95.119   2.163  1.00  0.00     0.218 HD
ENDBRANCH  10  12
BRANCH   4  14
HETATM   14  C5          0       2.737  89.645   3.054  1.00  0.00     0.025 C 
HETATM   15  C6          0       2.119  88.538   2.490  1.00  0.00     0.004 C 
HETATM   16  C7          0       2.230  87.325   3.162  1.00  0.00     0.026 C 
HETATM   17  C8          0       2.821  87.239   4.418  1.00  0.00     0.112 C 
HETATM   18  C10         0       2.821  88.424   5.141  1.00  0.00     0.112 C 
HETATM   19  C12         0       2.795  89.624   4.442  1.00  0.00     0.028 C 
BRANCH  17  20
HETATM   20  O9          0       3.527  86.109   4.793  1.00  0.00    -0.357 OA
HETATM   21  H9          0       3.752  85.902   5.693  1.00  0.00     0.218 HD
ENDBRANCH  17  20
BRANCH  18  22
HETATM   22  O11         0       3.224  88.351   6.467  1.00  0.00    -0.357 OA
HETATM   23  H11         0       2.544  88.413   7.127  1.00  0.00     0.218 HD
ENDBRANCH  18  22
ENDBRANCH   4  14
BRANCH   8  24
HETATM   24  O17         0       9.067  91.363   1.473  1.00  0.00    -0.359 OA
HETATM   25  H17         0       9.220  91.199   2.396  1.00  0.00     0.218 HD
ENDBRANCH   8  24
TORSDOF 5
ENDMDL
MODEL 7
REMARK VINA RESULT:      -5.2      2.622      3.785
REMARK  5 active torsions:
REMARK  status: ('A' for Active; 'I' for Inactive)
REMARK    1  A    between atoms: C4_4  and  C5_5 
REMARK    2  A    between atoms: C8_8  and  O9_9 
REMARK    3  A    between atoms: C10_11  and  O11_12 
REMARK    4  A    between atoms: C16_18  and  O17_19 
REMARK    5  A    between atoms: C19_22  and  O20_23 
ROOT
HETATM    1  O1          0      19.509  84.444   9.587  1.00  0.00    -0.286 OA
HETATM    2  C2          0      18.253  84.321   9.562  1.00  0.00     0.201 C 
HETATM    3  C3          0      17.620  83.090   9.543  1.00  0.00     0.067 C 
HETATM    4  C4          0      16.240  82.983   9.411  1.00  0.00     0.103 C 
HETATM    5  O13         0      15.523  84.089   9.323  1.00  0.00    -0.307 OA
HETATM    6  C14         0      16.077  85.281   9.298  1.00  0.00     0.107 C 
HETATM    7  C15         0      15.401  86.392   8.814  1.00  0.00     0.049 C 
HETATM    8  C16         0      16.065  87.584   8.553  1.00  0.00     0.093 C 
HETATM    9  C18         0      17.240  87.771   9.271  1.00  0.00     0.048 C 
HETATM   10  C19         0      17.918  86.685   9.810  1.00  0.00     0.096 C 
HETATM   11  C21         0      17.416  85.423   9.647  1.00  0.00     0.084 C 
ENDROOT
BRANCH  10  12
HETATM   12  O20         0      19.266  86.816  10.129  1.00  0.00    -0.359 OA
HETATM   13  H20         0      19.727  86.044  10.436  1.00  0.00     0.218 HD
ENDBRANCH  10  12
BRANCH   4  14
HETATM   14  C5          0      15.718  81.755   8.809  1.00  0.00     0.025 C 
HETATM   15  C6          0      14.513  81.183   9.191  1.00  0.00     0.004 C 
HETATM   16  C7          0      13.722  80.621   8.194  1.00  0.00     0.026 C 
HETATM   17  C8          0      14.171  80.509   6.883  1.00  0.00     0.112 C 
HETATM   18  C10         0      15.552  80.511   6.740  1.00  0.00     0.112 C 
HETATM   19  C12         0      16.315  81.154   7.708  1.00  0.00     0.028 C 
BRANCH  17  20
HETATM   20  O9          0      13.289  80.607   5.821  1.00  0.00    -0.357 OA
HETATM   21  H9          0      12.344  80.603   5.918  1.00  0.00     0.218 HD
ENDBRANCH  17  20
BRANCH  18  22
HETATM   22  O11         0      16.055  80.213   5.482  1.00  0.00    -0.357 OA
HETATM   23  H11         0      16.357  80.945   4.956  1.00  0.00     0.218 HD
ENDBRANCH  18  22
ENDBRANCH   4  14
BRANCH   8  24
HETATM   24  O17         0      15.760  88.358   7.428  1.00  0.00    -0.359 OA
HETATM   25  H17         0      15.249  89.156   7.494  1.00  0.00     0.218 HD
ENDBRANCH   8  24
TORSDOF 5
ENDMDL
MODEL 8
REMARK VINA RESULT:      -5.2     14.277     15.284
REMARK  5 active torsions:
REMARK  status: ('A' for Active; 'I' for Inactive)
REMARK    1  A    between atoms: C4_4  and  C5_5 
REMARK    2  A    between atoms: C8_8  and  O9_9 
REMARK    3  A    between atoms: C10_11  and  O11_12 
REMARK    4  A    between atoms: C16_18  and  O17_19 
REMARK    5  A    between atoms: C19_22  and  O20_23 
ROOT
HETATM    1  O1          0       7.158  90.780   0.249  1.00  0.00    -0.286 OA
HETATM    2  C2          0       6.770  90.884   1.445  1.00  0.00     0.201 C 
HETATM    3  C3          0       5.961  89.942   2.056  1.00  0.00     0.067 C 
HETATM    4  C4          0       5.463  90.132   3.340  1.00  0.00     0.103 C 
HETATM    5  O13         0       5.792  91.233   3.992  1.00  0.00    -0.307 OA
HETATM    6  C14         0       6.526  92.177   3.445  1.00  0.00     0.107 C 
HETATM    7  C15         0       6.543  93.471   3.943  1.00  0.00     0.049 C 
HETATM    8  C16         0       7.110  94.515   3.221  1.00  0.00     0.093 C 
HETATM    9  C18         0       8.080  94.134   2.302  1.00  0.00     0.048 C 
HETATM   10  C19         0       8.121  92.833   1.818  1.00  0.00     0.096 C 
HETATM   11  C21         0       7.209  91.915   2.262  1.00  0.00     0.084 C 
ENDROOT
BRANCH  10  12
HETATM   12  O20         0       8.777  92.574   0.618  1.00  0.00    -0.359 OA
HETATM   13  H20         0       8.314  92.075  -0.044  1.00  0.00     0.218 HD
ENDBRANCH  10  12
BRANCH   4  14
HETATM   14  C5          0       4.204  89.464   3.676  1.00  0.00     0.025 C 
HETATM   15  C6          0       3.061  89.578   2.899  1.00  0.00     0.004 C 
HETATM   16  C7          0       2.268  88.445   2.747  1.00  0.00     0.026 C 
HETATM   17  C8          0       2.528  87.274   3.451  1.00  0.00     0.112 C 
HETATM   18  C10         0       3.253  87.450   4.622  1.00  0.00     0.112 C 
HETATM   19  C12         0       4.102  88.546   4.714  1.00  0.00     0.028 C 
BRANCH  17  20
HETATM   20  O9          0       2.257  86.037   2.894  1.00  0.00    -0.357 OA
HETATM   21  H9          0       2.702  85.236   3.146  1.00  0.00     0.218 HD
ENDBRANCH  17  20
BRANCH  18  22
HETATM   22  O11         0       3.376  86.349   5.457  1.00  0.00    -0.357 OA
HETATM   23  H11         0       3.830  86.482   6.281  1.00  0.00     0.218 HD
ENDBRANCH  18  22
ENDBRANCH   4  14
BRANCH   8  24
HETATM   24  O17         0       6.517  95.782   3.182  1.00  0.00    -0.359 OA
HETATM   25  H17         0       6.673  96.384   2.465  1.00  0.00     0.218 HD
ENDBRANCH   8  24
TORSDOF 5
ENDMDL
MODEL 9
REMARK VINA RESULT:      -5.1     14.706     16.555
REMARK  5 active torsions:
REMARK  status: ('A' for Active; 'I' for Inactive)
REMARK    1  A    between atoms: C4_4  and  C5_5 
REMARK    2  A    between atoms: C8_8  and  O9_9 
REMARK    3  A    between atoms: C10_11  and  O11_12 
REMARK    4  A    between atoms: C16_18  and  O17_19 
REMARK    5  A    between atoms: C19_22  and  O20_23 
ROOT
HETATM    1  O1          0       4.450  89.138   7.374  1.00  0.00    -0.286 OA
HETATM    2  C2          0       3.399  89.264   6.686  1.00  0.00     0.201 C 
HETATM    3  C3          0       3.211  88.614   5.479  1.00  0.00     0.067 C 
HETATM    4  C4          0       2.089  88.849   4.692  1.00  0.00     0.103 C 
HETATM    5  O13         0       1.176  89.700   5.127  1.00  0.00    -0.307 OA
HETATM    6  C14         0       1.324  90.372   6.248  1.00  0.00     0.107 C 
HETATM    7  C15         0       0.601  91.527   6.508  1.00  0.00     0.049 C 
HETATM    8  C16         0       0.938  92.366   7.564  1.00  0.00     0.093 C 
HETATM    9  C18         0       1.628  91.754   8.603  1.00  0.00     0.048 C 
HETATM   10  C19         0       2.323  90.572   8.388  1.00  0.00     0.096 C 
HETATM   11  C21         0       2.315  89.995   7.147  1.00  0.00     0.084 C 
ENDROOT
BRANCH  10  12
HETATM   12  O20         0       3.337  90.209   9.269  1.00  0.00    -0.359 OA
HETATM   13  H20         0       3.096  89.730  10.053  1.00  0.00     0.218 HD
ENDBRANCH  10  12
BRANCH   4  14
HETATM   14  C5          0       2.225  88.638   3.250  1.00  0.00     0.025 C 
HETATM   15  C6          0       1.916  87.434   2.634  1.00  0.00     0.004 C 
HETATM   16  C7          0       1.302  87.488   1.386  1.00  0.00     0.026 C 
HETATM   17  C8          0       1.123  88.691   0.712  1.00  0.00     0.112 C 
HETATM   18  C10         0       1.997  89.702   1.089  1.00  0.00     0.112 C 
HETATM   19  C12         0       2.531  89.670   2.372  1.00  0.00     0.028 C 
BRANCH  17  20
HETATM   20  O9          0       0.021  88.891  -0.100  1.00  0.00    -0.357 OA
HETATM   21  H9          0      -0.209  89.732  -0.480  1.00  0.00     0.218 HD
ENDBRANCH  17  20
BRANCH  18  22
HETATM   22  O11         0       1.989  90.858   0.321  1.00  0.00    -0.357 OA
HETATM   23  H11         0       2.455  91.609   0.671  1.00  0.00     0.218 HD
ENDBRANCH  18  22
ENDBRANCH   4  14
BRANCH   8  24
HETATM   24  O17         0       0.888  93.758   7.433  1.00  0.00    -0.359 OA
HETATM   25  H17         0       1.662  94.298   7.540  1.00  0.00     0.218 HD
ENDBRANCH   8  24
TORSDOF 5
ENDMDL
