MODEL 1
REMARK VINA RESULT:      -8.8      0.000      0.000
REMARK  5 active torsions:
REMARK  status: ('A' for Active; 'I' for Inactive)
REMARK    1  A    between atoms: C4_4  and  C5_5 
REMARK    2  A    between atoms: C8_8  and  O9_9 
REMARK    3  A    between atoms: C10_11  and  O11_12 
REMARK    4  A    between atoms: C16_18  and  O17_19 
REMARK    5  A    between atoms: C19_22  and  O20_23 
ROOT
HETATM    1  O1          0      46.285  50.625  -8.146  1.00  0.00    -0.286 OA
HETATM    2  C2          0      45.718  49.508  -8.302  1.00  0.00     0.201 C 
HETATM    3  C3          0      45.483  48.634  -7.255  1.00  0.00     0.067 C 
HETATM    4  C4          0      44.950  47.368  -7.469  1.00  0.00     0.103 C 
HETATM    5  O13         0      44.646  47.007  -8.704  1.00  0.00    -0.307 OA
HETATM    6  C14         0      44.884  47.785  -9.738  1.00  0.00     0.107 C 
HETATM    7  C15         0      44.948  47.283 -11.030  1.00  0.00     0.049 C 
HETATM    8  C16         0      45.447  48.049 -12.077  1.00  0.00     0.093 C 
HETATM    9  C18         0      45.363  49.423 -11.891  1.00  0.00     0.048 C 
HETATM   10  C19         0      45.251  49.957 -10.614  1.00  0.00     0.096 C 
HETATM   11  C21         0      45.205  49.122  -9.531  1.00  0.00     0.084 C 
ENDROOT
BRANCH  10  12
HETATM   12  O20         0      45.602  51.286 -10.399  1.00  0.00    -0.359 OA
HETATM   13  H20         0      46.251  51.674 -10.974  1.00  0.00     0.218 HD
ENDBRANCH  10  12
BRANCH   4  14
HETATM   14  C5          0      45.281  46.328  -6.493  1.00  0.00     0.025 C 
HETATM   15  C6          0      46.269  45.379  -6.710  1.00  0.00     0.004 C 
HETATM   16  C7          0      47.058  45.010  -5.625  1.00  0.00     0.026 C 
HETATM   17  C8          0      46.789  45.466  -4.339  1.00  0.00     0.112 C 
HETATM   18  C10         0      45.475  45.860  -4.127  1.00  0.00     0.112 C 
HETATM   19  C12         0      44.735  46.305  -5.216  1.00  0.00     0.028 C 
BRANCH  17  20
HETATM   20  O9          0      47.815  45.695  -3.440  1.00  0.00    -0.357 OA
HETATM   21  H9          0      48.666  45.277  -3.492  1.00  0.00     0.218 HD
ENDBRANCH  17  20
BRANCH  18  22
HETATM   22  O11         0      45.107  46.143  -2.819  1.00  0.00    -0.357 OA
HETATM   23  H11         0      45.605  45.718  -2.131  1.00  0.00     0.218 HD
ENDBRANCH  18  22
ENDBRANCH   4  14
BRANCH   8  24
HETATM   24  O17         0      46.263  47.488 -13.066  1.00  0.00    -0.359 OA
HETATM   25  H17         0      46.153  47.702 -13.984  1.00  0.00     0.218 HD
ENDBRANCH   8  24
TORSDOF 5
ENDMDL
MODEL 2
REMARK VINA RESULT:      -8.0      2.282      6.640
REMARK  5 active torsions:
REMARK  status: ('A' for Active; 'I' for Inactive)
REMARK    1  A    between atoms: C4_4  and  C5_5 
REMARK    2  A    between atoms: C8_8  and  O9_9 
REMARK    3  A    between atoms: C10_11  and  O11_12 
REMARK    4  A    between atoms: C16_18  and  O17_19 
REMARK    5  A    between atoms: C19_22  and  O20_23 
ROOT
HETATM    1  O1          0      44.853  47.836  -5.997  1.00  0.00    -0.286 OA
HETATM    2  C2          0      44.734  47.271  -7.118  1.00  0.00     0.201 C 
HETATM    3  C3          0      45.315  47.766  -8.273  1.00  0.00     0.067 C 
HETATM    4  C4          0      45.083  47.181  -9.513  1.00  0.00     0.103 C 
HETATM    5  O13         0      44.305  46.115  -9.577  1.00  0.00    -0.307 OA
HETATM    6  C14         0      43.699  45.628  -8.517  1.00  0.00     0.107 C 
HETATM    7  C15         0      42.597  44.791  -8.625  1.00  0.00     0.049 C 
HETATM    8  C16         0      41.811  44.487  -7.520  1.00  0.00     0.093 C 
HETATM    9  C18         0      42.454  44.600  -6.293  1.00  0.00     0.048 C 
HETATM   10  C19         0      43.587  45.392  -6.161  1.00  0.00     0.096 C 
HETATM   11  C21         0      44.084  46.053  -7.250  1.00  0.00     0.084 C 
ENDROOT
BRANCH  10  12
HETATM   12  O20         0      43.956  45.844  -4.898  1.00  0.00    -0.359 OA
HETATM   13  H20         0      44.822  46.221  -4.796  1.00  0.00     0.218 HD
ENDBRANCH  10  12
BRANCH   4  14
HETATM   14  C5          0      45.197  48.043 -10.692  1.00  0.00     0.025 C 
HETATM   15  C6          0      45.364  49.417 -10.605  1.00  0.00     0.004 C 
HETATM   16  C7          0      46.212  50.023 -11.526  1.00  0.00     0.026 C 
HETATM   17  C8          0      46.772  49.310 -12.580  1.00  0.00     0.112 C 
HETATM   18  C10         0      46.073  48.167 -12.944  1.00  0.00     0.112 C 
HETATM   19  C12         0      45.299  47.533 -11.979  1.00  0.00     0.028 C 
BRANCH  17  20
HETATM   20  O9          0      48.032  49.625 -13.060  1.00  0.00    -0.357 OA
HETATM   21  H9          0      48.265  50.478 -13.410  1.00  0.00     0.218 HD
ENDBRANCH  17  20
BRANCH  18  22
HETATM   22  O11         0      46.479  47.525 -14.105  1.00  0.00    -0.357 OA
HETATM   23  H11         0      46.907  48.058 -14.764  1.00  0.00     0.218 HD
ENDBRANCH  18  22
ENDBRANCH   4  14
BRANCH   8  24
HETATM   24  O17         0      40.417  44.410  -7.616  1.00  0.00    -0.359 OA
HETATM   25  H17         0      39.865  44.373  -6.843  1.00  0.00     0.218 HD
ENDBRANCH   8  24
TORSDOF 5
ENDMDL
MODEL 3
REMARK VINA RESULT:      -7.9      3.187      5.930
REMARK  5 active torsions:
REMARK  status: ('A' for Active; 'I' for Inactive)
REMARK    1  A    between atoms: C4_4  and  C5_5 
REMARK    2  A    between atoms: C8_8  and  O9_9 
REMARK    3  A    between atoms: C10_11  and  O11_12 
REMARK    4  A    between atoms: C16_18  and  O17_19 
REMARK    5  A    between atoms: C19_22  and  O20_23 
ROOT
HETATM    1  O1          0      45.016  47.747 -15.590  1.00  0.00    -0.286 OA
HETATM    2  C2          0      44.804  47.357 -14.409  1.00  0.00     0.201 C 
HETATM    3  C3          0      44.977  48.176 -13.306  1.00  0.00     0.067 C 
HETATM    4  C4          0      44.835  47.692 -12.010  1.00  0.00     0.103 C 
HETATM    5  O13         0      44.508  46.424 -11.838  1.00  0.00    -0.307 OA
HETATM    6  C14         0      44.369  45.595 -12.850  1.00  0.00     0.107 C 
HETATM    7  C15         0      44.425  44.219 -12.680  1.00  0.00     0.049 C 
HETATM    8  C16         0      44.533  43.361 -13.768  1.00  0.00     0.093 C 
HETATM    9  C18         0      44.056  43.873 -14.969  1.00  0.00     0.048 C 
HETATM   10  C19         0      43.943  45.244 -15.155  1.00  0.00     0.096 C 
HETATM   11  C21         0      44.288  46.098 -14.143  1.00  0.00     0.084 C 
ENDROOT
BRANCH  10  12
HETATM   12  O20         0      43.894  45.753 -16.450  1.00  0.00    -0.359 OA
HETATM   13  H20         0      44.591  46.335 -16.726  1.00  0.00     0.218 HD
ENDBRANCH  10  12
BRANCH   4  14
HETATM   14  C5          0      45.585  48.376 -10.954  1.00  0.00     0.025 C 
HETATM   15  C6          0      46.217  49.595 -11.150  1.00  0.00     0.004 C 
HETATM   16  C7          0      46.182  50.514 -10.106  1.00  0.00     0.026 C 
HETATM   17  C8          0      45.655  50.185  -8.862  1.00  0.00     0.112 C 
HETATM   18  C10         0      45.644  48.826  -8.578  1.00  0.00     0.112 C 
HETATM   19  C12         0      45.593  47.930  -9.639  1.00  0.00     0.028 C 
BRANCH  17  20
HETATM   20  O9          0      45.009  51.136  -8.092  1.00  0.00    -0.357 OA
HETATM   21  H9          0      44.067  51.262  -8.088  1.00  0.00     0.218 HD
ENDBRANCH  17  20
BRANCH  18  22
HETATM   22  O11         0      45.306  48.458  -7.284  1.00  0.00    -0.357 OA
HETATM   23  H11         0      45.508  47.566  -7.024  1.00  0.00     0.218 HD
ENDBRANCH  18  22
ENDBRANCH   4  14
BRANCH   8  24
HETATM   24  O17         0      45.355  42.229 -13.726  1.00  0.00    -0.359 OA
HETATM   25  H17         0      46.039  42.133 -13.073  1.00  0.00     0.218 HD
ENDBRANCH   8  24
TORSDOF 5
ENDMDL
MODEL 4
REMARK VINA RESULT:      -7.7      1.804      3.020
REMARK  5 active torsions:
REMARK  status: ('A' for Active; 'I' for Inactive)
REMARK    1  A    between atoms: C4_4  and  C5_5 
REMARK    2  A    between atoms: C8_8  and  O9_9 
REMARK    3  A    between atoms: C10_11  and  O11_12 
REMARK    4  A    between atoms: C16_18  and  O17_19 
REMARK    5  A    between atoms: C19_22  and  O20_23 
ROOT
HETATM    1  O1          0      46.651  49.991 -11.925  1.00  0.00    -0.286 OA
HETATM    2  C2          0      45.962  49.083 -11.384  1.00  0.00     0.201 C 
HETATM    3  C3          0      45.786  48.991 -10.014  1.00  0.00     0.067 C 
HETATM    4  C4          0      45.108  47.923  -9.437  1.00  0.00     0.103 C 
HETATM    5  O13         0      44.605  46.989 -10.225  1.00  0.00    -0.307 OA
HETATM    6  C14         0      44.776  47.010 -11.529  1.00  0.00     0.107 C 
HETATM    7  C15         0      44.614  45.871 -12.305  1.00  0.00     0.049 C 
HETATM    8  C16         0      45.038  45.833 -13.628  1.00  0.00     0.093 C 
HETATM    9  C18         0      45.115  47.070 -14.255  1.00  0.00     0.048 C 
HETATM   10  C19         0      45.231  48.234 -13.507  1.00  0.00     0.096 C 
HETATM   11  C21         0      45.251  48.164 -12.141  1.00  0.00     0.084 C 
ENDROOT
BRANCH  10  12
HETATM   12  O20         0      45.736  49.383 -14.109  1.00  0.00    -0.359 OA
HETATM   13  H20         0      46.676  49.514 -14.098  1.00  0.00     0.218 HD
ENDBRANCH  10  12
BRANCH   4  14
HETATM   14  C5          0      45.465  47.567  -8.062  1.00  0.00     0.025 C 
HETATM   15  C6          0      45.172  48.378  -6.975  1.00  0.00     0.004 C 
HETATM   16  C7          0      44.778  47.756  -5.794  1.00  0.00     0.026 C 
HETATM   17  C8          0      44.805  46.372  -5.655  1.00  0.00     0.112 C 
HETATM   18  C10         0      45.678  45.720  -6.514  1.00  0.00     0.112 C 
HETATM   19  C12         0      45.988  46.325  -7.726  1.00  0.00     0.028 C 
BRANCH  17  20
HETATM   20  O9          0      43.871  45.721  -4.869  1.00  0.00    -0.357 OA
HETATM   21  H9          0      43.868  45.751  -3.919  1.00  0.00     0.218 HD
ENDBRANCH  17  20
BRANCH  18  22
HETATM   22  O11         0      45.884  44.366  -6.292  1.00  0.00    -0.357 OA
HETATM   23  H11         0      45.459  43.985  -5.532  1.00  0.00     0.218 HD
ENDBRANCH  18  22
ENDBRANCH   4  14
BRANCH   8  24
HETATM   24  O17         0      45.654  44.697 -14.164  1.00  0.00    -0.359 OA
HETATM   25  H17         0      45.809  43.919 -13.641  1.00  0.00     0.218 HD
ENDBRANCH   8  24
TORSDOF 5
ENDMDL
MODEL 5
REMARK VINA RESULT:      -7.7      2.577      6.999
REMARK  5 active torsions:
REMARK  status: ('A' for Active; 'I' for Inactive)
REMARK    1  A    between atoms: C4_4  and  C5_5 
REMARK    2  A    between atoms: C8_8  and  O9_9 
REMARK    3  A    between atoms: C10_11  and  O11_12 
REMARK    4  A    between atoms: C16_18  and  O17_19 
REMARK    5  A    between atoms: C19_22  and  O20_23 
ROOT
HETATM    1  O1          0      45.463  51.085 -10.418  1.00  0.00    -0.286 OA
HETATM    2  C2          0      45.598  49.862 -10.699  1.00  0.00     0.201 C 
HETATM    3  C3          0      45.767  49.403 -11.994  1.00  0.00     0.067 C 
HETATM    4  C4          0      45.810  48.045 -12.286  1.00  0.00     0.103 C 
HETATM    5  O13         0      45.705  47.179 -11.293  1.00  0.00    -0.307 OA
HETATM    6  C14         0      45.505  47.560 -10.051  1.00  0.00     0.107 C 
HETATM    7  C15         0      45.003  46.693  -9.091  1.00  0.00     0.049 C 
HETATM    8  C16         0      44.557  47.158  -7.860  1.00  0.00     0.093 C 
HETATM    9  C18         0      45.111  48.365  -7.453  1.00  0.00     0.048 C 
HETATM   10  C19         0      45.664  49.237  -8.382  1.00  0.00     0.096 C 
HETATM   11  C21         0      45.678  48.897  -9.707  1.00  0.00     0.084 C 
ENDROOT
BRANCH  10  12
HETATM   12  O20         0      45.809  50.580  -8.051  1.00  0.00    -0.359 OA
HETATM   13  H20         0      46.182  51.161  -8.703  1.00  0.00     0.218 HD
ENDBRANCH  10  12
BRANCH   4  14
HETATM   14  C5          0      45.389  47.634 -13.627  1.00  0.00     0.025 C 
HETATM   15  C6          0      46.251  47.622 -14.714  1.00  0.00     0.004 C 
HETATM   16  C7          0      46.123  46.578 -15.625  1.00  0.00     0.026 C 
HETATM   17  C8          0      45.089  45.652 -15.534  1.00  0.00     0.112 C 
HETATM   18  C10         0      43.970  46.100 -14.845  1.00  0.00     0.112 C 
HETATM   19  C12         0      44.139  47.084 -13.879  1.00  0.00     0.028 C 
BRANCH  17  20
HETATM   20  O9          0      45.278  44.338 -15.921  1.00  0.00    -0.357 OA
HETATM   21  H9          0      46.119  43.980 -16.183  1.00  0.00     0.218 HD
ENDBRANCH  17  20
BRANCH  18  22
HETATM   22  O11         0      42.842  45.292 -14.886  1.00  0.00    -0.357 OA
HETATM   23  H11         0      42.719  44.688 -14.163  1.00  0.00     0.218 HD
ENDBRANCH  18  22
ENDBRANCH   4  14
BRANCH   8  24
HETATM   24  O17         0      43.408  46.634  -7.256  1.00  0.00    -0.359 OA
HETATM   25  H17         0      43.409  45.781  -6.838  1.00  0.00     0.218 HD
ENDBRANCH   8  24
TORSDOF 5
ENDMDL
MODEL 6
REMARK VINA RESULT:      -7.7      1.772      3.371
REMARK  5 active torsions:
REMARK  status: ('A' for Active; 'I' for Inactive)
REMARK    1  A    between atoms: C4_4  and  C5_5 
REMARK    2  A    between atoms: C8_8  and  O9_9 
REMARK    3  A    between atoms: C10_11  and  O11_12 
REMARK    4  A    between atoms: C16_18  and  O17_19 
REMARK    5  A    between atoms: C19_22  and  O20_23 
ROOT
HETATM    1  O1          0      43.578  44.953 -11.100  1.00  0.00    -0.286 OA
HETATM    2  C2          0      44.486  45.725 -10.684  1.00  0.00     0.201 C 
HETATM    3  C3          0      45.000  45.656  -9.401  1.00  0.00     0.067 C 
HETATM    4  C4          0      45.925  46.583  -8.935  1.00  0.00     0.103 C 
HETATM    5  O13         0      46.332  47.538  -9.753  1.00  0.00    -0.307 OA
HETATM    6  C14         0      45.849  47.672 -10.968  1.00  0.00     0.107 C 
HETATM    7  C15         0      45.956  48.863 -11.671  1.00  0.00     0.049 C 
HETATM    8  C16         0      45.231  49.082 -12.836  1.00  0.00     0.093 C 
HETATM    9  C18         0      44.850  47.931 -13.515  1.00  0.00     0.048 C 
HETATM   10  C19         0      44.777  46.713 -12.853  1.00  0.00     0.096 C 
HETATM   11  C21         0      45.099  46.642 -11.525  1.00  0.00     0.084 C 
ENDROOT
BRANCH  10  12
HETATM   12  O20         0      44.002  45.691 -13.392  1.00  0.00    -0.359 OA
HETATM   13  H20         0      43.384  45.251 -12.820  1.00  0.00     0.218 HD
ENDBRANCH  10  12
BRANCH   4  14
HETATM   14  C5          0      45.961  46.827  -7.492  1.00  0.00     0.025 C 
HETATM   15  C6          0      45.155  47.769  -6.869  1.00  0.00     0.004 C 
HETATM   16  C7          0      44.633  47.446  -5.621  1.00  0.00     0.026 C 
HETATM   17  C8          0      45.005  46.284  -4.953  1.00  0.00     0.112 C 
HETATM   18  C10         0      46.234  45.763  -5.337  1.00  0.00     0.112 C 
HETATM   19  C12         0      46.693  46.032  -6.621  1.00  0.00     0.028 C 
BRANCH  17  20
HETATM   20  O9          0      44.108  45.616  -4.139  1.00  0.00    -0.357 OA
HETATM   21  H9          0      44.080  44.670  -4.049  1.00  0.00     0.218 HD
ENDBRANCH  17  20
BRANCH  18  22
HETATM   22  O11         0      46.739  44.719  -4.576  1.00  0.00    -0.357 OA
HETATM   23  H11         0      47.664  44.751  -4.361  1.00  0.00     0.218 HD
ENDBRANCH  18  22
ENDBRANCH   4  14
BRANCH   8  24
HETATM   24  O17         0      44.649  50.325 -13.110  1.00  0.00    -0.359 OA
HETATM   25  H17         0      44.062  50.747 -12.495  1.00  0.00     0.218 HD
ENDBRANCH   8  24
TORSDOF 5
ENDMDL
MODEL 7
REMARK VINA RESULT:      -7.6      2.676      4.349
REMARK  5 active torsions:
REMARK  status: ('A' for Active; 'I' for Inactive)
REMARK    1  A    between atoms: C4_4  and  C5_5 
REMARK    2  A    between atoms: C8_8  and  O9_9 
REMARK    3  A    between atoms: C10_11  and  O11_12 
REMARK    4  A    between atoms: C16_18  and  O17_19 
REMARK    5  A    between atoms: C19_22  and  O20_23 
ROOT
HETATM    1  O1          0      45.074  48.994 -13.714  1.00  0.00    -0.286 OA
HETATM    2  C2          0      44.881  47.992 -12.973  1.00  0.00     0.201 C 
HETATM    3  C3          0      44.941  48.058 -11.591  1.00  0.00     0.067 C 
HETATM    4  C4          0      44.827  46.919 -10.802  1.00  0.00     0.103 C 
HETATM    5  O13         0      44.636  45.753 -11.394  1.00  0.00    -0.307 OA
HETATM    6  C14         0      44.609  45.630 -12.703  1.00  0.00     0.107 C 
HETATM    7  C15         0      44.811  44.407 -13.326  1.00  0.00     0.049 C 
HETATM    8  C16         0      45.034  44.323 -14.695  1.00  0.00     0.093 C 
HETATM    9  C18         0      44.529  45.383 -15.438  1.00  0.00     0.048 C 
HETATM   10  C19         0      44.271  46.607 -14.836  1.00  0.00     0.096 C 
HETATM   11  C21         0      44.500  46.766 -13.497  1.00  0.00     0.084 C 
ENDROOT
BRANCH  10  12
HETATM   12  O20         0      44.193  47.750 -15.626  1.00  0.00    -0.359 OA
HETATM   13  H20         0      44.801  48.457 -15.446  1.00  0.00     0.218 HD
ENDBRANCH  10  12
BRANCH   4  14
HETATM   14  C5          0      45.476  46.945  -9.490  1.00  0.00     0.025 C 
HETATM   15  C6          0      45.860  48.123  -8.865  1.00  0.00     0.004 C 
HETATM   16  C7          0      45.694  48.204  -7.486  1.00  0.00     0.026 C 
HETATM   17  C8          0      45.287  47.107  -6.734  1.00  0.00     0.112 C 
HETATM   18  C10         0      45.543  45.875  -7.321  1.00  0.00     0.112 C 
HETATM   19  C12         0      45.619  45.807  -8.707  1.00  0.00     0.028 C 
BRANCH  17  20
HETATM   20  O9          0      44.506  47.272  -5.605  1.00  0.00    -0.357 OA
HETATM   21  H9          0      43.595  47.007  -5.549  1.00  0.00     0.218 HD
ENDBRANCH  17  20
BRANCH  18  22
HETATM   22  O11         0      45.331  44.750  -6.538  1.00  0.00    -0.357 OA
HETATM   23  H11         0      45.347  43.908  -6.980  1.00  0.00     0.218 HD
ENDBRANCH  18  22
ENDBRANCH   4  14
BRANCH   8  24
HETATM   24  O17         0      45.973  43.432 -15.228  1.00  0.00    -0.359 OA
HETATM   25  H17         0      46.224  43.460 -16.143  1.00  0.00     0.218 HD
ENDBRANCH   8  24
TORSDOF 5
ENDMDL
MODEL 8
REMARK VINA RESULT:      -7.6      2.104      6.894
REMARK  5 active torsions:
REMARK  status: ('A' for Active; 'I' for Inactive)
REMARK    1  A    between atoms: C4_4  and  C5_5 
REMARK    2  A    between atoms: C8_8  and  O9_9 
REMARK    3  A    between atoms: C10_11  and  O11_12 
REMARK    4  A    between atoms: C16_18  and  O17_19 
REMARK    5  A    between atoms: C19_22  and  O20_23 
ROOT
HETATM    1  O1          0      45.571  48.919  -7.318  1.00  0.00    -0.286 OA
HETATM    2  C2          0      45.284  47.982  -8.112  1.00  0.00     0.201 C 
HETATM    3  C3          0      45.521  48.053  -9.475  1.00  0.00     0.067 C 
HETATM    4  C4          0      45.103  47.050 -10.341  1.00  0.00     0.103 C 
HETATM    5  O13         0      44.481  45.997  -9.839  1.00  0.00    -0.307 OA
HETATM    6  C14         0      44.198  45.896  -8.559  1.00  0.00     0.107 C 
HETATM    7  C15         0      43.224  45.025  -8.093  1.00  0.00     0.049 C 
HETATM    8  C16         0      42.751  45.103  -6.788  1.00  0.00     0.093 C 
HETATM    9  C18         0      43.629  45.683  -5.880  1.00  0.00     0.048 C 
HETATM   10  C19         0      44.644  46.522  -6.317  1.00  0.00     0.096 C 
HETATM   11  C21         0      44.793  46.769  -7.654  1.00  0.00     0.084 C 
ENDROOT
BRANCH  10  12
HETATM   12  O20         0      45.219  47.418  -5.421  1.00  0.00    -0.359 OA
HETATM   13  H20         0      46.005  47.146  -4.961  1.00  0.00     0.218 HD
ENDBRANCH  10  12
BRANCH   4  14
HETATM   14  C5          0      44.834  47.432 -11.729  1.00  0.00     0.025 C 
HETATM   15  C6          0      45.093  48.702 -12.222  1.00  0.00     0.004 C 
HETATM   16  C7          0      45.588  48.802 -13.518  1.00  0.00     0.026 C 
HETATM   17  C8          0      45.697  47.689 -14.345  1.00  0.00     0.112 C 
HETATM   18  C10         0      44.855  46.636 -14.013  1.00  0.00     0.112 C 
HETATM   19  C12         0      44.443  46.511 -12.692  1.00  0.00     0.028 C 
BRANCH  17  20
HETATM   20  O9          0      46.717  47.593 -15.275  1.00  0.00    -0.357 OA
HETATM   21  H9          0      47.633  47.490 -15.044  1.00  0.00     0.218 HD
ENDBRANCH  17  20
BRANCH  18  22
HETATM   22  O11         0      44.785  45.580 -14.911  1.00  0.00    -0.357 OA
HETATM   23  H11         0      44.014  45.536 -15.464  1.00  0.00     0.218 HD
ENDBRANCH  18  22
ENDBRANCH   4  14
BRANCH   8  24
HETATM   24  O17         0      41.395  44.930  -6.492  1.00  0.00    -0.359 OA
HETATM   25  H17         0      40.845  45.657  -6.224  1.00  0.00     0.218 HD
ENDBRANCH   8  24
TORSDOF 5
ENDMDL
MODEL 9
REMARK VINA RESULT:      -7.5      3.008      7.441
REMARK  5 active torsions:
REMARK  status: ('A' for Active; 'I' for Inactive)
REMARK    1  A    between atoms: C4_4  and  C5_5 
REMARK    2  A    between atoms: C8_8  and  O9_9 
REMARK    3  A    between atoms: C10_11  and  O11_12 
REMARK    4  A    between atoms: C16_18  and  O17_19 
REMARK    5  A    between atoms: C19_22  and  O20_23 
ROOT
HETATM    1  O1          0      44.951  50.414 -12.388  1.00  0.00    -0.286 OA
HETATM    2  C2          0      45.199  49.198 -12.161  1.00  0.00     0.201 C 
HETATM    3  C3          0      45.198  48.234 -13.154  1.00  0.00     0.067 C 
HETATM    4  C4          0      45.374  46.886 -12.861  1.00  0.00     0.103 C 
HETATM    5  O13         0      45.565  46.529 -11.603  1.00  0.00    -0.307 OA
HETATM    6  C14         0      45.537  47.400 -10.618  1.00  0.00     0.107 C 
HETATM    7  C15         0      45.336  47.009  -9.302  1.00  0.00     0.049 C 
HETATM    8  C16         0      45.055  47.938  -8.308  1.00  0.00     0.093 C 
HETATM    9  C18         0      45.502  49.228  -8.567  1.00  0.00     0.048 C 
HETATM   10  C19         0      45.758  49.638  -9.868  1.00  0.00     0.096 C 
HETATM   11  C21         0      45.585  48.760 -10.903  1.00  0.00     0.084 C 
ENDROOT
BRANCH  10  12
HETATM   12  O20         0      45.774  50.998 -10.162  1.00  0.00    -0.359 OA
HETATM   13  H20         0      45.669  51.610  -9.443  1.00  0.00     0.218 HD
ENDBRANCH  10  12
BRANCH   4  14
HETATM   14  C5          0      44.783  45.917 -13.786  1.00  0.00     0.025 C 
HETATM   15  C6          0      43.695  46.215 -14.594  1.00  0.00     0.004 C 
HETATM   16  C7          0      43.687  45.693 -15.883  1.00  0.00     0.026 C 
HETATM   17  C8          0      44.658  44.795 -16.313  1.00  0.00     0.112 C 
HETATM   18  C10         0      45.291  44.094 -15.294  1.00  0.00     0.112 C 
HETATM   19  C12         0      45.359  44.678 -14.035  1.00  0.00     0.028 C 
BRANCH  17  20
HETATM   20  O9          0      45.081  44.784 -17.630  1.00  0.00    -0.357 OA
HETATM   21  H9          0      45.647  44.115 -17.997  1.00  0.00     0.218 HD
ENDBRANCH  17  20
BRANCH  18  22
HETATM   22  O11         0      46.130  43.056 -15.673  1.00  0.00    -0.357 OA
HETATM   23  H11         0      46.221  42.333 -15.063  1.00  0.00     0.218 HD
ENDBRANCH  18  22
ENDBRANCH   4  14
BRANCH   8  24
HETATM   24  O17         0      44.114  47.672  -7.307  1.00  0.00    -0.359 OA
HETATM   25  H17         0      43.366  48.240  -7.161  1.00  0.00     0.218 HD
ENDBRANCH   8  24
TORSDOF 5
ENDMDL
