MODEL 1
REMARK VINA RESULT:      -5.7      0.000      0.000
REMARK  5 active torsions:
REMARK  status: ('A' for Active; 'I' for Inactive)
REMARK    1  A    between atoms: C4_4  and  C5_5 
REMARK    2  A    between atoms: C8_8  and  O9_9 
REMARK    3  A    between atoms: C10_11  and  O11_12 
REMARK    4  A    between atoms: C16_18  and  O17_19 
REMARK    5  A    between atoms: C19_22  and  O20_23 
ROOT
HETATM    1  O1          0      69.557  56.724  38.020  1.00  0.00    -0.286 OA
HETATM    2  C2          0      68.609  56.177  38.648  1.00  0.00     0.201 C 
HETATM    3  C3          0      67.712  55.311  38.047  1.00  0.00     0.067 C 
HETATM    4  C4          0      66.616  54.803  38.736  1.00  0.00     0.103 C 
HETATM    5  O13         0      66.447  55.146  40.001  1.00  0.00    -0.307 OA
HETATM    6  C14         0      67.248  55.994  40.608  1.00  0.00     0.107 C 
HETATM    7  C15         0      66.868  56.658  41.766  1.00  0.00     0.049 C 
HETATM    8  C16         0      67.602  57.730  42.257  1.00  0.00     0.093 C 
HETATM    9  C18         0      68.939  57.750  41.878  1.00  0.00     0.048 C 
HETATM   10  C19         0      69.362  57.058  40.751  1.00  0.00     0.096 C 
HETATM   11  C21         0      68.459  56.338  40.017  1.00  0.00     0.084 C 
ENDROOT
BRANCH  10  12
HETATM   12  O20         0      70.558  57.421  40.139  1.00  0.00    -0.359 OA
HETATM   13  H20         0      71.329  56.900  40.326  1.00  0.00     0.218 HD
ENDBRANCH  10  12
BRANCH   4  14
HETATM   14  C5          0      65.443  54.427  37.945  1.00  0.00     0.025 C 
HETATM   15  C6          0      64.144  54.698  38.351  1.00  0.00     0.004 C 
HETATM   16  C7          0      63.230  55.077  37.373  1.00  0.00     0.026 C 
HETATM   17  C8          0      63.557  55.058  36.022  1.00  0.00     0.112 C 
HETATM   18  C10         0      64.598  54.202  35.689  1.00  0.00     0.112 C 
HETATM   19  C12         0      65.546  53.907  36.662  1.00  0.00     0.028 C 
BRANCH  17  20
HETATM   20  O9          0      63.014  55.983  35.148  1.00  0.00    -0.357 OA
HETATM   21  H9          0      62.232  55.827  34.632  1.00  0.00     0.218 HD
ENDBRANCH  17  20
BRANCH  18  22
HETATM   22  O11         0      64.840  54.001  34.338  1.00  0.00    -0.357 OA
HETATM   23  H11         0      64.260  54.443  33.727  1.00  0.00     0.218 HD
ENDBRANCH  18  22
ENDBRANCH   4  14
BRANCH   8  24
HETATM   24  O17         0      66.974  58.859  42.796  1.00  0.00    -0.359 OA
HETATM   25  H17         0      66.688  58.887  43.701  1.00  0.00     0.218 HD
ENDBRANCH   8  24
TORSDOF 5
ENDMDL
MODEL 2
REMARK VINA RESULT:      -5.6      2.101      6.428
REMARK  5 active torsions:
REMARK  status: ('A' for Active; 'I' for Inactive)
REMARK    1  A    between atoms: C4_4  and  C5_5 
REMARK    2  A    between atoms: C8_8  and  O9_9 
REMARK    3  A    between atoms: C10_11  and  O11_12 
REMARK    4  A    between atoms: C16_18  and  O17_19 
REMARK    5  A    between atoms: C19_22  and  O20_23 
ROOT
HETATM    1  O1          0      65.617  56.447  41.122  1.00  0.00    -0.286 OA
HETATM    2  C2          0      66.421  56.037  40.240  1.00  0.00     0.201 C 
HETATM    3  C3          0      67.682  56.582  40.064  1.00  0.00     0.067 C 
HETATM    4  C4          0      68.509  56.182  39.020  1.00  0.00     0.103 C 
HETATM    5  O13         0      68.079  55.246  38.193  1.00  0.00    -0.307 OA
HETATM    6  C14         0      66.877  54.723  38.293  1.00  0.00     0.107 C 
HETATM    7  C15         0      66.278  54.059  37.232  1.00  0.00     0.049 C 
HETATM    8  C16         0      64.926  53.736  37.253  1.00  0.00     0.093 C 
HETATM    9  C18         0      64.371  53.618  38.522  1.00  0.00     0.048 C 
HETATM   10  C19         0      64.971  54.230  39.614  1.00  0.00     0.096 C 
HETATM   11  C21         0      66.127  54.941  39.444  1.00  0.00     0.084 C 
ENDROOT
BRANCH  10  12
HETATM   12  O20         0      64.214  54.478  40.755  1.00  0.00    -0.359 OA
HETATM   13  H20         0      64.366  53.934  41.518  1.00  0.00     0.218 HD
ENDBRANCH  10  12
BRANCH   4  14
HETATM   14  C5          0      69.492  57.153  38.536  1.00  0.00     0.025 C 
HETATM   15  C6          0      69.917  58.235  39.294  1.00  0.00     0.004 C 
HETATM   16  C7          0      71.260  58.589  39.215  1.00  0.00     0.026 C 
HETATM   17  C8          0      72.124  57.978  38.313  1.00  0.00     0.112 C 
HETATM   18  C10         0      71.502  57.403  37.212  1.00  0.00     0.112 C 
HETATM   19  C12         0      70.185  56.979  37.345  1.00  0.00     0.028 C 
BRANCH  17  20
HETATM   20  O9          0      73.459  57.790  38.626  1.00  0.00    -0.357 OA
HETATM   21  H9          0      73.780  57.662  39.511  1.00  0.00     0.218 HD
ENDBRANCH  17  20
BRANCH  18  22
HETATM   22  O11         0      72.325  56.947  36.192  1.00  0.00    -0.357 OA
HETATM   23  H11         0      72.226  57.361  35.343  1.00  0.00     0.218 HD
ENDBRANCH  18  22
ENDBRANCH   4  14
BRANCH   8  24
HETATM   24  O17         0      64.129  53.858  36.110  1.00  0.00    -0.359 OA
HETATM   25  H17         0      63.522  54.580  35.999  1.00  0.00     0.218 HD
ENDBRANCH   8  24
TORSDOF 5
ENDMDL
MODEL 3
REMARK VINA RESULT:      -5.6      3.863      6.389
REMARK  5 active torsions:
REMARK  status: ('A' for Active; 'I' for Inactive)
REMARK    1  A    between atoms: C4_4  and  C5_5 
REMARK    2  A    between atoms: C8_8  and  O9_9 
REMARK    3  A    between atoms: C10_11  and  O11_12 
REMARK    4  A    between atoms: C16_18  and  O17_19 
REMARK    5  A    between atoms: C19_22  and  O20_23 
ROOT
HETATM    1  O1          0      69.021  57.497  35.493  1.00  0.00    -0.286 OA
HETATM    2  C2          0      67.814  57.386  35.143  1.00  0.00     0.201 C 
HETATM    3  C3          0      66.854  56.784  35.938  1.00  0.00     0.067 C 
HETATM    4  C4          0      65.555  56.583  35.486  1.00  0.00     0.103 C 
HETATM    5  O13         0      65.234  56.998  34.273  1.00  0.00    -0.307 OA
HETATM    6  C14         0      66.116  57.541  33.463  1.00  0.00     0.107 C 
HETATM    7  C15         0      65.907  57.607  32.094  1.00  0.00     0.049 C 
HETATM    8  C16         0      66.936  57.943  31.222  1.00  0.00     0.093 C 
HETATM    9  C18         0      67.960  58.696  31.785  1.00  0.00     0.048 C 
HETATM   10  C19         0      68.167  58.689  33.158  1.00  0.00     0.096 C 
HETATM   11  C21         0      67.347  57.949  33.965  1.00  0.00     0.084 C 
ENDROOT
BRANCH  10  12
HETATM   12  O20         0      69.409  59.067  33.660  1.00  0.00    -0.359 OA
HETATM   13  H20         0      70.165  58.548  33.413  1.00  0.00     0.218 HD
ENDBRANCH  10  12
BRANCH   4  14
HETATM   14  C5          0      64.807  55.469  36.071  1.00  0.00     0.025 C 
HETATM   15  C6          0      65.411  54.284  36.468  1.00  0.00     0.004 C 
HETATM   16  C7          0      64.942  53.680  37.630  1.00  0.00     0.026 C 
HETATM   17  C8          0      63.824  54.161  38.303  1.00  0.00     0.112 C 
HETATM   18  C10         0      62.953  54.906  37.520  1.00  0.00     0.112 C 
HETATM   19  C12         0      63.464  55.570  36.411  1.00  0.00     0.028 C 
BRANCH  17  20
HETATM   20  O9          0      63.731  54.067  39.680  1.00  0.00    -0.357 OA
HETATM   21  H9          0      62.910  53.974  40.148  1.00  0.00     0.218 HD
ENDBRANCH  17  20
BRANCH  18  22
HETATM   22  O11         0      61.734  55.249  38.088  1.00  0.00    -0.357 OA
HETATM   23  H11         0      60.966  55.182  37.532  1.00  0.00     0.218 HD
ENDBRANCH  18  22
ENDBRANCH   4  14
BRANCH   8  24
HETATM   24  O17         0      67.091  57.295  29.991  1.00  0.00    -0.359 OA
HETATM   25  H17         0      67.073  57.773  29.170  1.00  0.00     0.218 HD
ENDBRANCH   8  24
TORSDOF 5
ENDMDL
MODEL 4
REMARK VINA RESULT:      -5.5      1.756      6.715
REMARK  5 active torsions:
REMARK  status: ('A' for Active; 'I' for Inactive)
REMARK    1  A    between atoms: C4_4  and  C5_5 
REMARK    2  A    between atoms: C8_8  and  O9_9 
REMARK    3  A    between atoms: C10_11  and  O11_12 
REMARK    4  A    between atoms: C16_18  and  O17_19 
REMARK    5  A    between atoms: C19_22  and  O20_23 
ROOT
HETATM    1  O1          0      63.460  55.458  40.544  1.00  0.00    -0.286 OA
HETATM    2  C2          0      64.605  55.266  40.050  1.00  0.00     0.201 C 
HETATM    3  C3          0      65.751  55.852  40.560  1.00  0.00     0.067 C 
HETATM    4  C4          0      66.984  55.706  39.935  1.00  0.00     0.103 C 
HETATM    5  O13         0      67.057  54.970  38.840  1.00  0.00    -0.307 OA
HETATM    6  C14         0      65.994  54.422  38.294  1.00  0.00     0.107 C 
HETATM    7  C15         0      65.986  54.003  36.971  1.00  0.00     0.049 C 
HETATM    8  C16         0      64.801  53.665  36.329  1.00  0.00     0.093 C 
HETATM    9  C18         0      63.772  53.260  37.170  1.00  0.00     0.048 C 
HETATM   10  C19         0      63.773  53.623  38.510  1.00  0.00     0.096 C 
HETATM   11  C21         0      64.804  54.370  39.011  1.00  0.00     0.084 C 
ENDROOT
BRANCH  10  12
HETATM   12  O20         0      62.577  53.602  39.221  1.00  0.00    -0.359 OA
HETATM   13  H20         0      62.570  53.174  40.069  1.00  0.00     0.218 HD
ENDBRANCH  10  12
BRANCH   4  14
HETATM   14  C5          0      67.967  56.772  40.135  1.00  0.00     0.025 C 
HETATM   15  C6          0      68.150  57.408  41.355  1.00  0.00     0.004 C 
HETATM   16  C7          0      69.450  57.738  41.721  1.00  0.00     0.026 C 
HETATM   17  C8          0      70.520  57.565  40.849  1.00  0.00     0.112 C 
HETATM   18  C10         0      70.173  57.539  39.505  1.00  0.00     0.112 C 
HETATM   19  C12         0      68.892  57.124  39.161  1.00  0.00     0.028 C 
BRANCH  17  20
HETATM   20  O9          0      71.777  57.236  41.325  1.00  0.00    -0.357 OA
HETATM   21  H9          0      72.228  57.724  42.004  1.00  0.00     0.218 HD
ENDBRANCH  17  20
BRANCH  18  22
HETATM   22  O11         0      71.214  57.560  38.587  1.00  0.00    -0.357 OA
HETATM   23  H11         0      72.082  57.747  38.925  1.00  0.00     0.218 HD
ENDBRANCH  18  22
ENDBRANCH   4  14
BRANCH   8  24
HETATM   24  O17         0      64.564  54.026  34.998  1.00  0.00    -0.359 OA
HETATM   25  H17         0      65.203  53.861  34.314  1.00  0.00     0.218 HD
ENDBRANCH   8  24
TORSDOF 5
ENDMDL
MODEL 5
REMARK VINA RESULT:      -5.2      1.785      2.165
REMARK  5 active torsions:
REMARK  status: ('A' for Active; 'I' for Inactive)
REMARK    1  A    between atoms: C4_4  and  C5_5 
REMARK    2  A    between atoms: C8_8  and  O9_9 
REMARK    3  A    between atoms: C10_11  and  O11_12 
REMARK    4  A    between atoms: C16_18  and  O17_19 
REMARK    5  A    between atoms: C19_22  and  O20_23 
ROOT
HETATM    1  O1          0      69.671  57.066  37.880  1.00  0.00    -0.286 OA
HETATM    2  C2          0      68.819  56.502  38.620  1.00  0.00     0.201 C 
HETATM    3  C3          0      67.843  55.651  38.128  1.00  0.00     0.067 C 
HETATM    4  C4          0      66.854  55.124  38.951  1.00  0.00     0.103 C 
HETATM    5  O13         0      66.866  55.432  40.235  1.00  0.00    -0.307 OA
HETATM    6  C14         0      67.747  56.264  40.746  1.00  0.00     0.107 C 
HETATM    7  C15         0      67.535  56.896  41.964  1.00  0.00     0.049 C 
HETATM    8  C16         0      68.335  57.955  42.376  1.00  0.00     0.093 C 
HETATM    9  C18         0      69.604  57.986  41.812  1.00  0.00     0.048 C 
HETATM   10  C19         0      69.863  57.326  40.618  1.00  0.00     0.096 C 
HETATM   11  C21         0      68.863  56.625  40.000  1.00  0.00     0.084 C 
ENDROOT
BRANCH  10  12
HETATM   12  O20         0      70.962  57.706  39.854  1.00  0.00    -0.359 OA
HETATM   13  H20         0      71.034  57.358  38.974  1.00  0.00     0.218 HD
ENDBRANCH  10  12
BRANCH   4  14
HETATM   14  C5          0      65.580  54.768  38.323  1.00  0.00     0.025 C 
HETATM   15  C6          0      65.361  53.544  37.708  1.00  0.00     0.004 C 
HETATM   16  C7          0      64.109  52.959  37.866  1.00  0.00     0.026 C 
HETATM   17  C8          0      63.066  53.626  38.500  1.00  0.00     0.112 C 
HETATM   18  C10         0      63.179  55.010  38.501  1.00  0.00     0.112 C 
HETATM   19  C12         0      64.450  55.569  38.427  1.00  0.00     0.028 C 
BRANCH  17  20
HETATM   20  O9          0      62.126  52.932  39.240  1.00  0.00    -0.357 OA
HETATM   21  H9          0      61.518  53.345  39.842  1.00  0.00     0.218 HD
ENDBRANCH  17  20
BRANCH  18  22
HETATM   22  O11         0      62.081  55.730  38.950  1.00  0.00    -0.357 OA
HETATM   23  H11         0      61.936  56.583  38.557  1.00  0.00     0.218 HD
ENDBRANCH  18  22
ENDBRANCH   4  14
BRANCH   8  24
HETATM   24  O17         0      67.792  59.068  43.027  1.00  0.00    -0.359 OA
HETATM   25  H17         0      67.095  59.584  42.638  1.00  0.00     0.218 HD
ENDBRANCH   8  24
TORSDOF 5
ENDMDL
MODEL 6
REMARK VINA RESULT:      -5.0      2.236      6.185
REMARK  5 active torsions:
REMARK  status: ('A' for Active; 'I' for Inactive)
REMARK    1  A    between atoms: C4_4  and  C5_5 
REMARK    2  A    between atoms: C8_8  and  O9_9 
REMARK    3  A    between atoms: C10_11  and  O11_12 
REMARK    4  A    between atoms: C16_18  and  O17_19 
REMARK    5  A    between atoms: C19_22  and  O20_23 
ROOT
HETATM    1  O1          0      65.531  56.705  40.870  1.00  0.00    -0.286 OA
HETATM    2  C2          0      66.342  56.170  40.065  1.00  0.00     0.201 C 
HETATM    3  C3          0      67.616  56.665  39.842  1.00  0.00     0.067 C 
HETATM    4  C4          0      68.452  56.118  38.875  1.00  0.00     0.103 C 
HETATM    5  O13         0      68.018  55.088  38.171  1.00  0.00    -0.307 OA
HETATM    6  C14         0      66.805  54.603  38.316  1.00  0.00     0.107 C 
HETATM    7  C15         0      66.211  53.816  37.340  1.00  0.00     0.049 C 
HETATM    8  C16         0      64.854  53.520  37.378  1.00  0.00     0.093 C 
HETATM    9  C18         0      64.276  53.579  38.641  1.00  0.00     0.048 C 
HETATM   10  C19         0      64.868  54.320  39.654  1.00  0.00     0.096 C 
HETATM   11  C21         0      66.040  54.984  39.414  1.00  0.00     0.084 C 
ENDROOT
BRANCH  10  12
HETATM   12  O20         0      64.098  54.729  40.738  1.00  0.00    -0.359 OA
HETATM   13  H20         0      63.163  54.835  40.605  1.00  0.00     0.218 HD
ENDBRANCH  10  12
BRANCH   4  14
HETATM   14  C5          0      69.462  57.000  38.287  1.00  0.00     0.025 C 
HETATM   15  C6          0      69.805  56.959  36.943  1.00  0.00     0.004 C 
HETATM   16  C7          0      70.065  58.168  36.307  1.00  0.00     0.026 C 
HETATM   17  C8          0      70.115  59.367  37.010  1.00  0.00     0.112 C 
HETATM   18  C10         0      70.390  59.233  38.365  1.00  0.00     0.112 C 
HETATM   19  C12         0      70.042  58.044  38.995  1.00  0.00     0.028 C 
BRANCH  17  20
HETATM   20  O9          0      69.708  60.551  36.422  1.00  0.00    -0.357 OA
HETATM   21  H9          0      69.583  60.660  35.487  1.00  0.00     0.218 HD
ENDBRANCH  17  20
BRANCH  18  22
HETATM   22  O11         0      70.638  60.400  39.074  1.00  0.00    -0.357 OA
HETATM   23  H11         0      71.510  60.506  39.435  1.00  0.00     0.218 HD
ENDBRANCH  18  22
ENDBRANCH   4  14
BRANCH   8  24
HETATM   24  O17         0      64.078  53.503  36.214  1.00  0.00    -0.359 OA
HETATM   25  H17         0      64.474  53.482  35.351  1.00  0.00     0.218 HD
ENDBRANCH   8  24
TORSDOF 5
ENDMDL
MODEL 7
REMARK VINA RESULT:      -5.0      3.820      5.557
REMARK  5 active torsions:
REMARK  status: ('A' for Active; 'I' for Inactive)
REMARK    1  A    between atoms: C4_4  and  C5_5 
REMARK    2  A    between atoms: C8_8  and  O9_9 
REMARK    3  A    between atoms: C10_11  and  O11_12 
REMARK    4  A    between atoms: C16_18  and  O17_19 
REMARK    5  A    between atoms: C19_22  and  O20_23 
ROOT
HETATM    1  O1          0      67.094  57.332  37.939  1.00  0.00    -0.286 OA
HETATM    2  C2          0      66.622  56.711  36.947  1.00  0.00     0.201 C 
HETATM    3  C3          0      66.526  57.272  35.686  1.00  0.00     0.067 C 
HETATM    4  C4          0      65.908  56.604  34.635  1.00  0.00     0.103 C 
HETATM    5  O13         0      65.421  55.395  34.852  1.00  0.00    -0.307 OA
HETATM    6  C14         0      65.451  54.831  36.039  1.00  0.00     0.107 C 
HETATM    7  C15         0      64.614  53.775  36.369  1.00  0.00     0.049 C 
HETATM    8  C16         0      64.468  53.353  37.685  1.00  0.00     0.093 C 
HETATM    9  C18         0      65.540  53.649  38.519  1.00  0.00     0.048 C 
HETATM   10  C19         0      66.425  54.669  38.195  1.00  0.00     0.096 C 
HETATM   11  C21         0      66.250  55.378  37.038  1.00  0.00     0.084 C 
ENDROOT
BRANCH  10  12
HETATM   12  O20         0      67.201  55.240  39.199  1.00  0.00    -0.359 OA
HETATM   13  H20         0      67.956  55.754  38.939  1.00  0.00     0.218 HD
ENDBRANCH  10  12
BRANCH   4  14
HETATM   14  C5          0      65.317  57.422  33.575  1.00  0.00     0.025 C 
HETATM   15  C6          0      64.203  58.225  33.778  1.00  0.00     0.004 C 
HETATM   16  C7          0      64.175  59.462  33.141  1.00  0.00     0.026 C 
HETATM   17  C8          0      65.156  59.834  32.228  1.00  0.00     0.112 C 
HETATM   18  C10         0      65.828  58.774  31.635  1.00  0.00     0.112 C 
HETATM   19  C12         0      65.914  57.574  32.331  1.00  0.00     0.028 C 
BRANCH  17  20
HETATM   20  O9          0      65.547  61.156  32.107  1.00  0.00    -0.357 OA
HETATM   21  H9          0      66.087  61.607  32.745  1.00  0.00     0.218 HD
ENDBRANCH  17  20
BRANCH  18  22
HETATM   22  O11         0      66.680  59.080  30.583  1.00  0.00    -0.357 OA
HETATM   23  H11         0      67.411  59.656  30.776  1.00  0.00     0.218 HD
ENDBRANCH  18  22
ENDBRANCH   4  14
BRANCH   8  24
HETATM   24  O17         0      63.221  52.976  38.196  1.00  0.00    -0.359 OA
HETATM   25  H17         0      62.418  53.395  37.911  1.00  0.00     0.218 HD
ENDBRANCH   8  24
TORSDOF 5
ENDMDL
MODEL 8
REMARK VINA RESULT:      -4.9      3.132      5.183
REMARK  5 active torsions:
REMARK  status: ('A' for Active; 'I' for Inactive)
REMARK    1  A    between atoms: C4_4  and  C5_5 
REMARK    2  A    between atoms: C8_8  and  O9_9 
REMARK    3  A    between atoms: C10_11  and  O11_12 
REMARK    4  A    between atoms: C16_18  and  O17_19 
REMARK    5  A    between atoms: C19_22  and  O20_23 
ROOT
HETATM    1  O1          0      64.800  56.600  41.649  1.00  0.00    -0.286 OA
HETATM    2  C2          0      64.677  55.847  40.644  1.00  0.00     0.201 C 
HETATM    3  C3          0      65.494  55.943  39.530  1.00  0.00     0.067 C 
HETATM    4  C4          0      65.272  55.171  38.395  1.00  0.00     0.103 C 
HETATM    5  O13         0      64.267  54.314  38.397  1.00  0.00    -0.307 OA
HETATM    6  C14         0      63.439  54.210  39.414  1.00  0.00     0.107 C 
HETATM    7  C15         0      62.185  53.632  39.279  1.00  0.00     0.049 C 
HETATM    8  C16         0      61.224  53.752  40.276  1.00  0.00     0.093 C 
HETATM    9  C18         0      61.726  53.981  41.551  1.00  0.00     0.048 C 
HETATM   10  C19         0      62.996  54.515  41.723  1.00  0.00     0.096 C 
HETATM   11  C21         0      63.766  54.802  40.629  1.00  0.00     0.084 C 
ENDROOT
BRANCH  10  12
HETATM   12  O20         0      63.316  55.136  42.926  1.00  0.00    -0.359 OA
HETATM   13  H20         0      62.629  55.611  43.379  1.00  0.00     0.218 HD
ENDBRANCH  10  12
BRANCH   4  14
HETATM   14  C5          0      65.734  55.713  37.116  1.00  0.00     0.025 C 
HETATM   15  C6          0      65.817  54.948  35.961  1.00  0.00     0.004 C 
HETATM   16  C7          0      65.465  55.555  34.760  1.00  0.00     0.026 C 
HETATM   17  C8          0      65.170  56.912  34.687  1.00  0.00     0.112 C 
HETATM   18  C10         0      65.716  57.679  35.707  1.00  0.00     0.112 C 
HETATM   19  C12         0      65.979  57.067  36.926  1.00  0.00     0.028 C 
BRANCH  17  20
HETATM   20  O9          0      64.234  57.386  33.785  1.00  0.00    -0.357 OA
HETATM   21  H9          0      64.454  57.899  33.016  1.00  0.00     0.218 HD
ENDBRANCH  17  20
BRANCH  18  22
HETATM   22  O11         0      65.612  59.057  35.580  1.00  0.00    -0.357 OA
HETATM   23  H11         0      66.354  59.511  35.196  1.00  0.00     0.218 HD
ENDBRANCH  18  22
ENDBRANCH   4  14
BRANCH   8  24
HETATM   24  O17         0      59.875  53.963  39.967  1.00  0.00    -0.359 OA
HETATM   25  H17         0      59.610  54.443  39.191  1.00  0.00     0.218 HD
ENDBRANCH   8  24
TORSDOF 5
ENDMDL
MODEL 9
REMARK VINA RESULT:      -4.7      1.705      6.579
REMARK  5 active torsions:
REMARK  status: ('A' for Active; 'I' for Inactive)
REMARK    1  A    between atoms: C4_4  and  C5_5 
REMARK    2  A    between atoms: C8_8  and  O9_9 
REMARK    3  A    between atoms: C10_11  and  O11_12 
REMARK    4  A    between atoms: C16_18  and  O17_19 
REMARK    5  A    between atoms: C19_22  and  O20_23 
ROOT
HETATM    1  O1          0      64.857  53.661  39.437  1.00  0.00    -0.286 OA
HETATM    2  C2          0      65.743  54.432  38.977  1.00  0.00     0.201 C 
HETATM    3  C3          0      66.640  55.111  39.784  1.00  0.00     0.067 C 
HETATM    4  C4          0      67.539  56.033  39.260  1.00  0.00     0.103 C 
HETATM    5  O13         0      67.543  56.245  37.956  1.00  0.00    -0.307 OA
HETATM    6  C14         0      66.688  55.655  37.149  1.00  0.00     0.107 C 
HETATM    7  C15         0      66.417  56.152  35.883  1.00  0.00     0.049 C 
HETATM    8  C16         0      65.340  55.683  35.139  1.00  0.00     0.093 C 
HETATM    9  C18         0      64.914  54.402  35.466  1.00  0.00     0.048 C 
HETATM   10  C19         0      65.209  53.856  36.708  1.00  0.00     0.096 C 
HETATM   11  C21         0      65.938  54.579  37.612  1.00  0.00     0.084 C 
ENDROOT
BRANCH  10  12
HETATM   12  O20         0      64.439  52.800  37.187  1.00  0.00    -0.359 OA
HETATM   13  H20         0      64.730  51.916  36.997  1.00  0.00     0.218 HD
ENDBRANCH  10  12
BRANCH   4  14
HETATM   14  C5          0      67.996  57.103  40.150  1.00  0.00     0.025 C 
HETATM   15  C6          0      68.308  58.376  39.695  1.00  0.00     0.004 C 
HETATM   16  C7          0      67.950  59.453  40.500  1.00  0.00     0.026 C 
HETATM   17  C8          0      67.421  59.269  41.773  1.00  0.00     0.112 C 
HETATM   18  C10         0      67.735  58.051  42.360  1.00  0.00     0.112 C 
HETATM   19  C12         0      68.006  56.968  41.532  1.00  0.00     0.028 C 
BRANCH  17  20
HETATM   20  O9          0      66.490  60.153  42.288  1.00  0.00    -0.357 OA
HETATM   21  H9          0      65.588  60.200  41.995  1.00  0.00     0.218 HD
ENDBRANCH  17  20
BRANCH  18  22
HETATM   22  O11         0      67.394  57.891  43.696  1.00  0.00    -0.357 OA
HETATM   23  H11         0      66.575  58.279  43.980  1.00  0.00     0.218 HD
ENDBRANCH  18  22
ENDBRANCH   4  14
BRANCH   8  24
HETATM   24  O17         0      64.548  56.550  34.377  1.00  0.00    -0.359 OA
HETATM   25  H17         0      64.813  57.445  34.203  1.00  0.00     0.218 HD
ENDBRANCH   8  24
TORSDOF 5
ENDMDL
