MODEL 1
REMARK VINA RESULT:      -3.6      0.000      0.000
REMARK  5 active torsions:
REMARK  status: ('A' for Active; 'I' for Inactive)
REMARK    1  A    between atoms: C4_4  and  C5_5 
REMARK    2  A    between atoms: C8_8  and  O9_9 
REMARK    3  A    between atoms: C10_11  and  O11_12 
REMARK    4  A    between atoms: C16_18  and  O17_19 
REMARK    5  A    between atoms: C19_22  and  O20_23 
ROOT
HETATM    1  O1          0      33.279  82.425  20.812  1.00  0.00    -0.286 OA
HETATM    2  C2          0      33.352  81.629  21.788  1.00  0.00     0.201 C 
HETATM    3  C3          0      32.257  80.939  22.279  1.00  0.00     0.067 C 
HETATM    4  C4          0      32.344  80.148  23.418  1.00  0.00     0.103 C 
HETATM    5  O13         0      33.511  80.041  24.029  1.00  0.00    -0.307 OA
HETATM    6  C14         0      34.573  80.704  23.627  1.00  0.00     0.107 C 
HETATM    7  C15         0      35.661  80.918  24.462  1.00  0.00     0.049 C 
HETATM    8  C16         0      36.660  81.824  24.129  1.00  0.00     0.093 C 
HETATM    9  C18         0      36.795  82.074  22.768  1.00  0.00     0.048 C 
HETATM   10  C19         0      35.743  81.827  21.897  1.00  0.00     0.096 C 
HETATM   11  C21         0      34.567  81.318  22.380  1.00  0.00     0.084 C 
ENDROOT
BRANCH  10  12
HETATM   12  O20         0      35.718  82.465  20.661  1.00  0.00    -0.359 OA
HETATM   13  H20         0      35.120  83.193  20.548  1.00  0.00     0.218 HD
ENDBRANCH  10  12
BRANCH   4  14
HETATM   14  C5          0      31.120  79.960  24.199  1.00  0.00     0.025 C 
HETATM   15  C6          0      31.099  80.002  25.586  1.00  0.00     0.004 C 
HETATM   16  C7          0      30.003  80.606  26.195  1.00  0.00     0.026 C 
HETATM   17  C8          0      28.903  81.033  25.460  1.00  0.00     0.112 C 
HETATM   18  C10         0      28.740  80.396  24.237  1.00  0.00     0.112 C 
HETATM   19  C12         0      29.866  79.876  23.608  1.00  0.00     0.028 C 
BRANCH  17  20
HETATM   20  O9          0      28.180  82.147  25.848  1.00  0.00    -0.357 OA
HETATM   21  H9          0      27.304  82.343  25.535  1.00  0.00     0.218 HD
ENDBRANCH  17  20
BRANCH  18  22
HETATM   22  O11         0      27.561  80.646  23.550  1.00  0.00    -0.357 OA
HETATM   23  H11         0      27.622  80.728  22.605  1.00  0.00     0.218 HD
ENDBRANCH  18  22
ENDBRANCH   4  14
BRANCH   8  24
HETATM   24  O17         0      37.238  82.659  25.091  1.00  0.00    -0.359 OA
HETATM   25  H17         0      37.600  83.507  24.863  1.00  0.00     0.218 HD
ENDBRANCH   8  24
TORSDOF 5
ENDMDL
MODEL 2
REMARK VINA RESULT:      -3.5      2.317      7.233
REMARK  5 active torsions:
REMARK  status: ('A' for Active; 'I' for Inactive)
REMARK    1  A    between atoms: C4_4  and  C5_5 
REMARK    2  A    between atoms: C8_8  and  O9_9 
REMARK    3  A    between atoms: C10_11  and  O11_12 
REMARK    4  A    between atoms: C16_18  and  O17_19 
REMARK    5  A    between atoms: C19_22  and  O20_23 
ROOT
HETATM    1  O1          0      29.849  84.884  26.275  1.00  0.00    -0.286 OA
HETATM    2  C2          0      29.723  83.709  25.834  1.00  0.00     0.201 C 
HETATM    3  C3          0      30.805  82.891  25.558  1.00  0.00     0.067 C 
HETATM    4  C4          0      30.642  81.639  24.976  1.00  0.00     0.103 C 
HETATM    5  O13         0      29.419  81.220  24.703  1.00  0.00    -0.307 OA
HETATM    6  C14         0      28.360  81.972  24.911  1.00  0.00     0.107 C 
HETATM    7  C15         0      27.151  81.722  24.277  1.00  0.00     0.049 C 
HETATM    8  C16         0      26.120  82.653  24.298  1.00  0.00     0.093 C 
HETATM    9  C18         0      26.150  83.539  25.369  1.00  0.00     0.048 C 
HETATM   10  C19         0      27.333  83.776  26.055  1.00  0.00     0.096 C 
HETATM   11  C21         0      28.476  83.121  25.684  1.00  0.00     0.084 C 
ENDROOT
BRANCH  10  12
HETATM   12  O20         0      27.463  84.942  26.804  1.00  0.00    -0.359 OA
HETATM   13  H20         0      27.584  84.857  27.742  1.00  0.00     0.218 HD
ENDBRANCH  10  12
BRANCH   4  14
HETATM   14  C5          0      31.759  81.117  24.186  1.00  0.00     0.025 C 
HETATM   15  C6          0      31.581  80.272  23.100  1.00  0.00     0.004 C 
HETATM   16  C7          0      32.413  80.453  22.000  1.00  0.00     0.026 C 
HETATM   17  C8          0      33.474  81.353  22.028  1.00  0.00     0.112 C 
HETATM   18  C10         0      33.944  81.655  23.299  1.00  0.00     0.112 C 
HETATM   19  C12         0      33.067  81.547  24.371  1.00  0.00     0.028 C 
BRANCH  17  20
HETATM   20  O9          0      33.859  82.030  20.885  1.00  0.00    -0.357 OA
HETATM   21  H9          0      33.693  82.954  20.738  1.00  0.00     0.218 HD
ENDBRANCH  17  20
BRANCH  18  22
HETATM   22  O11         0      35.116  82.395  23.376  1.00  0.00    -0.357 OA
HETATM   23  H11         0      35.245  82.915  24.160  1.00  0.00     0.218 HD
ENDBRANCH  18  22
ENDBRANCH   4  14
BRANCH   8  24
HETATM   24  O17         0      25.331  82.892  23.167  1.00  0.00    -0.359 OA
HETATM   25  H17         0      24.514  82.430  23.022  1.00  0.00     0.218 HD
ENDBRANCH   8  24
TORSDOF 5
ENDMDL
MODEL 3
REMARK VINA RESULT:      -3.5      6.256      8.217
REMARK  5 active torsions:
REMARK  status: ('A' for Active; 'I' for Inactive)
REMARK    1  A    between atoms: C4_4  and  C5_5 
REMARK    2  A    between atoms: C8_8  and  O9_9 
REMARK    3  A    between atoms: C10_11  and  O11_12 
REMARK    4  A    between atoms: C16_18  and  O17_19 
REMARK    5  A    between atoms: C19_22  and  O20_23 
ROOT
HETATM    1  O1          0      29.650  87.873  20.990  1.00  0.00    -0.286 OA
HETATM    2  C2          0      30.860  87.721  20.668  1.00  0.00     0.201 C 
HETATM    3  C3          0      31.509  86.500  20.741  1.00  0.00     0.067 C 
HETATM    4  C4          0      32.869  86.381  20.479  1.00  0.00     0.103 C 
HETATM    5  O13         0      33.546  87.462  20.134  1.00  0.00    -0.307 OA
HETATM    6  C14         0      32.988  88.651  20.087  1.00  0.00     0.107 C 
HETATM    7  C15         0      33.742  89.815  20.124  1.00  0.00     0.049 C 
HETATM    8  C16         0      33.148  91.054  20.330  1.00  0.00     0.093 C 
HETATM    9  C18         0      31.808  91.131  19.968  1.00  0.00     0.048 C 
HETATM   10  C19         0      31.036  89.981  19.876  1.00  0.00     0.096 C 
HETATM   11  C21         0      31.602  88.761  20.127  1.00  0.00     0.084 C 
ENDROOT
BRANCH  10  12
HETATM   12  O20         0      29.650  90.084  19.948  1.00  0.00    -0.359 OA
HETATM   13  H20         0      29.131  89.367  19.605  1.00  0.00     0.218 HD
ENDBRANCH  10  12
BRANCH   4  14
HETATM   14  C5          0      33.582  85.280  21.129  1.00  0.00     0.025 C 
HETATM   15  C6          0      33.180  84.734  22.339  1.00  0.00     0.004 C 
HETATM   16  C7          0      33.299  83.357  22.496  1.00  0.00     0.026 C 
HETATM   17  C8          0      33.922  82.565  21.538  1.00  0.00     0.112 C 
HETATM   18  C10         0      34.818  83.240  20.720  1.00  0.00     0.112 C 
HETATM   19  C12         0      34.625  84.601  20.512  1.00  0.00     0.028 C 
BRANCH  17  20
HETATM   20  O9          0      33.501  81.267  21.308  1.00  0.00    -0.357 OA
HETATM   21  H9          0      33.740  80.762  20.540  1.00  0.00     0.218 HD
ENDBRANCH  17  20
BRANCH  18  22
HETATM   22  O11         0      35.603  82.469  19.876  1.00  0.00    -0.357 OA
HETATM   23  H11         0      36.104  81.768  20.276  1.00  0.00     0.218 HD
ENDBRANCH  18  22
ENDBRANCH   4  14
BRANCH   8  24
HETATM   24  O17         0      33.746  92.024  21.142  1.00  0.00    -0.359 OA
HETATM   25  H17         0      33.543  92.947  21.049  1.00  0.00     0.218 HD
ENDBRANCH   8  24
TORSDOF 5
ENDMDL
MODEL 4
REMARK VINA RESULT:      -3.5      3.869      6.251
REMARK  5 active torsions:
REMARK  status: ('A' for Active; 'I' for Inactive)
REMARK    1  A    between atoms: C4_4  and  C5_5 
REMARK    2  A    between atoms: C8_8  and  O9_9 
REMARK    3  A    between atoms: C10_11  and  O11_12 
REMARK    4  A    between atoms: C16_18  and  O17_19 
REMARK    5  A    between atoms: C19_22  and  O20_23 
ROOT
HETATM    1  O1          0      36.951  83.473  22.403  1.00  0.00    -0.286 OA
HETATM    2  C2          0      35.847  83.376  21.800  1.00  0.00     0.201 C 
HETATM    3  C3          0      35.312  84.406  21.045  1.00  0.00     0.067 C 
HETATM    4  C4          0      34.047  84.310  20.476  1.00  0.00     0.103 C 
HETATM    5  O13         0      33.355  83.197  20.649  1.00  0.00    -0.307 OA
HETATM    6  C14         0      33.801  82.205  21.388  1.00  0.00     0.107 C 
HETATM    7  C15         0      32.952  81.234  21.897  1.00  0.00     0.049 C 
HETATM    8  C16         0      33.378  80.343  22.875  1.00  0.00     0.093 C 
HETATM    9  C18         0      34.750  80.125  22.913  1.00  0.00     0.048 C 
HETATM   10  C19         0      35.627  81.054  22.370  1.00  0.00     0.096 C 
HETATM   11  C21         0      35.136  82.186  21.778  1.00  0.00     0.084 C 
ENDROOT
BRANCH  10  12
HETATM   12  O20         0      36.956  81.058  22.783  1.00  0.00    -0.359 OA
HETATM   13  H20         0      37.616  80.777  22.161  1.00  0.00     0.218 HD
ENDBRANCH  10  12
BRANCH   4  14
HETATM   14  C5          0      33.322  85.560  20.240  1.00  0.00     0.025 C 
HETATM   15  C6          0      31.968  85.706  20.502  1.00  0.00     0.004 C 
HETATM   16  C7          0      31.540  86.920  21.028  1.00  0.00     0.026 C 
HETATM   17  C8          0      32.404  88.001  21.165  1.00  0.00     0.112 C 
HETATM   18  C10         0      33.507  87.971  20.322  1.00  0.00     0.112 C 
HETATM   19  C12         0      33.966  86.737  19.878  1.00  0.00     0.028 C 
BRANCH  17  20
HETATM   20  O9          0      32.259  88.897  22.209  1.00  0.00    -0.357 OA
HETATM   21  H9          0      32.952  89.110  22.823  1.00  0.00     0.218 HD
ENDBRANCH  17  20
BRANCH  18  22
HETATM   22  O11         0      34.298  89.111  20.282  1.00  0.00    -0.357 OA
HETATM   23  H11         0      34.750  89.349  21.084  1.00  0.00     0.218 HD
ENDBRANCH  18  22
ENDBRANCH   4  14
BRANCH   8  24
HETATM   24  O17         0      32.544  79.971  23.936  1.00  0.00    -0.359 OA
HETATM   25  H17         0      32.659  79.147  24.395  1.00  0.00     0.218 HD
ENDBRANCH   8  24
TORSDOF 5
ENDMDL
MODEL 5
REMARK VINA RESULT:      -3.4      2.423      6.795
REMARK  5 active torsions:
REMARK  status: ('A' for Active; 'I' for Inactive)
REMARK    1  A    between atoms: C4_4  and  C5_5 
REMARK    2  A    between atoms: C8_8  and  O9_9 
REMARK    3  A    between atoms: C10_11  and  O11_12 
REMARK    4  A    between atoms: C16_18  and  O17_19 
REMARK    5  A    between atoms: C19_22  and  O20_23 
ROOT
HETATM    1  O1          0      32.352  83.543  25.603  1.00  0.00    -0.286 OA
HETATM    2  C2          0      32.491  82.794  24.597  1.00  0.00     0.201 C 
HETATM    3  C3          0      33.358  83.087  23.558  1.00  0.00     0.067 C 
HETATM    4  C4          0      33.417  82.298  22.414  1.00  0.00     0.103 C 
HETATM    5  O13         0      32.637  81.235  22.336  1.00  0.00    -0.307 OA
HETATM    6  C14         0      31.769  80.933  23.277  1.00  0.00     0.107 C 
HETATM    7  C15         0      30.696  80.087  23.038  1.00  0.00     0.049 C 
HETATM    8  C16         0      29.650  79.973  23.946  1.00  0.00     0.093 C 
HETATM    9  C18         0      29.975  80.296  25.259  1.00  0.00     0.048 C 
HETATM   10  C19         0      31.070  81.103  25.536  1.00  0.00     0.096 C 
HETATM   11  C21         0      31.847  81.570  24.511  1.00  0.00     0.084 C 
ENDROOT
BRANCH  10  12
HETATM   12  O20         0      31.134  81.766  26.758  1.00  0.00    -0.359 OA
HETATM   13  H20         0      30.836  82.667  26.792  1.00  0.00     0.218 HD
ENDBRANCH  10  12
BRANCH   4  14
HETATM   14  C5          0      33.852  82.946  21.176  1.00  0.00     0.025 C 
HETATM   15  C6          0      33.045  83.818  20.459  1.00  0.00     0.004 C 
HETATM   16  C7          0      33.651  84.926  19.877  1.00  0.00     0.026 C 
HETATM   17  C8          0      35.032  85.093  19.890  1.00  0.00     0.112 C 
HETATM   18  C10         0      35.756  83.919  20.044  1.00  0.00     0.112 C 
HETATM   19  C12         0      35.156  82.855  20.706  1.00  0.00     0.028 C 
BRANCH  17  20
HETATM   20  O9          0      35.592  86.356  19.956  1.00  0.00    -0.357 OA
HETATM   21  H9          0      36.202  86.698  19.313  1.00  0.00     0.218 HD
ENDBRANCH  17  20
BRANCH  18  22
HETATM   22  O11         0      37.131  84.002  19.875  1.00  0.00    -0.357 OA
HETATM   23  H11         0      37.480  83.718  19.038  1.00  0.00     0.218 HD
ENDBRANCH  18  22
ENDBRANCH   4  14
BRANCH   8  24
HETATM   24  O17         0      28.321  79.876  23.520  1.00  0.00    -0.359 OA
HETATM   25  H17         0      27.953  79.055  23.217  1.00  0.00     0.218 HD
ENDBRANCH   8  24
TORSDOF 5
ENDMDL
MODEL 6
REMARK VINA RESULT:      -3.3      5.067      7.255
REMARK  5 active torsions:
REMARK  status: ('A' for Active; 'I' for Inactive)
REMARK    1  A    between atoms: C4_4  and  C5_5 
REMARK    2  A    between atoms: C8_8  and  O9_9 
REMARK    3  A    between atoms: C10_11  and  O11_12 
REMARK    4  A    between atoms: C16_18  and  O17_19 
REMARK    5  A    between atoms: C19_22  and  O20_23 
ROOT
HETATM    1  O1          0      30.689  86.645  20.234  1.00  0.00    -0.286 OA
HETATM    2  C2          0      31.932  86.465  20.107  1.00  0.00     0.201 C 
HETATM    3  C3          0      32.492  85.214  19.909  1.00  0.00     0.067 C 
HETATM    4  C4          0      33.869  85.030  19.875  1.00  0.00     0.103 C 
HETATM    5  O13         0      34.654  86.083  20.015  1.00  0.00    -0.307 OA
HETATM    6  C14         0      34.175  87.287  20.243  1.00  0.00     0.107 C 
HETATM    7  C15         0      34.961  88.297  20.779  1.00  0.00     0.049 C 
HETATM    8  C16         0      34.397  89.476  21.252  1.00  0.00     0.093 C 
HETATM    9  C18         0      33.166  89.802  20.694  1.00  0.00     0.048 C 
HETATM   10  C19         0      32.375  88.824  20.107  1.00  0.00     0.096 C 
HETATM   11  C21         0      32.818  87.530  20.063  1.00  0.00     0.084 C 
ENDROOT
BRANCH  10  12
HETATM   12  O20         0      31.011  89.053  19.955  1.00  0.00    -0.359 OA
HETATM   13  H20         0      30.579  89.606  20.594  1.00  0.00     0.218 HD
ENDBRANCH  10  12
BRANCH   4  14
HETATM   14  C5          0      34.379  83.714  20.266  1.00  0.00     0.025 C 
HETATM   15  C6          0      35.651  83.271  19.933  1.00  0.00     0.004 C 
HETATM   16  C7          0      36.343  82.526  20.883  1.00  0.00     0.026 C 
HETATM   17  C8          0      35.743  82.120  22.070  1.00  0.00     0.112 C 
HETATM   18  C10         0      34.357  82.054  22.026  1.00  0.00     0.112 C 
HETATM   19  C12         0      33.685  82.872  21.125  1.00  0.00     0.028 C 
BRANCH  17  20
HETATM   20  O9          0      36.481  82.007  23.235  1.00  0.00    -0.357 OA
HETATM   21  H9          0      37.429  81.957  23.256  1.00  0.00     0.218 HD
ENDBRANCH  17  20
BRANCH  18  22
HETATM   22  O11         0      33.720  81.476  23.115  1.00  0.00    -0.357 OA
HETATM   23  H11         0      32.770  81.496  23.118  1.00  0.00     0.218 HD
ENDBRANCH  18  22
ENDBRANCH   4  14
BRANCH   8  24
HETATM   24  O17         0      34.861  90.088  22.421  1.00  0.00    -0.359 OA
HETATM   25  H17         0      35.772  90.035  22.684  1.00  0.00     0.218 HD
ENDBRANCH   8  24
TORSDOF 5
ENDMDL
MODEL 7
REMARK VINA RESULT:      -3.3      4.843      7.436
REMARK  5 active torsions:
REMARK  status: ('A' for Active; 'I' for Inactive)
REMARK    1  A    between atoms: C4_4  and  C5_5 
REMARK    2  A    between atoms: C8_8  and  O9_9 
REMARK    3  A    between atoms: C10_11  and  O11_12 
REMARK    4  A    between atoms: C16_18  and  O17_19 
REMARK    5  A    between atoms: C19_22  and  O20_23 
ROOT
HETATM    1  O1          0      30.061  87.348  19.875  1.00  0.00    -0.286 OA
HETATM    2  C2          0      30.991  86.955  20.632  1.00  0.00     0.201 C 
HETATM    3  C3          0      32.062  86.204  20.178  1.00  0.00     0.067 C 
HETATM    4  C4          0      33.018  85.697  21.051  1.00  0.00     0.103 C 
HETATM    5  O13         0      32.905  85.962  22.340  1.00  0.00    -0.307 OA
HETATM    6  C14         0      31.888  86.639  22.828  1.00  0.00     0.107 C 
HETATM    7  C15         0      31.549  86.581  24.172  1.00  0.00     0.049 C 
HETATM    8  C16         0      30.338  87.085  24.633  1.00  0.00     0.093 C 
HETATM    9  C18         0      29.773  88.074  23.838  1.00  0.00     0.048 C 
HETATM   10  C19         0      30.125  88.190  22.500  1.00  0.00     0.096 C 
HETATM   11  C21         0      31.049  87.335  21.964  1.00  0.00     0.084 C 
ENDROOT
BRANCH  10  12
HETATM   12  O20         0      29.272  88.858  21.628  1.00  0.00    -0.359 OA
HETATM   13  H20         0      28.353  88.915  21.860  1.00  0.00     0.218 HD
ENDBRANCH  10  12
BRANCH   4  14
HETATM   14  C5          0      33.722  84.481  20.641  1.00  0.00     0.025 C 
HETATM   15  C6          0      34.879  84.503  19.875  1.00  0.00     0.004 C 
HETATM   16  C7          0      35.869  83.574  20.177  1.00  0.00     0.026 C 
HETATM   17  C8          0      35.665  82.569  21.117  1.00  0.00     0.112 C 
HETATM   18  C10         0      34.333  82.247  21.341  1.00  0.00     0.112 C 
HETATM   19  C12         0      33.370  83.223  21.112  1.00  0.00     0.028 C 
BRANCH  17  20
HETATM   20  O9          0      36.710  82.105  21.896  1.00  0.00    -0.357 OA
HETATM   21  H9          0      37.461  82.633  22.140  1.00  0.00     0.218 HD
ENDBRANCH  17  20
BRANCH  18  22
HETATM   22  O11         0      34.080  81.129  22.123  1.00  0.00    -0.357 OA
HETATM   23  H11         0      33.399  81.210  22.781  1.00  0.00     0.218 HD
ENDBRANCH  18  22
ENDBRANCH   4  14
BRANCH   8  24
HETATM   24  O17         0      29.598  86.418  25.616  1.00  0.00    -0.359 OA
HETATM   25  H17         0      30.011  86.046  26.386  1.00  0.00     0.218 HD
ENDBRANCH   8  24
TORSDOF 5
ENDMDL
MODEL 8
REMARK VINA RESULT:      -3.3      1.870      6.871
REMARK  5 active torsions:
REMARK  status: ('A' for Active; 'I' for Inactive)
REMARK    1  A    between atoms: C4_4  and  C5_5 
REMARK    2  A    between atoms: C8_8  and  O9_9 
REMARK    3  A    between atoms: C10_11  and  O11_12 
REMARK    4  A    between atoms: C16_18  and  O17_19 
REMARK    5  A    between atoms: C19_22  and  O20_23 
ROOT
HETATM    1  O1          0      31.216  84.440  25.291  1.00  0.00    -0.286 OA
HETATM    2  C2          0      31.512  83.326  24.777  1.00  0.00     0.201 C 
HETATM    3  C3          0      32.687  83.113  24.076  1.00  0.00     0.067 C 
HETATM    4  C4          0      32.942  81.907  23.433  1.00  0.00     0.103 C 
HETATM    5  O13         0      32.045  80.941  23.516  1.00  0.00    -0.307 OA
HETATM    6  C14         0      30.898  81.104  24.137  1.00  0.00     0.107 C 
HETATM    7  C15         0      29.812  80.274  23.897  1.00  0.00     0.049 C 
HETATM    8  C16         0      28.540  80.598  24.355  1.00  0.00     0.093 C 
HETATM    9  C18         0      28.512  81.444  25.457  1.00  0.00     0.048 C 
HETATM   10  C19         0      29.600  82.254  25.754  1.00  0.00     0.096 C 
HETATM   11  C21         0      30.716  82.207  24.964  1.00  0.00     0.084 C 
ENDROOT
BRANCH  10  12
HETATM   12  O20         0      29.414  83.376  26.555  1.00  0.00    -0.359 OA
HETATM   13  H20         0      28.593  83.456  27.026  1.00  0.00     0.218 HD
ENDBRANCH  10  12
BRANCH   4  14
HETATM   14  C5          0      33.834  81.943  22.272  1.00  0.00     0.025 C 
HETATM   15  C6          0      33.484  82.545  21.073  1.00  0.00     0.004 C 
HETATM   16  C7          0      34.475  83.241  20.388  1.00  0.00     0.026 C 
HETATM   17  C8          0      35.800  83.227  20.809  1.00  0.00     0.112 C 
HETATM   18  C10         0      36.148  82.134  21.592  1.00  0.00     0.112 C 
HETATM   19  C12         0      35.153  81.509  22.333  1.00  0.00     0.028 C 
BRANCH  17  20
HETATM   20  O9          0      36.614  84.331  20.625  1.00  0.00    -0.357 OA
HETATM   21  H9          0      37.498  84.398  20.968  1.00  0.00     0.218 HD
ENDBRANCH  17  20
BRANCH  18  22
HETATM   22  O11         0      37.496  81.972  21.880  1.00  0.00    -0.357 OA
HETATM   23  H11         0      37.777  82.195  22.760  1.00  0.00     0.218 HD
ENDBRANCH  18  22
ENDBRANCH   4  14
BRANCH   8  24
HETATM   24  O17         0      27.403  80.372  23.571  1.00  0.00    -0.359 OA
HETATM   25  H17         0      26.541  80.278  23.958  1.00  0.00     0.218 HD
ENDBRANCH   8  24
TORSDOF 5
ENDMDL
MODEL 9
REMARK VINA RESULT:      -3.3      6.220      8.804
REMARK  5 active torsions:
REMARK  status: ('A' for Active; 'I' for Inactive)
REMARK    1  A    between atoms: C4_4  and  C5_5 
REMARK    2  A    between atoms: C8_8  and  O9_9 
REMARK    3  A    between atoms: C10_11  and  O11_12 
REMARK    4  A    between atoms: C16_18  and  O17_19 
REMARK    5  A    between atoms: C19_22  and  O20_23 
ROOT
HETATM    1  O1          0      31.493  87.803  24.196  1.00  0.00    -0.286 OA
HETATM    2  C2          0      31.300  87.475  22.993  1.00  0.00     0.201 C 
HETATM    3  C3          0      31.960  86.419  22.387  1.00  0.00     0.067 C 
HETATM    4  C4          0      31.806  86.144  21.033  1.00  0.00     0.103 C 
HETATM    5  O13         0      30.991  86.902  20.321  1.00  0.00    -0.307 OA
HETATM    6  C14         0      30.369  87.938  20.838  1.00  0.00     0.107 C 
HETATM    7  C15         0      29.849  88.950  20.043  1.00  0.00     0.049 C 
HETATM    8  C16         0      29.425  90.154  20.593  1.00  0.00     0.093 C 
HETATM    9  C18         0      29.054  90.090  21.931  1.00  0.00     0.048 C 
HETATM   10  C19         0      29.518  89.064  22.743  1.00  0.00     0.096 C 
HETATM   11  C21         0      30.334  88.099  22.219  1.00  0.00     0.084 C 
ENDROOT
BRANCH  10  12
HETATM   12  O20         0      29.514  89.235  24.124  1.00  0.00    -0.359 OA
HETATM   13  H20         0      30.319  89.061  24.597  1.00  0.00     0.218 HD
ENDBRANCH  10  12
BRANCH   4  14
HETATM   14  C5          0      32.915  85.471  20.356  1.00  0.00     0.025 C 
HETATM   15  C6          0      34.026  86.149  19.875  1.00  0.00     0.004 C 
HETATM   16  C7          0      35.265  85.531  20.005  1.00  0.00     0.026 C 
HETATM   17  C8          0      35.384  84.226  20.473  1.00  0.00     0.112 C 
HETATM   18  C10         0      34.244  83.449  20.319  1.00  0.00     0.112 C 
HETATM   19  C12         0      33.010  84.087  20.278  1.00  0.00     0.028 C 
BRANCH  17  20
HETATM   20  O9          0      36.484  83.837  21.216  1.00  0.00    -0.357 OA
HETATM   21  H9          0      36.468  83.135  21.856  1.00  0.00     0.218 HD
ENDBRANCH  17  20
BRANCH  18  22
HETATM   22  O11         0      34.365  82.094  20.593  1.00  0.00    -0.357 OA
HETATM   23  H11         0      34.894  81.853  21.345  1.00  0.00     0.218 HD
ENDBRANCH  18  22
ENDBRANCH   4  14
BRANCH   8  24
HETATM   24  O17         0      29.676  91.375  19.957  1.00  0.00    -0.359 OA
HETATM   25  H17         0      30.542  91.604  19.641  1.00  0.00     0.218 HD
ENDBRANCH   8  24
TORSDOF 5
ENDMDL
