MODEL 1
REMARK VINA RESULT:      -1.6      0.000      0.000
REMARK  5 active torsions:
REMARK  status: ('A' for Active; 'I' for Inactive)
REMARK    1  A    between atoms: C4_4  and  C5_5 
REMARK    2  A    between atoms: C8_8  and  O9_9 
REMARK    3  A    between atoms: C10_11  and  O11_12 
REMARK    4  A    between atoms: C16_18  and  O17_19 
REMARK    5  A    between atoms: C19_22  and  O20_23 
ROOT
HETATM    1  O1          0      19.244 110.957  11.222  1.00  0.00    -0.286 OA
HETATM    2  C2          0      19.027 111.781  10.292  1.00  0.00     0.201 C 
HETATM    3  C3          0      19.138 111.448   8.953  1.00  0.00     0.067 C 
HETATM    4  C4          0      18.994 112.401   7.951  1.00  0.00     0.103 C 
HETATM    5  O13         0      18.724 113.648   8.295  1.00  0.00    -0.307 OA
HETATM    6  C14         0      18.645 114.025   9.552  1.00  0.00     0.107 C 
HETATM    7  C15         0      18.764 115.356   9.926  1.00  0.00     0.049 C 
HETATM    8  C16         0      18.935 115.720  11.256  1.00  0.00     0.093 C 
HETATM    9  C18         0      18.459 114.800  12.182  1.00  0.00     0.048 C 
HETATM   10  C19         0      18.284 113.469  11.829  1.00  0.00     0.096 C 
HETATM   11  C21         0      18.567 113.063  10.553  1.00  0.00     0.084 C 
ENDROOT
BRANCH  10  12
HETATM   12  O20         0      18.237 112.501  12.827  1.00  0.00    -0.359 OA
HETATM   13  H20         0      18.888 112.540  13.516  1.00  0.00     0.218 HD
ENDBRANCH  10  12
BRANCH   4  14
HETATM   14  C5          0      19.688 112.154   6.686  1.00  0.00     0.025 C 
HETATM   15  C6          0      20.123 110.894   6.301  1.00  0.00     0.004 C 
HETATM   16  C7          0      20.007 110.555   4.956  1.00  0.00     0.026 C 
HETATM   17  C8          0      19.599 111.482   4.003  1.00  0.00     0.112 C 
HETATM   18  C10         0      19.804 112.809   4.360  1.00  0.00     0.112 C 
HETATM   19  C12         0      19.831 113.133   5.711  1.00  0.00     0.028 C 
BRANCH  17  20
HETATM   20  O9          0      18.861 111.088   2.901  1.00  0.00    -0.357 OA
HETATM   21  H9          0      18.826 110.194   2.582  1.00  0.00     0.218 HD
ENDBRANCH  17  20
BRANCH  18  22
HETATM   22  O11         0      19.592 113.764   3.376  1.00  0.00    -0.357 OA
HETATM   23  H11         0      20.364 114.155   2.982  1.00  0.00     0.218 HD
ENDBRANCH  18  22
ENDBRANCH   4  14
BRANCH   8  24
HETATM   24  O17         0      19.809 116.749  11.623  1.00  0.00    -0.359 OA
HETATM   25  H17         0      20.246 117.289  10.975  1.00  0.00     0.218 HD
ENDBRANCH   8  24
TORSDOF 5
ENDMDL
MODEL 2
REMARK VINA RESULT:      -1.6      1.856      3.650
REMARK  5 active torsions:
REMARK  status: ('A' for Active; 'I' for Inactive)
REMARK    1  A    between atoms: C4_4  and  C5_5 
REMARK    2  A    between atoms: C8_8  and  O9_9 
REMARK    3  A    between atoms: C10_11  and  O11_12 
REMARK    4  A    between atoms: C16_18  and  O17_19 
REMARK    5  A    between atoms: C19_22  and  O20_23 
ROOT
HETATM    1  O1          0      18.060 115.179   6.968  1.00  0.00    -0.286 OA
HETATM    2  C2          0      18.758 114.145   6.786  1.00  0.00     0.201 C 
HETATM    3  C3          0      19.160 113.722   5.530  1.00  0.00     0.067 C 
HETATM    4  C4          0      19.841 112.524   5.348  1.00  0.00     0.103 C 
HETATM    5  O13         0      20.125 111.788   6.408  1.00  0.00    -0.307 OA
HETATM    6  C14         0      19.735 112.124   7.618  1.00  0.00     0.107 C 
HETATM    7  C15         0      19.670 111.198   8.649  1.00  0.00     0.049 C 
HETATM    8  C16         0      19.023 111.492   9.843  1.00  0.00     0.093 C 
HETATM    9  C18         0      18.936 112.845  10.146  1.00  0.00     0.048 C 
HETATM   10  C19         0      19.043 113.801   9.145  1.00  0.00     0.096 C 
HETATM   11  C21         0      19.253 113.408   7.851  1.00  0.00     0.084 C 
ENDROOT
BRANCH  10  12
HETATM   12  O20         0      18.534 115.077   9.364  1.00  0.00    -0.359 OA
HETATM   13  H20         0      19.112 115.817   9.226  1.00  0.00     0.218 HD
ENDBRANCH  10  12
BRANCH   4  14
HETATM   14  C5          0      19.699 111.864   4.049  1.00  0.00     0.025 C 
HETATM   15  C6          0      19.807 110.490   3.888  1.00  0.00     0.004 C 
HETATM   16  C7          0      18.948 109.878   2.981  1.00  0.00     0.026 C 
HETATM   17  C8          0      18.102 110.619   2.163  1.00  0.00     0.112 C 
HETATM   18  C10         0      18.509 111.929   1.944  1.00  0.00     0.112 C 
HETATM   19  C12         0      19.298 112.545   2.907  1.00  0.00     0.028 C 
BRANCH  17  20
HETATM   20  O9          0      16.863 110.128   1.794  1.00  0.00    -0.357 OA
HETATM   21  H9          0      16.244 109.744   2.404  1.00  0.00     0.218 HD
ENDBRANCH  17  20
BRANCH  18  22
HETATM   22  O11         0      17.808 112.653   0.989  1.00  0.00    -0.357 OA
HETATM   23  H11         0      18.301 113.293   0.488  1.00  0.00     0.218 HD
ENDBRANCH  18  22
ENDBRANCH   4  14
BRANCH   8  24
HETATM   24  O17         0      18.236 110.539  10.500  1.00  0.00    -0.359 OA
HETATM   25  H17         0      18.438 109.612  10.460  1.00  0.00     0.218 HD
ENDBRANCH   8  24
TORSDOF 5
ENDMDL
MODEL 3
REMARK VINA RESULT:      -1.5      3.675      6.622
REMARK  5 active torsions:
REMARK  status: ('A' for Active; 'I' for Inactive)
REMARK    1  A    between atoms: C4_4  and  C5_5 
REMARK    2  A    between atoms: C8_8  and  O9_9 
REMARK    3  A    between atoms: C10_11  and  O11_12 
REMARK    4  A    between atoms: C16_18  and  O17_19 
REMARK    5  A    between atoms: C19_22  and  O20_23 
ROOT
HETATM    1  O1          0      19.151 114.652   7.570  1.00  0.00    -0.286 OA
HETATM    2  C2          0      19.504 114.698   6.360  1.00  0.00     0.201 C 
HETATM    3  C3          0      19.560 115.879   5.639  1.00  0.00     0.067 C 
HETATM    4  C4          0      19.853 115.891   4.280  1.00  0.00     0.103 C 
HETATM    5  O13         0      20.102 114.743   3.675  1.00  0.00    -0.307 OA
HETATM    6  C14         0      20.026 113.590   4.304  1.00  0.00     0.107 C 
HETATM    7  C15         0      19.889 112.392   3.618  1.00  0.00     0.049 C 
HETATM    8  C16         0      19.555 111.216   4.280  1.00  0.00     0.093 C 
HETATM    9  C18         0      19.888 111.187   5.629  1.00  0.00     0.048 C 
HETATM   10  C19         0      20.078 112.368   6.334  1.00  0.00     0.096 C 
HETATM   11  C21         0      19.954 113.569   5.692  1.00  0.00     0.084 C 
ENDROOT
BRANCH  10  12
HETATM   12  O20         0      19.975 112.355   7.722  1.00  0.00    -0.359 OA
HETATM   13  H20         0      20.410 113.046   8.207  1.00  0.00     0.218 HD
ENDBRANCH  10  12
BRANCH   4  14
HETATM   14  C5          0      19.323 117.003   3.490  1.00  0.00     0.025 C 
HETATM   15  C6          0      19.870 118.278   3.524  1.00  0.00     0.004 C 
HETATM   16  C7          0      19.927 118.987   2.329  1.00  0.00     0.026 C 
HETATM   17  C8          0      19.339 118.503   1.165  1.00  0.00     0.112 C 
HETATM   18  C10         0      18.315 117.588   1.370  1.00  0.00     0.112 C 
HETATM   19  C12         0      18.329 116.831   2.535  1.00  0.00     0.028 C 
BRANCH  17  20
HETATM   20  O9          0      19.895 118.769  -0.074  1.00  0.00    -0.357 OA
HETATM   21  H9          0      19.396 118.796  -0.882  1.00  0.00     0.218 HD
ENDBRANCH  17  20
BRANCH  18  22
HETATM   22  O11         0      17.571 117.219   0.258  1.00  0.00    -0.357 OA
HETATM   23  H11         0      17.961 116.580  -0.327  1.00  0.00     0.218 HD
ENDBRANCH  18  22
ENDBRANCH   4  14
BRANCH   8  24
HETATM   24  O17         0      18.663 110.294   3.722  1.00  0.00    -0.359 OA
HETATM   25  H17         0      18.905 109.751   2.981  1.00  0.00     0.218 HD
ENDBRANCH   8  24
TORSDOF 5
ENDMDL
MODEL 4
REMARK VINA RESULT:      -1.5      3.531      5.259
REMARK  5 active torsions:
REMARK  status: ('A' for Active; 'I' for Inactive)
REMARK    1  A    between atoms: C4_4  and  C5_5 
REMARK    2  A    between atoms: C8_8  and  O9_9 
REMARK    3  A    between atoms: C10_11  and  O11_12 
REMARK    4  A    between atoms: C16_18  and  O17_19 
REMARK    5  A    between atoms: C19_22  and  O20_23 
ROOT
HETATM    1  O1          0      15.967 114.044   6.696  1.00  0.00    -0.286 OA
HETATM    2  C2          0      17.194 114.278   6.872  1.00  0.00     0.201 C 
HETATM    3  C3          0      17.824 115.401   6.362  1.00  0.00     0.067 C 
HETATM    4  C4          0      19.197 115.582   6.482  1.00  0.00     0.103 C 
HETATM    5  O13         0      19.906 114.666   7.117  1.00  0.00    -0.307 OA
HETATM    6  C14         0      19.363 113.564   7.586  1.00  0.00     0.107 C 
HETATM    7  C15         0      20.125 112.443   7.883  1.00  0.00     0.049 C 
HETATM    8  C16         0      19.530 111.212   8.133  1.00  0.00     0.093 C 
HETATM    9  C18         0      18.218 111.275   8.586  1.00  0.00     0.048 C 
HETATM   10  C19         0      17.442 112.401   8.347  1.00  0.00     0.096 C 
HETATM   11  C21         0      17.979 113.464   7.674  1.00  0.00     0.084 C 
ENDROOT
BRANCH  10  12
HETATM   12  O20         0      16.056 112.296   8.403  1.00  0.00    -0.359 OA
HETATM   13  H20         0      15.570 113.015   8.789  1.00  0.00     0.218 HD
ENDBRANCH  10  12
BRANCH   4  14
HETATM   14  C5          0      19.856 116.401   5.462  1.00  0.00     0.025 C 
HETATM   15  C6          0      20.125 115.937   4.183  1.00  0.00     0.004 C 
HETATM   16  C7          0      19.968 116.829   3.127  1.00  0.00     0.026 C 
HETATM   17  C8          0      19.684 118.173   3.344  1.00  0.00     0.112 C 
HETATM   18  C10         0      20.058 118.650   4.593  1.00  0.00     0.112 C 
HETATM   19  C12         0      20.125 117.751   5.651  1.00  0.00     0.028 C 
BRANCH  17  20
HETATM   20  O9          0      18.904 118.886   2.452  1.00  0.00    -0.357 OA
HETATM   21  H9          0      18.906 118.738   1.513  1.00  0.00     0.218 HD
ENDBRANCH  17  20
BRANCH  18  22
HETATM   22  O11         0      19.973 120.021   4.794  1.00  0.00    -0.357 OA
HETATM   23  H11         0      19.237 120.469   4.393  1.00  0.00     0.218 HD
ENDBRANCH  18  22
ENDBRANCH   4  14
BRANCH   8  24
HETATM   24  O17         0      20.085 110.022   7.646  1.00  0.00    -0.359 OA
HETATM   25  H17         0      20.399 109.947   6.753  1.00  0.00     0.218 HD
ENDBRANCH   8  24
TORSDOF 5
ENDMDL
MODEL 5
REMARK VINA RESULT:      -1.4      2.163      4.079
REMARK  5 active torsions:
REMARK  status: ('A' for Active; 'I' for Inactive)
REMARK    1  A    between atoms: C4_4  and  C5_5 
REMARK    2  A    between atoms: C8_8  and  O9_9 
REMARK    3  A    between atoms: C10_11  and  O11_12 
REMARK    4  A    between atoms: C16_18  and  O17_19 
REMARK    5  A    between atoms: C19_22  and  O20_23 
ROOT
HETATM    1  O1          0      18.169 115.795   8.568  1.00  0.00    -0.286 OA
HETATM    2  C2          0      18.773 115.056   7.743  1.00  0.00     0.201 C 
HETATM    3  C3          0      18.802 115.317   6.383  1.00  0.00     0.067 C 
HETATM    4  C4          0      19.387 114.432   5.484  1.00  0.00     0.103 C 
HETATM    5  O13         0      19.944 113.329   5.951  1.00  0.00    -0.307 OA
HETATM    6  C14         0      19.912 113.015   7.227  1.00  0.00     0.107 C 
HETATM    7  C15         0      20.124 111.716   7.666  1.00  0.00     0.049 C 
HETATM    8  C16         0      19.840 111.341   8.974  1.00  0.00     0.093 C 
HETATM    9  C18         0      19.861 112.377   9.900  1.00  0.00     0.048 C 
HETATM   10  C19         0      19.700 113.694   9.489  1.00  0.00     0.096 C 
HETATM   11  C21         0      19.534 113.975   8.160  1.00  0.00     0.084 C 
ENDROOT
BRANCH  10  12
HETATM   12  O20         0      19.291 114.650  10.414  1.00  0.00    -0.359 OA
HETATM   13  H20         0      19.842 115.413  10.538  1.00  0.00     0.218 HD
ENDBRANCH  10  12
BRANCH   4  14
HETATM   14  C5          0      18.879 114.439   4.111  1.00  0.00     0.025 C 
HETATM   15  C6          0      19.278 115.373   3.166  1.00  0.00     0.004 C 
HETATM   16  C7          0      19.453 114.932   1.858  1.00  0.00     0.026 C 
HETATM   17  C8          0      19.114 113.640   1.473  1.00  0.00     0.112 C 
HETATM   18  C10         0      18.171 113.022   2.283  1.00  0.00     0.112 C 
HETATM   19  C12         0      18.075 113.423   3.610  1.00  0.00     0.028 C 
BRANCH  17  20
HETATM   20  O9          0      19.832 112.982   0.490  1.00  0.00    -0.357 OA
HETATM   21  H9          0      20.755 113.132   0.321  1.00  0.00     0.218 HD
ENDBRANCH  17  20
BRANCH  18  22
HETATM   22  O11         0      17.658 111.811   1.839  1.00  0.00    -0.357 OA
HETATM   23  H11         0      16.894 111.848   1.276  1.00  0.00     0.218 HD
ENDBRANCH  18  22
ENDBRANCH   4  14
BRANCH   8  24
HETATM   24  O17         0      19.253 110.105   9.267  1.00  0.00    -0.359 OA
HETATM   25  H17         0      18.530 109.762   8.756  1.00  0.00     0.218 HD
ENDBRANCH   8  24
TORSDOF 5
ENDMDL
MODEL 6
REMARK VINA RESULT:      -1.4      4.148      6.215
REMARK  5 active torsions:
REMARK  status: ('A' for Active; 'I' for Inactive)
REMARK    1  A    between atoms: C4_4  and  C5_5 
REMARK    2  A    between atoms: C8_8  and  O9_9 
REMARK    3  A    between atoms: C10_11  and  O11_12 
REMARK    4  A    between atoms: C16_18  and  O17_19 
REMARK    5  A    between atoms: C19_22  and  O20_23 
ROOT
HETATM    1  O1          0      18.912 117.748   6.825  1.00  0.00    -0.286 OA
HETATM    2  C2          0      19.336 116.932   5.961  1.00  0.00     0.201 C 
HETATM    3  C3          0      19.327 117.204   4.604  1.00  0.00     0.067 C 
HETATM    4  C4          0      19.704 116.249   3.667  1.00  0.00     0.103 C 
HETATM    5  O13         0      20.097 115.062   4.094  1.00  0.00    -0.307 OA
HETATM    6  C14         0      20.088 114.739   5.368  1.00  0.00     0.107 C 
HETATM    7  C15         0      20.107 113.416   5.788  1.00  0.00     0.049 C 
HETATM    8  C16         0      19.842 113.074   7.108  1.00  0.00     0.093 C 
HETATM    9  C18         0      20.090 114.079   8.036  1.00  0.00     0.048 C 
HETATM   10  C19         0      20.125 115.410   7.642  1.00  0.00     0.096 C 
HETATM   11  C21         0      19.930 115.734   6.327  1.00  0.00     0.084 C 
ENDROOT
BRANCH  10  12
HETATM   12  O20         0      19.935 116.406   8.594  1.00  0.00    -0.359 OA
HETATM   13  H20         0      20.382 116.317   9.427  1.00  0.00     0.218 HD
ENDBRANCH  10  12
BRANCH   4  14
HETATM   14  C5          0      19.124 116.359   2.327  1.00  0.00     0.025 C 
HETATM   15  C6          0      18.050 115.588   1.907  1.00  0.00     0.004 C 
HETATM   16  C7          0      17.096 116.198   1.098  1.00  0.00     0.026 C 
HETATM   17  C8          0      17.269 117.490   0.613  1.00  0.00     0.112 C 
HETATM   18  C10         0      18.590 117.914   0.552  1.00  0.00     0.112 C 
HETATM   19  C12         0      19.506 117.348   1.430  1.00  0.00     0.028 C 
BRANCH  17  20
HETATM   20  O9          0      16.184 118.327   0.421  1.00  0.00    -0.357 OA
HETATM   21  H9          0      15.280 118.051   0.525  1.00  0.00     0.218 HD
ENDBRANCH  17  20
BRANCH  18  22
HETATM   22  O11         0      18.834 119.116  -0.098  1.00  0.00    -0.357 OA
HETATM   23  H11         0      19.732 119.290  -0.355  1.00  0.00     0.218 HD
ENDBRANCH  18  22
ENDBRANCH   4  14
BRANCH   8  24
HETATM   24  O17         0      19.078 111.948   7.431  1.00  0.00    -0.359 OA
HETATM   25  H17         0      19.402 111.067   7.286  1.00  0.00     0.218 HD
ENDBRANCH   8  24
TORSDOF 5
ENDMDL
MODEL 7
REMARK VINA RESULT:      -1.4      2.559      3.755
REMARK  5 active torsions:
REMARK  status: ('A' for Active; 'I' for Inactive)
REMARK    1  A    between atoms: C4_4  and  C5_5 
REMARK    2  A    between atoms: C8_8  and  O9_9 
REMARK    3  A    between atoms: C10_11  and  O11_12 
REMARK    4  A    between atoms: C16_18  and  O17_19 
REMARK    5  A    between atoms: C19_22  and  O20_23 
ROOT
HETATM    1  O1          0      15.913 116.577   6.511  1.00  0.00    -0.286 OA
HETATM    2  C2          0      16.994 116.253   7.074  1.00  0.00     0.201 C 
HETATM    3  C3          0      18.006 115.572   6.421  1.00  0.00     0.067 C 
HETATM    4  C4          0      19.143 115.137   7.092  1.00  0.00     0.103 C 
HETATM    5  O13         0      19.260 115.403   8.381  1.00  0.00    -0.307 OA
HETATM    6  C14         0      18.312 116.013   9.058  1.00  0.00     0.107 C 
HETATM    7  C15         0      18.239 115.942  10.441  1.00  0.00     0.049 C 
HETATM    8  C16         0      17.108 116.367  11.127  1.00  0.00     0.093 C 
HETATM    9  C18         0      16.336 117.311  10.460  1.00  0.00     0.048 C 
HETATM   10  C19         0      16.419 117.441   9.080  1.00  0.00     0.096 C 
HETATM   11  C21         0      17.279 116.645   8.373  1.00  0.00     0.084 C 
ENDROOT
BRANCH  10  12
HETATM   12  O20         0      15.372 118.044   8.390  1.00  0.00    -0.359 OA
HETATM   13  H20         0      15.243 118.978   8.505  1.00  0.00     0.218 HD
ENDBRANCH  10  12
BRANCH   4  14
HETATM   14  C5          0      19.836 113.967   6.549  1.00  0.00     0.025 C 
HETATM   15  C6          0      20.120 112.841   7.308  1.00  0.00     0.004 C 
HETATM   16  C7          0      20.000 111.600   6.691  1.00  0.00     0.026 C 
HETATM   17  C8          0      19.737 111.484   5.331  1.00  0.00     0.112 C 
HETATM   18  C10         0      20.095 112.592   4.574  1.00  0.00     0.112 C 
HETATM   19  C12         0      20.125 113.835   5.197  1.00  0.00     0.028 C 
BRANCH  17  20
HETATM   20  O9          0      18.986 110.430   4.841  1.00  0.00    -0.357 OA
HETATM   21  H9          0      18.617 110.407   3.966  1.00  0.00     0.218 HD
ENDBRANCH  17  20
BRANCH  18  22
HETATM   22  O11         0      20.030 112.459   3.195  1.00  0.00    -0.357 OA
HETATM   23  H11         0      19.164 112.415   2.807  1.00  0.00     0.218 HD
ENDBRANCH  18  22
ENDBRANCH   4  14
BRANCH   8  24
HETATM   24  O17         0      16.614 115.659  12.229  1.00  0.00    -0.359 OA
HETATM   25  H17         0      17.192 115.307  12.895  1.00  0.00     0.218 HD
ENDBRANCH   8  24
TORSDOF 5
ENDMDL
MODEL 8
REMARK VINA RESULT:      -1.4      3.834      5.346
REMARK  5 active torsions:
REMARK  status: ('A' for Active; 'I' for Inactive)
REMARK    1  A    between atoms: C4_4  and  C5_5 
REMARK    2  A    between atoms: C8_8  and  O9_9 
REMARK    3  A    between atoms: C10_11  and  O11_12 
REMARK    4  A    between atoms: C16_18  and  O17_19 
REMARK    5  A    between atoms: C19_22  and  O20_23 
ROOT
HETATM    1  O1          0      15.361 115.597   5.848  1.00  0.00    -0.286 OA
HETATM    2  C2          0      16.598 115.719   5.632  1.00  0.00     0.201 C 
HETATM    3  C3          0      17.435 114.634   5.434  1.00  0.00     0.067 C 
HETATM    4  C4          0      18.810 114.789   5.301  1.00  0.00     0.103 C 
HETATM    5  O13         0      19.319 116.008   5.347  1.00  0.00    -0.307 OA
HETATM    6  C14         0      18.574 117.068   5.570  1.00  0.00     0.107 C 
HETATM    7  C15         0      19.119 118.265   6.012  1.00  0.00     0.049 C 
HETATM    8  C16         0      18.314 119.293   6.488  1.00  0.00     0.093 C 
HETATM    9  C18         0      17.007 119.282   6.015  1.00  0.00     0.048 C 
HETATM   10  C19         0      16.445 118.112   5.522  1.00  0.00     0.096 C 
HETATM   11  C21         0      17.189 116.964   5.486  1.00  0.00     0.084 C 
ENDROOT
BRANCH  10  12
HETATM   12  O20         0      15.060 117.994   5.467  1.00  0.00    -0.359 OA
HETATM   13  H20         0      14.653 117.925   4.612  1.00  0.00     0.218 HD
ENDBRANCH  10  12
BRANCH   4  14
HETATM   14  C5          0      19.653 113.659   5.695  1.00  0.00     0.025 C 
HETATM   15  C6          0      20.073 113.453   7.001  1.00  0.00     0.004 C 
HETATM   16  C7          0      20.119 112.141   7.463  1.00  0.00     0.026 C 
HETATM   17  C8          0      19.887 111.061   6.619  1.00  0.00     0.112 C 
HETATM   18  C10         0      20.107 111.320   5.273  1.00  0.00     0.112 C 
HETATM   19  C12         0      19.971 112.627   4.820  1.00  0.00     0.028 C 
BRANCH  17  20
HETATM   20  O9          0      19.283 109.909   7.091  1.00  0.00    -0.357 OA
HETATM   21  H9          0      18.588 109.905   7.739  1.00  0.00     0.218 HD
ENDBRANCH  17  20
BRANCH  18  22
HETATM   22  O11         0      20.074 110.233   4.410  1.00  0.00    -0.357 OA
HETATM   23  H11         0      19.238 109.795   4.302  1.00  0.00     0.218 HD
ENDBRANCH  18  22
ENDBRANCH   4  14
BRANCH   8  24
HETATM   24  O17         0      18.689 120.059   7.597  1.00  0.00    -0.359 OA
HETATM   25  H17         0      19.138 119.674   8.341  1.00  0.00     0.218 HD
ENDBRANCH   8  24
TORSDOF 5
ENDMDL
MODEL 9
REMARK VINA RESULT:      -1.4      2.913      4.850
REMARK  5 active torsions:
REMARK  status: ('A' for Active; 'I' for Inactive)
REMARK    1  A    between atoms: C4_4  and  C5_5 
REMARK    2  A    between atoms: C8_8  and  O9_9 
REMARK    3  A    between atoms: C10_11  and  O11_12 
REMARK    4  A    between atoms: C16_18  and  O17_19 
REMARK    5  A    between atoms: C19_22  and  O20_23 
ROOT
HETATM    1  O1          0      18.664 114.657  11.783  1.00  0.00    -0.286 OA
HETATM    2  C2          0      19.173 114.688  10.629  1.00  0.00     0.201 C 
HETATM    3  C3          0      19.289 115.853   9.891  1.00  0.00     0.067 C 
HETATM    4  C4          0      19.760 115.843   8.583  1.00  0.00     0.103 C 
HETATM    5  O13         0      20.122 114.691   8.048  1.00  0.00    -0.307 OA
HETATM    6  C14         0      19.998 113.551   8.691  1.00  0.00     0.107 C 
HETATM    7  C15         0      19.989 112.333   8.026  1.00  0.00     0.049 C 
HETATM    8  C16         0      19.605 111.163   8.670  1.00  0.00     0.093 C 
HETATM    9  C18         0      19.756 111.175  10.051  1.00  0.00     0.048 C 
HETATM   10  C19         0      19.816 112.377  10.743  1.00  0.00     0.096 C 
HETATM   11  C21         0      19.742 113.560  10.058  1.00  0.00     0.084 C 
ENDROOT
BRANCH  10  12
HETATM   12  O20         0      19.529 112.393  12.105  1.00  0.00    -0.359 OA
HETATM   13  H20         0      18.642 112.190  12.375  1.00  0.00     0.218 HD
ENDBRANCH  10  12
BRANCH   4  14
HETATM   14  C5          0      19.306 116.919   7.700  1.00  0.00     0.025 C 
HETATM   15  C6          0      19.959 118.140   7.606  1.00  0.00     0.004 C 
HETATM   16  C7          0      20.047 118.728   6.348  1.00  0.00     0.026 C 
HETATM   17  C8          0      19.394 118.191   5.244  1.00  0.00     0.112 C 
HETATM   18  C10         0      18.302 117.390   5.549  1.00  0.00     0.112 C 
HETATM   19  C12         0      18.280 116.745   6.781  1.00  0.00     0.028 C 
BRANCH  17  20
HETATM   20  O9          0      19.942 118.293   3.978  1.00  0.00    -0.357 OA
HETATM   21  H9          0      19.426 118.376   3.184  1.00  0.00     0.218 HD
ENDBRANCH  17  20
BRANCH  18  22
HETATM   22  O11         0      17.505 116.983   4.489  1.00  0.00    -0.357 OA
HETATM   23  H11         0      17.905 116.411   3.845  1.00  0.00     0.218 HD
ENDBRANCH  18  22
ENDBRANCH   4  14
BRANCH   8  24
HETATM   24  O17         0      18.824 110.198   8.024  1.00  0.00    -0.359 OA
HETATM   25  H17         0      18.034 110.431   7.550  1.00  0.00     0.218 HD
ENDBRANCH   8  24
TORSDOF 5
ENDMDL
