MODEL 1
REMARK VINA RESULT:      -5.1      0.000      0.000
REMARK  5 active torsions:
REMARK  status: ('A' for Active; 'I' for Inactive)
REMARK    1  A    between atoms: C4_4  and  C5_5 
REMARK    2  A    between atoms: C8_8  and  O9_9 
REMARK    3  A    between atoms: C10_11  and  O11_12 
REMARK    4  A    between atoms: C16_18  and  O17_19 
REMARK    5  A    between atoms: C19_22  and  O20_23 
ROOT
HETATM    1  O1          0       5.514  57.298 -25.962  1.00  0.00    -0.286 OA
HETATM    2  C2          0       6.130  57.848 -25.009  1.00  0.00     0.201 C 
HETATM    3  C3          0       7.509  57.963 -24.973  1.00  0.00     0.067 C 
HETATM    4  C4          0       8.168  58.482 -23.864  1.00  0.00     0.103 C 
HETATM    5  O13         0       7.451  58.891 -22.833  1.00  0.00    -0.307 OA
HETATM    6  C14         0       6.142  58.770 -22.800  1.00  0.00     0.107 C 
HETATM    7  C15         0       5.433  58.816 -21.609  1.00  0.00     0.049 C 
HETATM    8  C16         0       4.097  58.437 -21.548  1.00  0.00     0.093 C 
HETATM    9  C18         0       3.404  58.537 -22.749  1.00  0.00     0.048 C 
HETATM   10  C19         0       4.085  58.542 -23.958  1.00  0.00     0.096 C 
HETATM   11  C21         0       5.452  58.465 -23.968  1.00  0.00     0.084 C 
ENDROOT
BRANCH  10  12
HETATM   12  O20         0       3.404  58.205 -25.124  1.00  0.00    -0.359 OA
HETATM   13  H20         0       3.573  57.353 -25.508  1.00  0.00     0.218 HD
ENDBRANCH  10  12
BRANCH   4  14
HETATM   14  C5          0       9.543  58.035 -23.633  1.00  0.00     0.025 C 
HETATM   15  C6          0      10.522  58.072 -24.616  1.00  0.00     0.004 C 
HETATM   16  C7          0      11.810  58.426 -24.229  1.00  0.00     0.026 C 
HETATM   17  C8          0      12.148  58.605 -22.892  1.00  0.00     0.112 C 
HETATM   18  C10         0      11.320  57.947 -21.992  1.00  0.00     0.112 C 
HETATM   19  C12         0      10.009  57.682 -22.373  1.00  0.00     0.028 C 
BRANCH  17  20
HETATM   20  O9          0      13.100  59.537 -22.520  1.00  0.00    -0.357 OA
HETATM   21  H9          0      12.980  60.476 -22.600  1.00  0.00     0.218 HD
ENDBRANCH  17  20
BRANCH  18  22
HETATM   22  O11         0      11.719  57.936 -20.663  1.00  0.00    -0.357 OA
HETATM   23  H11         0      11.998  58.765 -20.291  1.00  0.00     0.218 HD
ENDBRANCH  18  22
ENDBRANCH   4  14
BRANCH   8  24
HETATM   24  O17         0       3.595  57.703 -20.468  1.00  0.00    -0.359 OA
HETATM   25  H17         0       3.672  56.757 -20.428  1.00  0.00     0.218 HD
ENDBRANCH   8  24
TORSDOF 5
ENDMDL
MODEL 2
REMARK VINA RESULT:      -5.1      3.570      7.870
REMARK  5 active torsions:
REMARK  status: ('A' for Active; 'I' for Inactive)
REMARK    1  A    between atoms: C4_4  and  C5_5 
REMARK    2  A    between atoms: C8_8  and  O9_9 
REMARK    3  A    between atoms: C10_11  and  O11_12 
REMARK    4  A    between atoms: C16_18  and  O17_19 
REMARK    5  A    between atoms: C19_22  and  O20_23 
ROOT
HETATM    1  O1          0      12.481  56.492 -27.813  1.00  0.00    -0.286 OA
HETATM    2  C2          0      12.700  57.269 -26.843  1.00  0.00     0.201 C 
HETATM    3  C3          0      11.954  57.242 -25.677  1.00  0.00     0.067 C 
HETATM    4  C4          0      12.148  58.176 -24.666  1.00  0.00     0.103 C 
HETATM    5  O13         0      13.084  59.096 -24.823  1.00  0.00    -0.307 OA
HETATM    6  C14         0      13.794  59.190 -25.926  1.00  0.00     0.107 C 
HETATM    7  C15         0      14.470  60.353 -26.263  1.00  0.00     0.049 C 
HETATM    8  C16         0      15.002  60.537 -27.534  1.00  0.00     0.093 C 
HETATM    9  C18         0      15.290  59.365 -28.224  1.00  0.00     0.048 C 
HETATM   10  C19         0      14.666  58.173 -27.882  1.00  0.00     0.096 C 
HETATM   11  C21         0      13.773  58.147 -26.846  1.00  0.00     0.084 C 
ENDROOT
BRANCH  10  12
HETATM   12  O20         0      14.616  57.140 -28.813  1.00  0.00    -0.359 OA
HETATM   13  H20         0      14.366  56.277 -28.507  1.00  0.00     0.218 HD
ENDBRANCH  10  12
BRANCH   4  14
HETATM   14  C5          0      11.006  58.473 -23.800  1.00  0.00     0.025 C 
HETATM   15  C6          0       9.805  58.970 -24.284  1.00  0.00     0.004 C 
HETATM   16  C7          0       8.631  58.500 -23.703  1.00  0.00     0.026 C 
HETATM   17  C8          0       8.652  57.666 -22.590  1.00  0.00     0.112 C 
HETATM   18  C10         0       9.809  57.747 -21.827  1.00  0.00     0.112 C 
HETATM   19  C12         0      10.987  58.138 -22.452  1.00  0.00     0.028 C 
BRANCH  17  20
HETATM   20  O9          0       7.679  56.699 -22.411  1.00  0.00    -0.357 OA
HETATM   21  H9          0       7.155  56.340 -23.117  1.00  0.00     0.218 HD
ENDBRANCH  17  20
BRANCH  18  22
HETATM   22  O11         0       9.806  57.082 -20.609  1.00  0.00    -0.357 OA
HETATM   23  H11         0       9.449  57.552 -19.863  1.00  0.00     0.218 HD
ENDBRANCH  18  22
ENDBRANCH   4  14
BRANCH   8  24
HETATM   24  O17         0      14.931  61.774 -28.183  1.00  0.00    -0.359 OA
HETATM   25  H17         0      14.871  62.589 -27.698  1.00  0.00     0.218 HD
ENDBRANCH   8  24
TORSDOF 5
ENDMDL
MODEL 3
REMARK VINA RESULT:      -5.0      0.971      1.244
REMARK  5 active torsions:
REMARK  status: ('A' for Active; 'I' for Inactive)
REMARK    1  A    between atoms: C4_4  and  C5_5 
REMARK    2  A    between atoms: C8_8  and  O9_9 
REMARK    3  A    between atoms: C10_11  and  O11_12 
REMARK    4  A    between atoms: C16_18  and  O17_19 
REMARK    5  A    between atoms: C19_22  and  O20_23 
ROOT
HETATM    1  O1          0       5.570  57.892 -25.908  1.00  0.00    -0.286 OA
HETATM    2  C2          0       6.336  58.250 -24.971  1.00  0.00     0.201 C 
HETATM    3  C3          0       7.707  58.358 -25.123  1.00  0.00     0.067 C 
HETATM    4  C4          0       8.538  58.654 -24.048  1.00  0.00     0.103 C 
HETATM    5  O13         0       7.993  58.857 -22.862  1.00  0.00    -0.307 OA
HETATM    6  C14         0       6.701  58.730 -22.655  1.00  0.00     0.107 C 
HETATM    7  C15         0       6.179  58.543 -21.383  1.00  0.00     0.049 C 
HETATM    8  C16         0       4.857  58.158 -21.195  1.00  0.00     0.093 C 
HETATM    9  C18         0       3.996  58.486 -22.236  1.00  0.00     0.048 C 
HETATM   10  C19         0       4.490  58.725 -23.511  1.00  0.00     0.096 C 
HETATM   11  C21         0       5.837  58.653 -23.742  1.00  0.00     0.084 C 
ENDROOT
BRANCH  10  12
HETATM   12  O20         0       3.634  58.618 -24.603  1.00  0.00    -0.359 OA
HETATM   13  H20         0       2.982  59.297 -24.725  1.00  0.00     0.218 HD
ENDBRANCH  10  12
BRANCH   4  14
HETATM   14  C5          0       9.920  58.174 -24.117  1.00  0.00     0.025 C 
HETATM   15  C6          0      10.448  57.564 -25.245  1.00  0.00     0.004 C 
HETATM   16  C7          0      11.767  57.856 -25.579  1.00  0.00     0.026 C 
HETATM   17  C8          0      12.576  58.623 -24.747  1.00  0.00     0.112 C 
HETATM   18  C10         0      12.187  58.639 -23.414  1.00  0.00     0.112 C 
HETATM   19  C12         0      10.847  58.428 -23.115  1.00  0.00     0.028 C 
BRANCH  17  20
HETATM   20  O9          0      13.548  59.454 -25.275  1.00  0.00    -0.357 OA
HETATM   21  H9          0      13.524  60.402 -25.211  1.00  0.00     0.218 HD
ENDBRANCH  17  20
BRANCH  18  22
HETATM   22  O11         0      13.061  59.230 -22.512  1.00  0.00    -0.357 OA
HETATM   23  H11         0      13.003  60.173 -22.412  1.00  0.00     0.218 HD
ENDBRANCH  18  22
ENDBRANCH   4  14
BRANCH   8  24
HETATM   24  O17         0       4.501  57.229 -20.211  1.00  0.00    -0.359 OA
HETATM   25  H17         0       3.675  56.762 -20.241  1.00  0.00     0.218 HD
ENDBRANCH   8  24
TORSDOF 5
ENDMDL
MODEL 4
REMARK VINA RESULT:      -4.9     13.478     15.496
REMARK  5 active torsions:
REMARK  status: ('A' for Active; 'I' for Inactive)
REMARK    1  A    between atoms: C4_4  and  C5_5 
REMARK    2  A    between atoms: C8_8  and  O9_9 
REMARK    3  A    between atoms: C10_11  and  O11_12 
REMARK    4  A    between atoms: C16_18  and  O17_19 
REMARK    5  A    between atoms: C19_22  and  O20_23 
ROOT
HETATM    1  O1          0      15.002  61.332 -33.774  1.00  0.00    -0.286 OA
HETATM    2  C2          0      14.601  62.296 -34.482  1.00  0.00     0.201 C 
HETATM    3  C3          0      15.440  63.310 -34.912  1.00  0.00     0.067 C 
HETATM    4  C4          0      14.953  64.413 -35.604  1.00  0.00     0.103 C 
HETATM    5  O13         0      13.660  64.476 -35.870  1.00  0.00    -0.307 OA
HETATM    6  C14         0      12.815  63.559 -35.452  1.00  0.00     0.107 C 
HETATM    7  C15         0      11.452  63.804 -35.371  1.00  0.00     0.049 C 
HETATM    8  C16         0      10.602  62.935 -34.697  1.00  0.00     0.093 C 
HETATM    9  C18         0      11.059  61.627 -34.596  1.00  0.00     0.048 C 
HETATM   10  C19         0      12.411  61.341 -34.719  1.00  0.00     0.096 C 
HETATM   11  C21         0      13.300  62.353 -34.958  1.00  0.00     0.084 C 
ENDROOT
BRANCH  10  12
HETATM   12  O20         0      12.905  60.149 -34.197  1.00  0.00    -0.359 OA
HETATM   13  H20         0      12.912  59.385 -34.761  1.00  0.00     0.218 HD
ENDBRANCH  10  12
BRANCH   4  14
HETATM   14  C5          0      15.711  65.661 -35.494  1.00  0.00     0.025 C 
HETATM   15  C6          0      17.077  65.733 -35.723  1.00  0.00     0.004 C 
HETATM   16  C7          0      17.563  66.861 -36.376  1.00  0.00     0.026 C 
HETATM   17  C8          0      16.740  67.942 -36.673  1.00  0.00     0.112 C 
HETATM   18  C10         0      15.610  68.048 -35.874  1.00  0.00     0.112 C 
HETATM   19  C12         0      15.096  66.891 -35.301  1.00  0.00     0.028 C 
BRANCH  17  20
HETATM   20  O9          0      16.950  68.701 -37.812  1.00  0.00    -0.357 OA
HETATM   21  H9          0      16.249  69.043 -38.354  1.00  0.00     0.218 HD
ENDBRANCH  17  20
BRANCH  18  22
HETATM   22  O11         0      14.857  69.207 -36.000  1.00  0.00    -0.357 OA
HETATM   23  H11         0      15.054  69.915 -35.397  1.00  0.00     0.218 HD
ENDBRANCH  18  22
ENDBRANCH   4  14
BRANCH   8  24
HETATM   24  O17         0       9.553  63.412 -33.902  1.00  0.00    -0.359 OA
HETATM   25  H17         0       8.770  62.897 -33.748  1.00  0.00     0.218 HD
ENDBRANCH   8  24
TORSDOF 5
ENDMDL
MODEL 5
REMARK VINA RESULT:      -4.9      2.155      2.813
REMARK  5 active torsions:
REMARK  status: ('A' for Active; 'I' for Inactive)
REMARK    1  A    between atoms: C4_4  and  C5_5 
REMARK    2  A    between atoms: C8_8  and  O9_9 
REMARK    3  A    between atoms: C10_11  and  O11_12 
REMARK    4  A    between atoms: C16_18  and  O17_19 
REMARK    5  A    between atoms: C19_22  and  O20_23 
ROOT
HETATM    1  O1          0       5.605  58.394 -25.600  1.00  0.00    -0.286 OA
HETATM    2  C2          0       6.608  58.519 -24.844  1.00  0.00     0.201 C 
HETATM    3  C3          0       7.909  58.510 -25.316  1.00  0.00     0.067 C 
HETATM    4  C4          0       8.998  58.546 -24.451  1.00  0.00     0.103 C 
HETATM    5  O13         0       8.774  58.612 -23.151  1.00  0.00    -0.307 OA
HETATM    6  C14         0       7.558  58.586 -22.649  1.00  0.00     0.107 C 
HETATM    7  C15         0       7.323  58.254 -21.322  1.00  0.00     0.049 C 
HETATM    8  C16         0       6.040  57.980 -20.864  1.00  0.00     0.093 C 
HETATM    9  C18         0       5.016  58.554 -21.607  1.00  0.00     0.048 C 
HETATM   10  C19         0       5.231  58.941 -22.923  1.00  0.00     0.096 C 
HETATM   11  C21         0       6.465  58.771 -23.488  1.00  0.00     0.084 C 
ENDROOT
BRANCH  10  12
HETATM   12  O20         0       4.140  59.096 -23.773  1.00  0.00    -0.359 OA
HETATM   13  H20         0       4.181  59.780 -24.430  1.00  0.00     0.218 HD
ENDBRANCH  10  12
BRANCH   4  14
HETATM   14  C5          0      10.247  57.945 -24.922  1.00  0.00     0.025 C 
HETATM   15  C6          0      10.308  56.676 -25.480  1.00  0.00     0.004 C 
HETATM   16  C7          0      11.175  56.484 -26.550  1.00  0.00     0.026 C 
HETATM   17  C8          0      12.052  57.479 -26.967  1.00  0.00     0.112 C 
HETATM   18  C10         0      12.362  58.423 -25.996  1.00  0.00     0.112 C 
HETATM   19  C12         0      11.438  58.657 -24.984  1.00  0.00     0.028 C 
BRANCH  17  20
HETATM   20  O9          0      12.396  57.608 -28.301  1.00  0.00    -0.357 OA
HETATM   21  H9          0      12.609  56.874 -28.864  1.00  0.00     0.218 HD
ENDBRANCH  17  20
BRANCH  18  22
HETATM   22  O11         0      13.372  59.325 -26.296  1.00  0.00    -0.357 OA
HETATM   23  H11         0      13.312  60.186 -25.899  1.00  0.00     0.218 HD
ENDBRANCH  18  22
ENDBRANCH   4  14
BRANCH   8  24
HETATM   24  O17         0       5.797  56.947 -19.951  1.00  0.00    -0.359 OA
HETATM   25  H17         0       6.083  56.057 -20.117  1.00  0.00     0.218 HD
ENDBRANCH   8  24
TORSDOF 5
ENDMDL
MODEL 6
REMARK VINA RESULT:      -4.8      1.627      6.999
REMARK  5 active torsions:
REMARK  status: ('A' for Active; 'I' for Inactive)
REMARK    1  A    between atoms: C4_4  and  C5_5 
REMARK    2  A    between atoms: C8_8  and  O9_9 
REMARK    3  A    between atoms: C10_11  and  O11_12 
REMARK    4  A    between atoms: C16_18  and  O17_19 
REMARK    5  A    between atoms: C19_22  and  O20_23 
ROOT
HETATM    1  O1          0      11.280  57.049 -20.842  1.00  0.00    -0.286 OA
HETATM    2  C2          0      10.449  57.604 -21.612  1.00  0.00     0.201 C 
HETATM    3  C3          0       9.111  57.757 -21.288  1.00  0.00     0.067 C 
HETATM    4  C4          0       8.197  58.278 -22.195  1.00  0.00     0.103 C 
HETATM    5  O13         0       8.628  58.652 -23.387  1.00  0.00    -0.307 OA
HETATM    6  C14         0       9.879  58.494 -23.759  1.00  0.00     0.107 C 
HETATM    7  C15         0      10.251  58.502 -25.096  1.00  0.00     0.049 C 
HETATM    8  C16         0      11.515  58.085 -25.496  1.00  0.00     0.093 C 
HETATM    9  C18         0      12.501  58.182 -24.521  1.00  0.00     0.048 C 
HETATM   10  C19         0      12.161  58.224 -23.176  1.00  0.00     0.096 C 
HETATM   11  C21         0      10.844  58.186 -22.806  1.00  0.00     0.084 C 
ENDROOT
BRANCH  10  12
HETATM   12  O20         0      13.116  57.885 -22.222  1.00  0.00    -0.359 OA
HETATM   13  H20         0      14.031  57.919 -22.476  1.00  0.00     0.218 HD
ENDBRANCH  10  12
BRANCH   4  14
HETATM   14  C5          0       6.799  57.868 -22.049  1.00  0.00     0.025 C 
HETATM   15  C6          0       6.300  57.299 -20.885  1.00  0.00     0.004 C 
HETATM   16  C7          0       5.017  57.661 -20.490  1.00  0.00     0.026 C 
HETATM   17  C8          0       4.203  58.456 -21.291  1.00  0.00     0.112 C 
HETATM   18  C10         0       4.523  58.435 -22.642  1.00  0.00     0.112 C 
HETATM   19  C12         0       5.835  58.154 -23.006  1.00  0.00     0.028 C 
BRANCH  17  20
HETATM   20  O9          0       3.302  59.341 -20.729  1.00  0.00    -0.357 OA
HETATM   21  H9          0       2.772  59.947 -21.233  1.00  0.00     0.218 HD
ENDBRANCH  17  20
BRANCH  18  22
HETATM   22  O11         0       3.634  59.056 -23.508  1.00  0.00    -0.357 OA
HETATM   23  H11         0       3.506  58.650 -24.358  1.00  0.00     0.218 HD
ENDBRANCH  18  22
ENDBRANCH   4  14
BRANCH   8  24
HETATM   24  O17         0      11.698  57.322 -26.654  1.00  0.00    -0.359 OA
HETATM   25  H17         0      11.050  56.690 -26.944  1.00  0.00     0.218 HD
ENDBRANCH   8  24
TORSDOF 5
ENDMDL
MODEL 7
REMARK VINA RESULT:      -4.7      2.596      6.668
REMARK  5 active torsions:
REMARK  status: ('A' for Active; 'I' for Inactive)
REMARK    1  A    between atoms: C4_4  and  C5_5 
REMARK    2  A    between atoms: C8_8  and  O9_9 
REMARK    3  A    between atoms: C10_11  and  O11_12 
REMARK    4  A    between atoms: C16_18  and  O17_19 
REMARK    5  A    between atoms: C19_22  and  O20_23 
ROOT
HETATM    1  O1          0       9.434  56.499 -27.384  1.00  0.00    -0.286 OA
HETATM    2  C2          0       9.752  56.991 -26.266  1.00  0.00     0.201 C 
HETATM    3  C3          0       8.835  57.199 -25.249  1.00  0.00     0.067 C 
HETATM    4  C4          0       9.191  57.836 -24.066  1.00  0.00     0.103 C 
HETATM    5  O13         0      10.442  58.232 -23.910  1.00  0.00    -0.307 OA
HETATM    6  C14         0      11.343  58.094 -24.859  1.00  0.00     0.107 C 
HETATM    7  C15         0      12.512  58.841 -24.871  1.00  0.00     0.049 C 
HETATM    8  C16         0      13.331  58.880 -25.993  1.00  0.00     0.093 C 
HETATM    9  C18         0      13.225  57.780 -26.836  1.00  0.00     0.048 C 
HETATM   10  C19         0      12.089  56.983 -26.816  1.00  0.00     0.096 C 
HETATM   11  C21         0      11.072  57.272 -25.948  1.00  0.00     0.084 C 
ENDROOT
BRANCH  10  12
HETATM   12  O20         0      11.799  56.184 -27.917  1.00  0.00    -0.359 OA
HETATM   13  H20         0      11.552  56.615 -28.727  1.00  0.00     0.218 HD
ENDBRANCH  10  12
BRANCH   4  14
HETATM   14  C5          0       8.133  58.541 -23.341  1.00  0.00     0.025 C 
HETATM   15  C6          0       7.192  59.341 -23.973  1.00  0.00     0.004 C 
HETATM   16  C7          0       5.887  59.304 -23.493  1.00  0.00     0.026 C 
HETATM   17  C8          0       5.554  58.601 -22.340  1.00  0.00     0.112 C 
HETATM   18  C10         0       6.612  58.386 -21.466  1.00  0.00     0.112 C 
HETATM   19  C12         0       7.900  58.343 -21.986  1.00  0.00     0.028 C 
BRANCH  17  20
HETATM   20  O9          0       4.316  57.998 -22.210  1.00  0.00    -0.357 OA
HETATM   21  H9          0       4.062  57.469 -21.462  1.00  0.00     0.218 HD
ENDBRANCH  17  20
BRANCH  18  22
HETATM   22  O11         0       6.301  57.860 -20.220  1.00  0.00    -0.357 OA
HETATM   23  H11         0       5.979  56.966 -20.199  1.00  0.00     0.218 HD
ENDBRANCH  18  22
ENDBRANCH   4  14
BRANCH   8  24
HETATM   24  O17         0      13.945  60.068 -26.407  1.00  0.00    -0.359 OA
HETATM   25  H17         0      13.872  60.382 -27.300  1.00  0.00     0.218 HD
ENDBRANCH   8  24
TORSDOF 5
ENDMDL
MODEL 8
REMARK VINA RESULT:      -4.6      2.507      7.143
REMARK  5 active torsions:
REMARK  status: ('A' for Active; 'I' for Inactive)
REMARK    1  A    between atoms: C4_4  and  C5_5 
REMARK    2  A    between atoms: C8_8  and  O9_9 
REMARK    3  A    between atoms: C10_11  and  O11_12 
REMARK    4  A    between atoms: C16_18  and  O17_19 
REMARK    5  A    between atoms: C19_22  and  O20_23 
ROOT
HETATM    1  O1          0      12.962  59.200 -23.444  1.00  0.00    -0.286 OA
HETATM    2  C2          0      11.899  58.846 -24.023  1.00  0.00     0.201 C 
HETATM    3  C3          0      10.657  58.903 -23.414  1.00  0.00     0.067 C 
HETATM    4  C4          0       9.516  58.411 -24.037  1.00  0.00     0.103 C 
HETATM    5  O13         0       9.627  57.895 -25.248  1.00  0.00    -0.307 OA
HETATM    6  C14         0      10.788  57.782 -25.856  1.00  0.00     0.107 C 
HETATM    7  C15         0      10.975  56.907 -26.916  1.00  0.00     0.049 C 
HETATM    8  C16         0      12.248  56.604 -27.385  1.00  0.00     0.093 C 
HETATM    9  C18         0      13.213  57.571 -27.131  1.00  0.00     0.048 C 
HETATM   10  C19         0      13.036  58.492 -26.108  1.00  0.00     0.096 C 
HETATM   11  C21         0      11.894  58.459 -25.354  1.00  0.00     0.084 C 
ENDROOT
BRANCH  10  12
HETATM   12  O20         0      14.145  59.147 -25.582  1.00  0.00    -0.359 OA
HETATM   13  H20         0      14.139  60.097 -25.575  1.00  0.00     0.218 HD
ENDBRANCH  10  12
BRANCH   4  14
HETATM   14  C5          0       8.426  57.953 -23.173  1.00  0.00     0.025 C 
HETATM   15  C6          0       8.425  58.143 -21.799  1.00  0.00     0.004 C 
HETATM   16  C7          0       7.212  58.454 -21.192  1.00  0.00     0.026 C 
HETATM   17  C8          0       6.017  58.445 -21.903  1.00  0.00     0.112 C 
HETATM   18  C10         0       6.028  57.655 -23.045  1.00  0.00     0.112 C 
HETATM   19  C12         0       7.244  57.430 -23.681  1.00  0.00     0.028 C 
BRANCH  17  20
HETATM   20  O9          0       4.999  59.326 -21.588  1.00  0.00    -0.357 OA
HETATM   21  H9          0       5.087  60.272 -21.630  1.00  0.00     0.218 HD
ENDBRANCH  17  20
BRANCH  18  22
HETATM   22  O11         0       4.813  57.460 -23.686  1.00  0.00    -0.357 OA
HETATM   23  H11         0       4.810  56.873 -24.433  1.00  0.00     0.218 HD
ENDBRANCH  18  22
ENDBRANCH   4  14
BRANCH   8  24
HETATM   24  O17         0      12.593  55.303 -27.769  1.00  0.00    -0.359 OA
HETATM   25  H17         0      13.265  55.136 -28.419  1.00  0.00     0.218 HD
ENDBRANCH   8  24
TORSDOF 5
ENDMDL
MODEL 9
REMARK VINA RESULT:      -4.5      2.495      3.173
REMARK  5 active torsions:
REMARK  status: ('A' for Active; 'I' for Inactive)
REMARK    1  A    between atoms: C4_4  and  C5_5 
REMARK    2  A    between atoms: C8_8  and  O9_9 
REMARK    3  A    between atoms: C10_11  and  O11_12 
REMARK    4  A    between atoms: C16_18  and  O17_19 
REMARK    5  A    between atoms: C19_22  and  O20_23 
ROOT
HETATM    1  O1          0       5.858  59.496 -21.609  1.00  0.00    -0.286 OA
HETATM    2  C2          0       6.526  58.495 -21.231  1.00  0.00     0.201 C 
HETATM    3  C3          0       7.908  58.445 -21.302  1.00  0.00     0.067 C 
HETATM    4  C4          0       8.613  57.292 -20.976  1.00  0.00     0.103 C 
HETATM    5  O13         0       7.939  56.229 -20.570  1.00  0.00    -0.307 OA
HETATM    6  C14         0       6.625  56.212 -20.520  1.00  0.00     0.107 C 
HETATM    7  C15         0       5.911  55.023 -20.490  1.00  0.00     0.049 C 
HETATM    8  C16         0       4.537  55.001 -20.695  1.00  0.00     0.093 C 
HETATM    9  C18         0       3.880  56.189 -20.397  1.00  0.00     0.048 C 
HETATM   10  C19         0       4.574  57.391 -20.373  1.00  0.00     0.096 C 
HETATM   11  C21         0       5.919  57.405 -20.627  1.00  0.00     0.084 C 
ENDROOT
BRANCH  10  12
HETATM   12  O20         0       3.872  58.585 -20.512  1.00  0.00    -0.359 OA
HETATM   13  H20         0       4.084  59.142 -21.251  1.00  0.00     0.218 HD
ENDBRANCH  10  12
BRANCH   4  14
HETATM   14  C5          0       9.914  57.098 -21.617  1.00  0.00     0.025 C 
HETATM   15  C6          0      10.174  57.488 -22.923  1.00  0.00     0.004 C 
HETATM   16  C7          0      11.428  58.025 -23.198  1.00  0.00     0.026 C 
HETATM   17  C8          0      12.436  58.052 -22.240  1.00  0.00     0.112 C 
HETATM   18  C10         0      12.303  57.106 -21.232  1.00  0.00     0.112 C 
HETATM   19  C12         0      11.029  56.649 -20.920  1.00  0.00     0.028 C 
BRANCH  17  20
HETATM   20  O9          0      13.357  59.084 -22.209  1.00  0.00    -0.357 OA
HETATM   21  H9          0      14.254  58.982 -21.914  1.00  0.00     0.218 HD
ENDBRANCH  17  20
BRANCH  18  22
HETATM   22  O11         0      13.373  56.963 -20.361  1.00  0.00    -0.357 OA
HETATM   23  H11         0      13.187  57.053 -19.433  1.00  0.00     0.218 HD
ENDBRANCH  18  22
ENDBRANCH   4  14
BRANCH   8  24
HETATM   24  O17         0       3.928  53.993 -21.450  1.00  0.00    -0.359 OA
HETATM   25  H17         0       3.021  53.746 -21.313  1.00  0.00     0.218 HD
ENDBRANCH   8  24
TORSDOF 5
ENDMDL
