MODEL 1
REMARK VINA RESULT:      -0.1      0.000      0.000
REMARK  5 active torsions:
REMARK  status: ('A' for Active; 'I' for Inactive)
REMARK    1  A    between atoms: C4_4  and  C5_5 
REMARK    2  A    between atoms: C8_8  and  O9_9 
REMARK    3  A    between atoms: C10_11  and  O11_12 
REMARK    4  A    between atoms: C16_18  and  O17_19 
REMARK    5  A    between atoms: C19_22  and  O20_23 
ROOT
HETATM    1  O1          0      62.253  71.814   3.265  1.00  0.00    -0.286 OA
HETATM    2  C2          0      61.635  72.497   4.127  1.00  0.00     0.201 C 
HETATM    3  C3          0      61.753  73.873   4.219  1.00  0.00     0.067 C 
HETATM    4  C4          0      61.142  74.590   5.241  1.00  0.00     0.103 C 
HETATM    5  O13         0      60.417  73.935   6.130  1.00  0.00    -0.307 OA
HETATM    6  C14         0      60.303  72.625   6.111  1.00  0.00     0.107 C 
HETATM    7  C15         0      59.898  71.910   7.229  1.00  0.00     0.049 C 
HETATM    8  C16         0      60.023  70.527   7.285  1.00  0.00     0.093 C 
HETATM    9  C18         0      60.050  69.889   6.051  1.00  0.00     0.048 C 
HETATM   10  C19         0      60.405  70.587   4.904  1.00  0.00     0.096 C 
HETATM   11  C21         0      60.715  71.917   4.987  1.00  0.00     0.084 C 
ENDROOT
BRANCH  10  12
HETATM   12  O20         0      60.848  69.882   3.789  1.00  0.00    -0.359 OA
HETATM   13  H20         0      60.656  68.954   3.744  1.00  0.00     0.218 HD
ENDBRANCH  10  12
BRANCH   4  14
HETATM   14  C5          0      61.761  75.858   5.633  1.00  0.00     0.025 C 
HETATM   15  C6          0      61.785  76.309   6.944  1.00  0.00     0.004 C 
HETATM   16  C7          0      62.936  76.956   7.383  1.00  0.00     0.026 C 
HETATM   17  C8          0      63.976  77.263   6.512  1.00  0.00     0.112 C 
HETATM   18  C10         0      63.607  77.354   5.177  1.00  0.00     0.112 C 
HETATM   19  C12         0      62.501  76.630   4.747  1.00  0.00     0.028 C 
BRANCH  17  20
HETATM   20  O9          0      65.290  77.260   6.947  1.00  0.00    -0.357 OA
HETATM   21  H9          0      65.646  77.899   7.553  1.00  0.00     0.218 HD
ENDBRANCH  17  20
BRANCH  18  22
HETATM   22  O11         0      64.559  77.842   4.293  1.00  0.00    -0.357 OA
HETATM   23  H11         0      65.457  77.874   4.603  1.00  0.00     0.218 HD
ENDBRANCH  18  22
ENDBRANCH   4  14
BRANCH   8  24
HETATM   24  O17         0      60.428  69.878   8.457  1.00  0.00    -0.359 OA
HETATM   25  H17         0      61.247  70.091   8.888  1.00  0.00     0.218 HD
ENDBRANCH   8  24
TORSDOF 5
ENDMDL
MODEL 2
REMARK VINA RESULT:      -0.1      1.338      1.399
REMARK  5 active torsions:
REMARK  status: ('A' for Active; 'I' for Inactive)
REMARK    1  A    between atoms: C4_4  and  C5_5 
REMARK    2  A    between atoms: C8_8  and  O9_9 
REMARK    3  A    between atoms: C10_11  and  O11_12 
REMARK    4  A    between atoms: C16_18  and  O17_19 
REMARK    5  A    between atoms: C19_22  and  O20_23 
ROOT
HETATM    1  O1          0      64.078  72.153   4.808  1.00  0.00    -0.286 OA
HETATM    2  C2          0      62.981  72.712   5.083  1.00  0.00     0.201 C 
HETATM    3  C3          0      62.805  74.084   5.033  1.00  0.00     0.067 C 
HETATM    4  C4          0      61.617  74.682   5.440  1.00  0.00     0.103 C 
HETATM    5  O13         0      60.631  73.910   5.863  1.00  0.00    -0.307 OA
HETATM    6  C14         0      60.759  72.606   5.966  1.00  0.00     0.107 C 
HETATM    7  C15         0      59.912  71.849   6.762  1.00  0.00     0.049 C 
HETATM    8  C16         0      60.202  70.524   7.069  1.00  0.00     0.093 C 
HETATM    9  C18         0      61.025  69.877   6.155  1.00  0.00     0.048 C 
HETATM   10  C19         0      61.851  70.606   5.310  1.00  0.00     0.096 C 
HETATM   11  C21         0      61.842  71.973   5.365  1.00  0.00     0.084 C 
ENDROOT
BRANCH  10  12
HETATM   12  O20         0      62.953  69.984   4.733  1.00  0.00    -0.359 OA
HETATM   13  H20         0      62.862  69.078   4.462  1.00  0.00     0.218 HD
ENDBRANCH  10  12
BRANCH   4  14
HETATM   14  C5          0      61.693  76.060   5.928  1.00  0.00     0.025 C 
HETATM   15  C6          0      60.915  76.531   6.975  1.00  0.00     0.004 C 
HETATM   16  C7          0      61.506  77.418   7.869  1.00  0.00     0.026 C 
HETATM   17  C8          0      62.783  77.925   7.657  1.00  0.00     0.112 C 
HETATM   18  C10         0      63.200  77.909   6.333  1.00  0.00     0.112 C 
HETATM   19  C12         0      62.655  76.956   5.480  1.00  0.00     0.028 C 
BRANCH  17  20
HETATM   20  O9          0      63.618  78.212   8.722  1.00  0.00    -0.357 OA
HETATM   21  H9          0      64.566  78.203   8.667  1.00  0.00     0.218 HD
ENDBRANCH  17  20
BRANCH  18  22
HETATM   22  O11         0      64.383  78.573   6.038  1.00  0.00    -0.357 OA
HETATM   23  H11         0      64.512  78.840   5.136  1.00  0.00     0.218 HD
ENDBRANCH  18  22
ENDBRANCH   4  14
BRANCH   8  24
HETATM   24  O17         0      59.967  70.003   8.346  1.00  0.00    -0.359 OA
HETATM   25  H17         0      59.096  69.755   8.632  1.00  0.00     0.218 HD
ENDBRANCH   8  24
TORSDOF 5
ENDMDL
MODEL 3
REMARK VINA RESULT:      -0.1      4.527      6.648
REMARK  5 active torsions:
REMARK  status: ('A' for Active; 'I' for Inactive)
REMARK    1  A    between atoms: C4_4  and  C5_5 
REMARK    2  A    between atoms: C8_8  and  O9_9 
REMARK    3  A    between atoms: C10_11  and  O11_12 
REMARK    4  A    between atoms: C16_18  and  O17_19 
REMARK    5  A    between atoms: C19_22  and  O20_23 
ROOT
HETATM    1  O1          0      64.736  71.532   2.896  1.00  0.00    -0.286 OA
HETATM    2  C2          0      63.666  70.966   2.541  1.00  0.00     0.201 C 
HETATM    3  C3          0      63.291  70.836   1.215  1.00  0.00     0.067 C 
HETATM    4  C4          0      62.059  70.300   0.855  1.00  0.00     0.103 C 
HETATM    5  O13         0      61.243  69.890   1.809  1.00  0.00    -0.307 OA
HETATM    6  C14         0      61.534  70.024   3.085  1.00  0.00     0.107 C 
HETATM    7  C15         0      60.555  69.976   4.067  1.00  0.00     0.049 C 
HETATM    8  C16         0      60.824  70.369   5.373  1.00  0.00     0.093 C 
HETATM    9  C18         0      62.160  70.288   5.747  1.00  0.00     0.048 C 
HETATM   10  C19         0      63.163  70.286   4.788  1.00  0.00     0.096 C 
HETATM   11  C21         0      62.833  70.348   3.461  1.00  0.00     0.084 C 
ENDROOT
BRANCH  10  12
HETATM   12  O20         0      64.457  70.640   5.155  1.00  0.00    -0.359 OA
HETATM   13  H20         0      65.174  70.109   4.829  1.00  0.00     0.218 HD
ENDBRANCH  10  12
BRANCH   4  14
HETATM   14  C5          0      61.489  70.730  -0.423  1.00  0.00     0.025 C 
HETATM   15  C6          0      60.160  71.101  -0.568  1.00  0.00     0.004 C 
HETATM   16  C7          0      59.877  72.166  -1.416  1.00  0.00     0.026 C 
HETATM   17  C8          0      60.863  72.757  -2.199  1.00  0.00     0.112 C 
HETATM   18  C10         0      61.959  71.946  -2.462  1.00  0.00     0.112 C 
HETATM   19  C12         0      62.270  70.942  -1.552  1.00  0.00     0.028 C 
BRANCH  17  20
HETATM   20  O9          0      60.820  74.109  -2.492  1.00  0.00    -0.357 OA
HETATM   21  H9          0      61.530  74.581  -2.912  1.00  0.00     0.218 HD
ENDBRANCH  17  20
BRANCH  18  22
HETATM   22  O11         0      62.880  72.414  -3.388  1.00  0.00    -0.357 OA
HETATM   23  H11         0      62.716  72.205  -4.301  1.00  0.00     0.218 HD
ENDBRANCH  18  22
ENDBRANCH   4  14
BRANCH   8  24
HETATM   24  O17         0      59.893  71.099   6.121  1.00  0.00    -0.359 OA
HETATM   25  H17         0      59.526  70.760   6.928  1.00  0.00     0.218 HD
ENDBRANCH   8  24
TORSDOF 5
ENDMDL
MODEL 4
REMARK VINA RESULT:      -0.1      4.152      7.498
REMARK  5 active torsions:
REMARK  status: ('A' for Active; 'I' for Inactive)
REMARK    1  A    between atoms: C4_4  and  C5_5 
REMARK    2  A    between atoms: C8_8  and  O9_9 
REMARK    3  A    between atoms: C10_11  and  O11_12 
REMARK    4  A    between atoms: C16_18  and  O17_19 
REMARK    5  A    between atoms: C19_22  and  O20_23 
ROOT
HETATM    1  O1          0      65.256  74.766   2.497  1.00  0.00    -0.286 OA
HETATM    2  C2          0      64.459  74.073   1.807  1.00  0.00     0.201 C 
HETATM    3  C3          0      63.189  73.734   2.243  1.00  0.00     0.067 C 
HETATM    4  C4          0      62.369  72.885   1.509  1.00  0.00     0.103 C 
HETATM    5  O13         0      62.814  72.412   0.358  1.00  0.00    -0.307 OA
HETATM    6  C14         0      64.025  72.672  -0.084  1.00  0.00     0.107 C 
HETATM    7  C15         0      64.635  71.886  -1.051  1.00  0.00     0.049 C 
HETATM    8  C16         0      65.991  72.006  -1.328  1.00  0.00     0.093 C 
HETATM    9  C18         0      66.548  73.239  -1.013  1.00  0.00     0.048 C 
HETATM   10  C19         0      65.938  74.071  -0.083  1.00  0.00     0.096 C 
HETATM   11  C21         0      64.771  73.682   0.514  1.00  0.00     0.084 C 
ENDROOT
BRANCH  10  12
HETATM   12  O20         0      66.691  75.062   0.540  1.00  0.00    -0.359 OA
HETATM   13  H20         0      67.462  75.385   0.089  1.00  0.00     0.218 HD
ENDBRANCH  10  12
BRANCH   4  14
HETATM   14  C5          0      61.370  72.113   2.250  1.00  0.00     0.025 C 
HETATM   15  C6          0      61.178  70.752   2.059  1.00  0.00     0.004 C 
HETATM   16  C7          0      60.904  69.976   3.180  1.00  0.00     0.026 C 
HETATM   17  C8          0      60.694  70.549   4.430  1.00  0.00     0.112 C 
HETATM   18  C10         0      60.284  71.875   4.399  1.00  0.00     0.112 C 
HETATM   19  C12         0      60.644  72.652   3.304  1.00  0.00     0.028 C 
BRANCH  17  20
HETATM   20  O9          0      61.079  69.891   5.585  1.00  0.00    -0.357 OA
HETATM   21  H9          0      61.954  69.937   5.953  1.00  0.00     0.218 HD
ENDBRANCH  17  20
BRANCH  18  22
HETATM   22  O11         0      59.880  72.437   5.602  1.00  0.00    -0.357 OA
HETATM   23  H11         0      59.830  71.856   6.352  1.00  0.00     0.218 HD
ENDBRANCH  18  22
ENDBRANCH   4  14
BRANCH   8  24
HETATM   24  O17         0      66.786  70.882  -1.579  1.00  0.00    -0.359 OA
HETATM   25  H17         0      67.629  70.764  -1.158  1.00  0.00     0.218 HD
ENDBRANCH   8  24
TORSDOF 5
ENDMDL
MODEL 5
REMARK VINA RESULT:      -0.1      3.710      6.524
REMARK  5 active torsions:
REMARK  status: ('A' for Active; 'I' for Inactive)
REMARK    1  A    between atoms: C4_4  and  C5_5 
REMARK    2  A    between atoms: C8_8  and  O9_9 
REMARK    3  A    between atoms: C10_11  and  O11_12 
REMARK    4  A    between atoms: C16_18  and  O17_19 
REMARK    5  A    between atoms: C19_22  and  O20_23 
ROOT
HETATM    1  O1          0      65.610  72.855   3.747  1.00  0.00    -0.286 OA
HETATM    2  C2          0      64.740  71.952   3.886  1.00  0.00     0.201 C 
HETATM    3  C3          0      64.279  71.185   2.829  1.00  0.00     0.067 C 
HETATM    4  C4          0      63.247  70.268   2.990  1.00  0.00     0.103 C 
HETATM    5  O13         0      62.713  70.118   4.189  1.00  0.00    -0.307 OA
HETATM    6  C14         0      63.087  70.847   5.218  1.00  0.00     0.107 C 
HETATM    7  C15         0      62.289  70.986   6.344  1.00  0.00     0.049 C 
HETATM    8  C16         0      62.564  71.948   7.309  1.00  0.00     0.093 C 
HETATM    9  C18         0      63.891  72.358   7.368  1.00  0.00     0.048 C 
HETATM   10  C19         0      64.730  72.191   6.274  1.00  0.00     0.096 C 
HETATM   11  C21         0      64.252  71.602   5.135  1.00  0.00     0.084 C 
ENDROOT
BRANCH  10  12
HETATM   12  O20         0      65.879  72.968   6.174  1.00  0.00    -0.359 OA
HETATM   13  H20         0      66.704  72.525   6.013  1.00  0.00     0.218 HD
ENDBRANCH  10  12
BRANCH   4  14
HETATM   14  C5          0      62.432  69.963   1.812  1.00  0.00     0.025 C 
HETATM   15  C6          0      61.048  69.887   1.855  1.00  0.00     0.004 C 
HETATM   16  C7          0      60.341  70.389   0.767  1.00  0.00     0.026 C 
HETATM   17  C8          0      60.988  70.829  -0.383  1.00  0.00     0.112 C 
HETATM   18  C10         0      62.253  70.291  -0.578  1.00  0.00     0.112 C 
HETATM   19  C12         0      62.973  69.875   0.536  1.00  0.00     0.028 C 
BRANCH  17  20
HETATM   20  O9          0      60.474  71.874  -1.130  1.00  0.00    -0.357 OA
HETATM   21  H9          0      59.636  72.287  -0.954  1.00  0.00     0.218 HD
ENDBRANCH  17  20
BRANCH  18  22
HETATM   22  O11         0      62.864  70.547  -1.798  1.00  0.00    -0.357 OA
HETATM   23  H11         0      62.409  70.248  -2.577  1.00  0.00     0.218 HD
ENDBRANCH  18  22
ENDBRANCH   4  14
BRANCH   8  24
HETATM   24  O17         0      61.540  72.678   7.923  1.00  0.00    -0.359 OA
HETATM   25  H17         0      60.776  72.969   7.441  1.00  0.00     0.218 HD
ENDBRANCH   8  24
TORSDOF 5
ENDMDL
MODEL 6
REMARK VINA RESULT:      -0.1      3.876      6.479
REMARK  5 active torsions:
REMARK  status: ('A' for Active; 'I' for Inactive)
REMARK    1  A    between atoms: C4_4  and  C5_5 
REMARK    2  A    between atoms: C8_8  and  O9_9 
REMARK    3  A    between atoms: C10_11  and  O11_12 
REMARK    4  A    between atoms: C16_18  and  O17_19 
REMARK    5  A    between atoms: C19_22  and  O20_23 
ROOT
HETATM    1  O1          0      61.013  75.094   0.277  1.00  0.00    -0.286 OA
HETATM    2  C2          0      60.761  73.899   0.593  1.00  0.00     0.201 C 
HETATM    3  C3          0      60.230  73.543   1.822  1.00  0.00     0.067 C 
HETATM    4  C4          0      60.058  72.211   2.183  1.00  0.00     0.103 C 
HETATM    5  O13         0      60.393  71.271   1.317  1.00  0.00    -0.307 OA
HETATM    6  C14         0      60.935  71.553   0.153  1.00  0.00     0.107 C 
HETATM    7  C15         0      61.643  70.605  -0.572  1.00  0.00     0.049 C 
HETATM    8  C16         0      62.423  70.967  -1.664  1.00  0.00     0.093 C 
HETATM    9  C18         0      62.047  72.150  -2.288  1.00  0.00     0.048 C 
HETATM   10  C19         0      61.298  73.100  -1.606  1.00  0.00     0.096 C 
HETATM   11  C21         0      60.913  72.862  -0.315  1.00  0.00     0.084 C 
ENDROOT
BRANCH  10  12
HETATM   12  O20         0      61.299  74.417  -2.054  1.00  0.00    -0.359 OA
HETATM   13  H20         0      61.277  75.109  -1.404  1.00  0.00     0.218 HD
ENDBRANCH  10  12
BRANCH   4  14
HETATM   14  C5          0      60.085  71.896   3.612  1.00  0.00     0.025 C 
HETATM   15  C6          0      60.468  70.656   4.102  1.00  0.00     0.004 C 
HETATM   16  C7          0      61.218  70.629   5.273  1.00  0.00     0.026 C 
HETATM   17  C8          0      61.465  71.783   6.008  1.00  0.00     0.112 C 
HETATM   18  C10         0      60.549  72.807   5.805  1.00  0.00     0.112 C 
HETATM   19  C12         0      59.875  72.859   4.591  1.00  0.00     0.028 C 
BRANCH  17  20
HETATM   20  O9          0      62.650  71.939   6.705  1.00  0.00    -0.357 OA
HETATM   21  H9          0      63.281  71.241   6.837  1.00  0.00     0.218 HD
ENDBRANCH  17  20
BRANCH  18  22
HETATM   22  O11         0      60.638  73.905   6.648  1.00  0.00    -0.357 OA
HETATM   23  H11         0      61.477  74.060   7.067  1.00  0.00     0.218 HD
ENDBRANCH  18  22
ENDBRANCH   4  14
BRANCH   8  24
HETATM   24  O17         0      63.671  70.378  -1.897  1.00  0.00    -0.359 OA
HETATM   25  H17         0      64.269  70.178  -1.186  1.00  0.00     0.218 HD
ENDBRANCH   8  24
TORSDOF 5
ENDMDL
MODEL 7
REMARK VINA RESULT:      -0.0      3.901      7.792
REMARK  5 active torsions:
REMARK  status: ('A' for Active; 'I' for Inactive)
REMARK    1  A    between atoms: C4_4  and  C5_5 
REMARK    2  A    between atoms: C8_8  and  O9_9 
REMARK    3  A    between atoms: C10_11  and  O11_12 
REMARK    4  A    between atoms: C16_18  and  O17_19 
REMARK    5  A    between atoms: C19_22  and  O20_23 
ROOT
HETATM    1  O1          0      62.623  77.024   2.933  1.00  0.00    -0.286 OA
HETATM    2  C2          0      61.984  76.292   2.128  1.00  0.00     0.201 C 
HETATM    3  C3          0      61.158  75.262   2.544  1.00  0.00     0.067 C 
HETATM    4  C4          0      60.547  74.405   1.635  1.00  0.00     0.103 C 
HETATM    5  O13         0      60.750  74.600   0.344  1.00  0.00    -0.307 OA
HETATM    6  C14         0      61.554  75.540  -0.103  1.00  0.00     0.107 C 
HETATM    7  C15         0      62.080  75.502  -1.386  1.00  0.00     0.049 C 
HETATM    8  C16         0      63.117  76.345  -1.767  1.00  0.00     0.093 C 
HETATM    9  C18         0      63.218  77.519  -1.031  1.00  0.00     0.048 C 
HETATM   10  C19         0      62.663  77.607   0.238  1.00  0.00     0.096 C 
HETATM   11  C21         0      61.996  76.534   0.763  1.00  0.00     0.084 C 
ENDROOT
BRANCH  10  12
HETATM   12  O20         0      63.125  78.582   1.117  1.00  0.00    -0.359 OA
HETATM   13  H20         0      63.995  78.934   0.973  1.00  0.00     0.218 HD
ENDBRANCH  10  12
BRANCH   4  14
HETATM   14  C5          0      60.220  73.057   2.101  1.00  0.00     0.025 C 
HETATM   15  C6          0      60.367  71.930   1.306  1.00  0.00     0.004 C 
HETATM   16  C7          0      60.825  70.766   1.915  1.00  0.00     0.026 C 
HETATM   17  C8          0      61.003  70.685   3.292  1.00  0.00     0.112 C 
HETATM   18  C10         0      60.254  71.593   4.028  1.00  0.00     0.112 C 
HETATM   19  C12         0      59.881  72.787   3.421  1.00  0.00     0.028 C 
BRANCH  17  20
HETATM   20  O9          0      62.007  69.902   3.832  1.00  0.00    -0.357 OA
HETATM   21  H9          0      62.519  69.278   3.329  1.00  0.00     0.218 HD
ENDBRANCH  17  20
BRANCH  18  22
HETATM   22  O11         0      60.248  71.433   5.406  1.00  0.00    -0.357 OA
HETATM   23  H11         0      60.432  70.561   5.738  1.00  0.00     0.218 HD
ENDBRANCH  18  22
ENDBRANCH   4  14
BRANCH   8  24
HETATM   24  O17         0      64.163  75.893  -2.580  1.00  0.00    -0.359 OA
HETATM   25  H17         0      64.044  75.748  -3.511  1.00  0.00     0.218 HD
ENDBRANCH   8  24
TORSDOF 5
ENDMDL
MODEL 8
REMARK VINA RESULT:      -0.0      2.354      7.154
REMARK  5 active torsions:
REMARK  status: ('A' for Active; 'I' for Inactive)
REMARK    1  A    between atoms: C4_4  and  C5_5 
REMARK    2  A    between atoms: C8_8  and  O9_9 
REMARK    3  A    between atoms: C10_11  and  O11_12 
REMARK    4  A    between atoms: C16_18  and  O17_19 
REMARK    5  A    between atoms: C19_22  and  O20_23 
ROOT
HETATM    1  O1          0      64.370  76.124   4.755  1.00  0.00    -0.286 OA
HETATM    2  C2          0      63.187  75.966   4.345  1.00  0.00     0.201 C 
HETATM    3  C3          0      62.444  74.831   4.617  1.00  0.00     0.067 C 
HETATM    4  C4          0      61.181  74.637   4.068  1.00  0.00     0.103 C 
HETATM    5  O13         0      60.680  75.575   3.284  1.00  0.00    -0.307 OA
HETATM    6  C14         0      61.359  76.655   2.963  1.00  0.00     0.107 C 
HETATM    7  C15         0      61.026  77.426   1.859  1.00  0.00     0.049 C 
HETATM    8  C16         0      61.886  78.407   1.378  1.00  0.00     0.093 C 
HETATM    9  C18         0      62.774  78.919   2.315  1.00  0.00     0.048 C 
HETATM   10  C19         0      63.094  78.194   3.455  1.00  0.00     0.096 C 
HETATM   11  C21         0      62.516  76.972   3.666  1.00  0.00     0.084 C 
ENDROOT
BRANCH  10  12
HETATM   12  O20         0      64.267  78.488   4.142  1.00  0.00    -0.359 OA
HETATM   13  H20         0      64.400  78.083   4.991  1.00  0.00     0.218 HD
ENDBRANCH  10  12
BRANCH   4  14
HETATM   14  C5          0      60.733  73.255   3.888  1.00  0.00     0.025 C 
HETATM   15  C6          0      59.959  72.850   2.811  1.00  0.00     0.004 C 
HETATM   16  C7          0      60.227  71.602   2.258  1.00  0.00     0.026 C 
HETATM   17  C8          0      61.143  70.729   2.836  1.00  0.00     0.112 C 
HETATM   18  C10         0      61.370  70.940   4.189  1.00  0.00     0.112 C 
HETATM   19  C12         0      61.175  72.218   4.700  1.00  0.00     0.028 C 
BRANCH  17  20
HETATM   20  O9          0      61.901  69.876   2.054  1.00  0.00    -0.357 OA
HETATM   21  H9          0      61.630  69.564   1.198  1.00  0.00     0.218 HD
ENDBRANCH  17  20
BRANCH  18  22
HETATM   22  O11         0      62.125  69.986   4.856  1.00  0.00    -0.357 OA
HETATM   23  H11         0      62.919  70.287   5.283  1.00  0.00     0.218 HD
ENDBRANCH  18  22
ENDBRANCH   4  14
BRANCH   8  24
HETATM   24  O17         0      62.067  78.608   0.005  1.00  0.00    -0.359 OA
HETATM   25  H17         0      62.922  78.802  -0.362  1.00  0.00     0.218 HD
ENDBRANCH   8  24
TORSDOF 5
ENDMDL
MODEL 9
REMARK VINA RESULT:      -0.0      1.963      2.466
REMARK  5 active torsions:
REMARK  status: ('A' for Active; 'I' for Inactive)
REMARK    1  A    between atoms: C4_4  and  C5_5 
REMARK    2  A    between atoms: C8_8  and  O9_9 
REMARK    3  A    between atoms: C10_11  and  O11_12 
REMARK    4  A    between atoms: C16_18  and  O17_19 
REMARK    5  A    between atoms: C19_22  and  O20_23 
ROOT
HETATM    1  O1          0      60.787  71.828   5.345  1.00  0.00    -0.286 OA
HETATM    2  C2          0      61.085  72.578   6.315  1.00  0.00     0.201 C 
HETATM    3  C3          0      61.223  73.949   6.188  1.00  0.00     0.067 C 
HETATM    4  C4          0      61.652  74.739   7.249  1.00  0.00     0.103 C 
HETATM    5  O13         0      61.912  74.160   8.407  1.00  0.00    -0.307 OA
HETATM    6  C14         0      61.833  72.857   8.571  1.00  0.00     0.107 C 
HETATM    7  C15         0      62.471  72.212   9.621  1.00  0.00     0.049 C 
HETATM    8  C16         0      62.598  70.829   9.647  1.00  0.00     0.093 C 
HETATM    9  C18         0      61.643  70.137   8.912  1.00  0.00     0.048 C 
HETATM   10  C19         0      60.953  70.766   7.884  1.00  0.00     0.096 C 
HETATM   11  C21         0      61.202  72.082   7.604  1.00  0.00     0.084 C 
ENDROOT
BRANCH  10  12
HETATM   12  O20         0      60.348  69.992   6.899  1.00  0.00    -0.359 OA
HETATM   13  H20         0      59.439  69.745   7.022  1.00  0.00     0.218 HD
ENDBRANCH  10  12
BRANCH   4  14
HETATM   14  C5          0      62.336  75.991   6.918  1.00  0.00     0.025 C 
HETATM   15  C6          0      63.344  76.529   7.705  1.00  0.00     0.004 C 
HETATM   16  C7          0      64.416  77.133   7.056  1.00  0.00     0.026 C 
HETATM   17  C8          0      64.423  77.318   5.678  1.00  0.00     0.112 C 
HETATM   18  C10         0      63.166  77.340   5.089  1.00  0.00     0.112 C 
HETATM   19  C12         0      62.131  76.655   5.715  1.00  0.00     0.028 C 
BRANCH  17  20
HETATM   20  O9          0      65.606  77.265   4.962  1.00  0.00    -0.357 OA
HETATM   21  H9          0      66.430  77.619   5.277  1.00  0.00     0.218 HD
ENDBRANCH  17  20
BRANCH  18  22
HETATM   22  O11         0      63.105  77.708   3.752  1.00  0.00    -0.357 OA
HETATM   23  H11         0      63.867  77.516   3.218  1.00  0.00     0.218 HD
ENDBRANCH  18  22
ENDBRANCH   4  14
BRANCH   8  24
HETATM   24  O17         0      63.775  70.213  10.089  1.00  0.00    -0.359 OA
HETATM   25  H17         0      63.769  69.564  10.782  1.00  0.00     0.218 HD
ENDBRANCH   8  24
TORSDOF 5
ENDMDL
