MODEL 1
REMARK VINA RESULT:      -6.7      0.000      0.000
REMARK  5 active torsions:
REMARK  status: ('A' for Active; 'I' for Inactive)
REMARK    1  A    between atoms: C4_4  and  C5_5 
REMARK    2  A    between atoms: C8_8  and  O9_9 
REMARK    3  A    between atoms: C10_11  and  O11_12 
REMARK    4  A    between atoms: C16_18  and  O17_19 
REMARK    5  A    between atoms: C19_22  and  O20_23 
ROOT
HETATM    1  O1          0      51.277  67.143  -1.729  1.00  0.00    -0.286 OA
HETATM    2  C2          0      51.534  68.112  -2.495  1.00  0.00     0.201 C 
HETATM    3  C3          0      51.153  69.413  -2.213  1.00  0.00     0.067 C 
HETATM    4  C4          0      51.358  70.445  -3.122  1.00  0.00     0.103 C 
HETATM    5  O13         0      51.949  70.170  -4.272  1.00  0.00    -0.307 OA
HETATM    6  C14         0      52.296  68.946  -4.605  1.00  0.00     0.107 C 
HETATM    7  C15         0      52.537  68.588  -5.923  1.00  0.00     0.049 C 
HETATM    8  C16         0      52.650  67.255  -6.300  1.00  0.00     0.093 C 
HETATM    9  C18         0      53.039  66.390  -5.284  1.00  0.00     0.048 C 
HETATM   10  C19         0      52.856  66.737  -3.953  1.00  0.00     0.096 C 
HETATM   11  C21         0      52.304  67.948  -3.637  1.00  0.00     0.084 C 
ENDROOT
BRANCH  10  12
HETATM   12  O20         0      52.832  65.736  -2.986  1.00  0.00    -0.359 OA
HETATM   13  H20         0      53.244  65.915  -2.149  1.00  0.00     0.218 HD
ENDBRANCH  10  12
BRANCH   4  14
HETATM   14  C5          0      50.447  71.588  -3.054  1.00  0.00     0.025 C 
HETATM   15  C6          0      49.368  71.742  -3.913  1.00  0.00     0.004 C 
HETATM   16  C7          0      48.192  72.263  -3.383  1.00  0.00     0.026 C 
HETATM   17  C8          0      48.127  72.739  -2.078  1.00  0.00     0.112 C 
HETATM   18  C10         0      49.349  73.124  -1.540  1.00  0.00     0.112 C 
HETATM   19  C12         0      50.503  72.525  -2.030  1.00  0.00     0.028 C 
BRANCH  17  20
HETATM   20  O9          0      46.964  72.624  -1.338  1.00  0.00    -0.357 OA
HETATM   21  H9          0      46.948  72.485  -0.398  1.00  0.00     0.218 HD
ENDBRANCH  17  20
BRANCH  18  22
HETATM   22  O11         0      49.318  73.780  -0.318  1.00  0.00    -0.357 OA
HETATM   23  H11         0      49.637  73.298   0.436  1.00  0.00     0.218 HD
ENDBRANCH  18  22
ENDBRANCH   4  14
BRANCH   8  24
HETATM   24  O17         0      52.094  66.785  -7.494  1.00  0.00    -0.359 OA
HETATM   25  H17         0      52.556  66.169  -8.051  1.00  0.00     0.218 HD
ENDBRANCH   8  24
TORSDOF 5
ENDMDL
MODEL 2
REMARK VINA RESULT:      -6.5      1.849      3.103
REMARK  5 active torsions:
REMARK  status: ('A' for Active; 'I' for Inactive)
REMARK    1  A    between atoms: C4_4  and  C5_5 
REMARK    2  A    between atoms: C8_8  and  O9_9 
REMARK    3  A    between atoms: C10_11  and  O11_12 
REMARK    4  A    between atoms: C16_18  and  O17_19 
REMARK    5  A    between atoms: C19_22  and  O20_23 
ROOT
HETATM    1  O1          0      50.572  69.129  -5.766  1.00  0.00    -0.286 OA
HETATM    2  C2          0      50.599  69.346  -4.524  1.00  0.00     0.201 C 
HETATM    3  C3          0      50.048  70.478  -3.947  1.00  0.00     0.067 C 
HETATM    4  C4          0      50.182  70.743  -2.589  1.00  0.00     0.103 C 
HETATM    5  O13         0      50.835  69.876  -1.835  1.00  0.00    -0.307 OA
HETATM    6  C14         0      51.409  68.805  -2.338  1.00  0.00     0.107 C 
HETATM    7  C15         0      52.408  68.124  -1.657  1.00  0.00     0.049 C 
HETATM    8  C16         0      53.182  67.158  -2.289  1.00  0.00     0.093 C 
HETATM    9  C18         0      52.587  66.557  -3.391  1.00  0.00     0.048 C 
HETATM   10  C19         0      51.553  67.191  -4.068  1.00  0.00     0.096 C 
HETATM   11  C21         0      51.105  68.409  -3.636  1.00  0.00     0.084 C 
ENDROOT
BRANCH  10  12
HETATM   12  O20         0      51.268  66.818  -5.378  1.00  0.00    -0.359 OA
HETATM   13  H20         0      50.414  67.040  -5.728  1.00  0.00     0.218 HD
ENDBRANCH  10  12
BRANCH   4  14
HETATM   14  C5          0      50.135  72.145  -2.172  1.00  0.00     0.025 C 
HETATM   15  C6          0      51.262  72.954  -2.125  1.00  0.00     0.004 C 
HETATM   16  C7          0      51.120  74.280  -2.518  1.00  0.00     0.026 C 
HETATM   17  C8          0      49.876  74.823  -2.821  1.00  0.00     0.112 C 
HETATM   18  C10         0      48.799  74.162  -2.244  1.00  0.00     0.112 C 
HETATM   19  C12         0      48.940  72.813  -1.939  1.00  0.00     0.028 C 
BRANCH  17  20
HETATM   20  O9          0      49.746  75.804  -3.787  1.00  0.00    -0.357 OA
HETATM   21  H9          0      49.637  76.727  -3.591  1.00  0.00     0.218 HD
ENDBRANCH  17  20
BRANCH  18  22
HETATM   22  O11         0      47.556  74.768  -2.357  1.00  0.00    -0.357 OA
HETATM   23  H11         0      46.950  74.642  -1.636  1.00  0.00     0.218 HD
ENDBRANCH  18  22
ENDBRANCH   4  14
BRANCH   8  24
HETATM   24  O17         0      54.556  67.051  -2.045  1.00  0.00    -0.359 OA
HETATM   25  H17         0      54.925  66.303  -1.591  1.00  0.00     0.218 HD
ENDBRANCH   8  24
TORSDOF 5
ENDMDL
MODEL 3
REMARK VINA RESULT:      -6.5      1.900      6.870
REMARK  5 active torsions:
REMARK  status: ('A' for Active; 'I' for Inactive)
REMARK    1  A    between atoms: C4_4  and  C5_5 
REMARK    2  A    between atoms: C8_8  and  O9_9 
REMARK    3  A    between atoms: C10_11  and  O11_12 
REMARK    4  A    between atoms: C16_18  and  O17_19 
REMARK    5  A    between atoms: C19_22  and  O20_23 
ROOT
HETATM    1  O1          0      52.121  73.384  -4.951  1.00  0.00    -0.286 OA
HETATM    2  C2          0      51.567  72.620  -4.114  1.00  0.00     0.201 C 
HETATM    3  C3          0      51.798  71.255  -4.076  1.00  0.00     0.067 C 
HETATM    4  C4          0      51.097  70.422  -3.212  1.00  0.00     0.103 C 
HETATM    5  O13         0      50.205  70.957  -2.397  1.00  0.00    -0.307 OA
HETATM    6  C14         0      49.921  72.241  -2.418  1.00  0.00     0.107 C 
HETATM    7  C15         0      48.744  72.738  -1.878  1.00  0.00     0.049 C 
HETATM    8  C16         0      48.330  74.042  -2.125  1.00  0.00     0.093 C 
HETATM    9  C18         0      49.349  74.928  -2.452  1.00  0.00     0.048 C 
HETATM   10  C19         0      50.557  74.462  -2.951  1.00  0.00     0.096 C 
HETATM   11  C21         0      50.753  73.117  -3.107  1.00  0.00     0.084 C 
ENDROOT
BRANCH  10  12
HETATM   12  O20         0      51.377  75.328  -3.668  1.00  0.00    -0.359 OA
HETATM   13  H20         0      51.731  75.024  -4.495  1.00  0.00     0.218 HD
ENDBRANCH  10  12
BRANCH   4  14
HETATM   14  C5          0      50.932  69.024  -3.616  1.00  0.00     0.025 C 
HETATM   15  C6          0      50.503  68.653  -4.882  1.00  0.00     0.004 C 
HETATM   16  C7          0      51.090  67.532  -5.459  1.00  0.00     0.026 C 
HETATM   17  C8          0      51.976  66.727  -4.751  1.00  0.00     0.112 C 
HETATM   18  C10         0      51.848  66.798  -3.370  1.00  0.00     0.112 C 
HETATM   19  C12         0      51.337  67.965  -2.814  1.00  0.00     0.028 C 
BRANCH  17  20
HETATM   20  O9          0      53.022  66.088  -5.393  1.00  0.00    -0.357 OA
HETATM   21  H9          0      53.716  66.545  -5.855  1.00  0.00     0.218 HD
ENDBRANCH  17  20
BRANCH  18  22
HETATM   22  O11         0      52.573  65.881  -2.624  1.00  0.00    -0.357 OA
HETATM   23  H11         0      53.466  65.710  -2.901  1.00  0.00     0.218 HD
ENDBRANCH  18  22
ENDBRANCH   4  14
BRANCH   8  24
HETATM   24  O17         0      46.985  74.348  -2.357  1.00  0.00    -0.359 OA
HETATM   25  H17         0      46.283  73.822  -1.992  1.00  0.00     0.218 HD
ENDBRANCH   8  24
TORSDOF 5
ENDMDL
MODEL 4
REMARK VINA RESULT:      -6.2      1.813      2.258
REMARK  5 active torsions:
REMARK  status: ('A' for Active; 'I' for Inactive)
REMARK    1  A    between atoms: C4_4  and  C5_5 
REMARK    2  A    between atoms: C8_8  and  O9_9 
REMARK    3  A    between atoms: C10_11  and  O11_12 
REMARK    4  A    between atoms: C16_18  and  O17_19 
REMARK    5  A    between atoms: C19_22  and  O20_23 
ROOT
HETATM    1  O1          0      52.048  66.502  -1.854  1.00  0.00    -0.286 OA
HETATM    2  C2          0      52.347  67.514  -2.545  1.00  0.00     0.201 C 
HETATM    3  C3          0      51.947  68.797  -2.210  1.00  0.00     0.067 C 
HETATM    4  C4          0      52.203  69.881  -3.042  1.00  0.00     0.103 C 
HETATM    5  O13         0      52.863  69.675  -4.168  1.00  0.00    -0.307 OA
HETATM    6  C14         0      53.233  68.472  -4.551  1.00  0.00     0.107 C 
HETATM    7  C15         0      53.553  68.193  -5.872  1.00  0.00     0.049 C 
HETATM    8  C16         0      53.693  66.884  -6.319  1.00  0.00     0.093 C 
HETATM    9  C18         0      54.023  65.960  -5.335  1.00  0.00     0.048 C 
HETATM   10  C19         0      53.759  66.228  -3.998  1.00  0.00     0.096 C 
HETATM   11  C21         0      53.185  67.418  -3.645  1.00  0.00     0.084 C 
ENDROOT
BRANCH  10  12
HETATM   12  O20         0      53.680  65.172  -3.096  1.00  0.00    -0.359 OA
HETATM   13  H20         0      52.920  64.605  -3.140  1.00  0.00     0.218 HD
ENDBRANCH  10  12
BRANCH   4  14
HETATM   14  C5          0      51.285  71.019  -2.961  1.00  0.00     0.025 C 
HETATM   15  C6          0      51.655  72.247  -2.433  1.00  0.00     0.004 C 
HETATM   16  C7          0      51.161  73.390  -3.054  1.00  0.00     0.026 C 
HETATM   17  C8          0      50.225  73.317  -4.079  1.00  0.00     0.112 C 
HETATM   18  C10         0      49.471  72.150  -4.094  1.00  0.00     0.112 C 
HETATM   19  C12         0      50.024  71.000  -3.542  1.00  0.00     0.028 C 
BRANCH  17  20
HETATM   20  O9          0      50.220  74.247  -5.103  1.00  0.00    -0.357 OA
HETATM   21  H9          0      50.263  74.018  -6.025  1.00  0.00     0.218 HD
ENDBRANCH  17  20
BRANCH  18  22
HETATM   22  O11         0      48.400  72.105  -4.974  1.00  0.00    -0.357 OA
HETATM   23  H11         0      47.529  72.093  -4.592  1.00  0.00     0.218 HD
ENDBRANCH  18  22
ENDBRANCH   4  14
BRANCH   8  24
HETATM   24  O17         0      53.212  66.486  -7.571  1.00  0.00    -0.359 OA
HETATM   25  H17         0      52.750  65.664  -7.689  1.00  0.00     0.218 HD
ENDBRANCH   8  24
TORSDOF 5
ENDMDL
MODEL 5
REMARK VINA RESULT:      -6.1      1.715      2.767
REMARK  5 active torsions:
REMARK  status: ('A' for Active; 'I' for Inactive)
REMARK    1  A    between atoms: C4_4  and  C5_5 
REMARK    2  A    between atoms: C8_8  and  O9_9 
REMARK    3  A    between atoms: C10_11  and  O11_12 
REMARK    4  A    between atoms: C16_18  and  O17_19 
REMARK    5  A    between atoms: C19_22  and  O20_23 
ROOT
HETATM    1  O1          0      54.453  70.932  -4.629  1.00  0.00    -0.286 OA
HETATM    2  C2          0      53.196  70.847  -4.559  1.00  0.00     0.201 C 
HETATM    3  C3          0      52.398  71.888  -4.117  1.00  0.00     0.067 C 
HETATM    4  C4          0      51.026  71.735  -3.952  1.00  0.00     0.103 C 
HETATM    5  O13         0      50.478  70.568  -4.245  1.00  0.00    -0.307 OA
HETATM    6  C14         0      51.195  69.537  -4.632  1.00  0.00     0.107 C 
HETATM    7  C15         0      50.711  68.239  -4.555  1.00  0.00     0.049 C 
HETATM    8  C16         0      51.550  67.144  -4.720  1.00  0.00     0.093 C 
HETATM    9  C18         0      52.698  67.391  -5.463  1.00  0.00     0.048 C 
HETATM   10  C19         0      53.185  68.684  -5.600  1.00  0.00     0.096 C 
HETATM   11  C21         0      52.520  69.726  -5.013  1.00  0.00     0.084 C 
ENDROOT
BRANCH  10  12
HETATM   12  O20         0      54.518  68.876  -5.949  1.00  0.00    -0.359 OA
HETATM   13  H20         0      54.889  69.742  -5.831  1.00  0.00     0.218 HD
ENDBRANCH  10  12
BRANCH   4  14
HETATM   14  C5          0      50.370  72.593  -2.964  1.00  0.00     0.025 C 
HETATM   15  C6          0      50.654  73.945  -2.835  1.00  0.00     0.004 C 
HETATM   16  C7          0      49.595  74.803  -2.560  1.00  0.00     0.026 C 
HETATM   17  C8          0      48.318  74.322  -2.288  1.00  0.00     0.112 C 
HETATM   18  C10         0      48.278  73.014  -1.823  1.00  0.00     0.112 C 
HETATM   19  C12         0      49.308  72.153  -2.184  1.00  0.00     0.028 C 
BRANCH  17  20
HETATM   20  O9          0      47.196  75.038  -2.664  1.00  0.00    -0.357 OA
HETATM   21  H9          0      47.188  75.675  -3.369  1.00  0.00     0.218 HD
ENDBRANCH  17  20
BRANCH  18  22
HETATM   22  O11         0      47.056  72.549  -1.359  1.00  0.00    -0.357 OA
HETATM   23  H11         0      46.520  72.061  -1.974  1.00  0.00     0.218 HD
ENDBRANCH  18  22
ENDBRANCH   4  14
BRANCH   8  24
HETATM   24  O17         0      51.420  65.999  -3.926  1.00  0.00    -0.359 OA
HETATM   25  H17         0      51.405  66.048  -2.977  1.00  0.00     0.218 HD
ENDBRANCH   8  24
TORSDOF 5
ENDMDL
MODEL 6
REMARK VINA RESULT:      -6.0     13.253     15.331
REMARK  5 active torsions:
REMARK  status: ('A' for Active; 'I' for Inactive)
REMARK    1  A    between atoms: C4_4  and  C5_5 
REMARK    2  A    between atoms: C8_8  and  O9_9 
REMARK    3  A    between atoms: C10_11  and  O11_12 
REMARK    4  A    between atoms: C16_18  and  O17_19 
REMARK    5  A    between atoms: C19_22  and  O20_23 
ROOT
HETATM    1  O1          0      48.548  72.258 -14.752  1.00  0.00    -0.286 OA
HETATM    2  C2          0      47.548  72.607 -15.438  1.00  0.00     0.201 C 
HETATM    3  C3          0      46.431  71.805 -15.596  1.00  0.00     0.067 C 
HETATM    4  C4          0      45.387  72.168 -16.440  1.00  0.00     0.103 C 
HETATM    5  O13         0      45.465  73.318 -17.087  1.00  0.00    -0.307 OA
HETATM    6  C14         0      46.519  74.099 -17.001  1.00  0.00     0.107 C 
HETATM    7  C15         0      46.786  75.074 -17.951  1.00  0.00     0.049 C 
HETATM    8  C16         0      48.017  75.716 -18.000  1.00  0.00     0.093 C 
HETATM    9  C18         0      48.717  75.736 -16.799  1.00  0.00     0.048 C 
HETATM   10  C19         0      48.443  74.804 -15.808  1.00  0.00     0.096 C 
HETATM   11  C21         0      47.465  73.868 -16.007  1.00  0.00     0.084 C 
ENDROOT
BRANCH  10  12
HETATM   12  O20         0      49.400  74.549 -14.831  1.00  0.00    -0.359 OA
HETATM   13  H20         0      50.068  73.901 -15.020  1.00  0.00     0.218 HD
ENDBRANCH  10  12
BRANCH   4  14
HETATM   14  C5          0      44.586  71.088 -17.017  1.00  0.00     0.025 C 
HETATM   15  C6          0      44.952  70.414 -18.174  1.00  0.00     0.004 C 
HETATM   16  C7          0      44.710  69.045 -18.226  1.00  0.00     0.026 C 
HETATM   17  C8          0      44.007  68.389 -17.222  1.00  0.00     0.112 C 
HETATM   18  C10         0      43.166  69.205 -16.476  1.00  0.00     0.112 C 
HETATM   19  C12         0      43.478  70.555 -16.370  1.00  0.00     0.028 C 
BRANCH  17  20
HETATM   20  O9          0      44.306  67.081 -16.885  1.00  0.00    -0.357 OA
HETATM   21  H9          0      45.053  66.605 -17.229  1.00  0.00     0.218 HD
ENDBRANCH  17  20
BRANCH  18  22
HETATM   22  O11         0      42.303  68.575 -15.590  1.00  0.00    -0.357 OA
HETATM   23  H11         0      41.946  69.105 -14.887  1.00  0.00     0.218 HD
ENDBRANCH  18  22
ENDBRANCH   4  14
BRANCH   8  24
HETATM   24  O17         0      48.639  76.010 -19.219  1.00  0.00    -0.359 OA
HETATM   25  H17         0      48.314  75.664 -20.041  1.00  0.00     0.218 HD
ENDBRANCH   8  24
TORSDOF 5
ENDMDL
MODEL 7
REMARK VINA RESULT:      -5.8      2.357      7.193
REMARK  5 active torsions:
REMARK  status: ('A' for Active; 'I' for Inactive)
REMARK    1  A    between atoms: C4_4  and  C5_5 
REMARK    2  A    between atoms: C8_8  and  O9_9 
REMARK    3  A    between atoms: C10_11  and  O11_12 
REMARK    4  A    between atoms: C16_18  and  O17_19 
REMARK    5  A    between atoms: C19_22  and  O20_23 
ROOT
HETATM    1  O1          0      53.245  67.654  -1.085  1.00  0.00    -0.286 OA
HETATM    2  C2          0      52.679  67.538  -2.206  1.00  0.00     0.201 C 
HETATM    3  C3          0      52.991  66.532  -3.105  1.00  0.00     0.067 C 
HETATM    4  C4          0      52.426  66.488  -4.374  1.00  0.00     0.103 C 
HETATM    5  O13         0      51.556  67.422  -4.715  1.00  0.00    -0.307 OA
HETATM    6  C14         0      51.252  68.420  -3.913  1.00  0.00     0.107 C 
HETATM    7  C15         0      50.674  69.588  -4.388  1.00  0.00     0.049 C 
HETATM    8  C16         0      50.590  70.726  -3.595  1.00  0.00     0.093 C 
HETATM    9  C18         0      50.604  70.489  -2.225  1.00  0.00     0.048 C 
HETATM   10  C19         0      51.133  69.310  -1.719  1.00  0.00     0.096 C 
HETATM   11  C21         0      51.629  68.365  -2.576  1.00  0.00     0.084 C 
ENDROOT
BRANCH  10  12
HETATM   12  O20         0      51.540  69.262  -0.389  1.00  0.00    -0.359 OA
HETATM   13  H20         0      52.043  68.509  -0.104  1.00  0.00     0.218 HD
ENDBRANCH  10  12
BRANCH   4  14
HETATM   14  C5          0      53.198  65.827  -5.428  1.00  0.00     0.025 C 
HETATM   15  C6          0      53.521  66.447  -6.626  1.00  0.00     0.004 C 
HETATM   16  C7          0      54.779  66.195  -7.163  1.00  0.00     0.026 C 
HETATM   17  C8          0      55.637  65.256  -6.602  1.00  0.00     0.112 C 
HETATM   18  C10         0      55.009  64.277  -5.844  1.00  0.00     0.112 C 
HETATM   19  C12         0      53.792  64.584  -5.247  1.00  0.00     0.028 C 
BRANCH  17  20
HETATM   20  O9          0      57.009  65.435  -6.641  1.00  0.00    -0.357 OA
HETATM   21  H9          0      57.491  65.648  -7.431  1.00  0.00     0.218 HD
ENDBRANCH  17  20
BRANCH  18  22
HETATM   22  O11         0      55.791  63.212  -5.419  1.00  0.00    -0.357 OA
HETATM   23  H11         0      55.508  62.757  -4.635  1.00  0.00     0.218 HD
ENDBRANCH  18  22
ENDBRANCH   4  14
BRANCH   8  24
HETATM   24  O17         0      50.817  72.002  -4.123  1.00  0.00    -0.359 OA
HETATM   25  H17         0      51.258  72.678  -3.623  1.00  0.00     0.218 HD
ENDBRANCH   8  24
TORSDOF 5
ENDMDL
MODEL 8
REMARK VINA RESULT:      -5.7      1.872      3.534
REMARK  5 active torsions:
REMARK  status: ('A' for Active; 'I' for Inactive)
REMARK    1  A    between atoms: C4_4  and  C5_5 
REMARK    2  A    between atoms: C8_8  and  O9_9 
REMARK    3  A    between atoms: C10_11  and  O11_12 
REMARK    4  A    between atoms: C16_18  and  O17_19 
REMARK    5  A    between atoms: C19_22  and  O20_23 
ROOT
HETATM    1  O1          0      53.554  68.163  -7.366  1.00  0.00    -0.286 OA
HETATM    2  C2          0      52.981  68.137  -6.243  1.00  0.00     0.201 C 
HETATM    3  C3          0      52.160  69.159  -5.795  1.00  0.00     0.067 C 
HETATM    4  C4          0      51.623  69.153  -4.513  1.00  0.00     0.103 C 
HETATM    5  O13         0      51.893  68.134  -3.716  1.00  0.00    -0.307 OA
HETATM    6  C14         0      52.696  67.158  -4.078  1.00  0.00     0.107 C 
HETATM    7  C15         0      53.293  66.320  -3.147  1.00  0.00     0.049 C 
HETATM    8  C16         0      54.328  65.464  -3.505  1.00  0.00     0.093 C 
HETATM    9  C18         0      54.357  65.109  -4.848  1.00  0.00     0.048 C 
HETATM   10  C19         0      53.729  65.899  -5.801  1.00  0.00     0.096 C 
HETATM   11  C21         0      53.062  67.029  -5.413  1.00  0.00     0.084 C 
ENDROOT
BRANCH  10  12
HETATM   12  O20         0      54.116  65.795  -7.134  1.00  0.00    -0.359 OA
HETATM   13  H20         0      54.506  66.558  -7.545  1.00  0.00     0.218 HD
ENDBRANCH  10  12
BRANCH   4  14
HETATM   14  C5          0      51.306  70.451  -3.914  1.00  0.00     0.025 C 
HETATM   15  C6          0      52.244  71.463  -3.772  1.00  0.00     0.004 C 
HETATM   16  C7          0      51.819  72.770  -3.985  1.00  0.00     0.026 C 
HETATM   17  C8          0      50.480  73.076  -4.201  1.00  0.00     0.112 C 
HETATM   18  C10         0      49.584  72.138  -3.706  1.00  0.00     0.112 C 
HETATM   19  C12         0      50.009  70.820  -3.582  1.00  0.00     0.028 C 
BRANCH  17  20
HETATM   20  O9          0      50.116  74.124  -5.028  1.00  0.00    -0.357 OA
HETATM   21  H9          0      50.087  75.032  -4.749  1.00  0.00     0.218 HD
ENDBRANCH  17  20
BRANCH  18  22
HETATM   22  O11         0      48.239  72.481  -3.725  1.00  0.00    -0.357 OA
HETATM   23  H11         0      47.614  71.778  -3.591  1.00  0.00     0.218 HD
ENDBRANCH  18  22
ENDBRANCH   4  14
BRANCH   8  24
HETATM   24  O17         0      55.429  65.260  -2.666  1.00  0.00    -0.359 OA
HETATM   25  H17         0      55.948  64.465  -2.709  1.00  0.00     0.218 HD
ENDBRANCH   8  24
TORSDOF 5
ENDMDL
MODEL 9
REMARK VINA RESULT:      -5.7     13.347     15.587
REMARK  5 active torsions:
REMARK  status: ('A' for Active; 'I' for Inactive)
REMARK    1  A    between atoms: C4_4  and  C5_5 
REMARK    2  A    between atoms: C8_8  and  O9_9 
REMARK    3  A    between atoms: C10_11  and  O11_12 
REMARK    4  A    between atoms: C16_18  and  O17_19 
REMARK    5  A    between atoms: C19_22  and  O20_23 
ROOT
HETATM    1  O1          0      46.122  75.279 -17.729  1.00  0.00    -0.286 OA
HETATM    2  C2          0      46.442  74.058 -17.719  1.00  0.00     0.201 C 
HETATM    3  C3          0      45.650  73.070 -18.279  1.00  0.00     0.067 C 
HETATM    4  C4          0      45.975  71.723 -18.164  1.00  0.00     0.103 C 
HETATM    5  O13         0      47.080  71.390 -17.521  1.00  0.00    -0.307 OA
HETATM    6  C14         0      47.847  72.285 -16.939  1.00  0.00     0.107 C 
HETATM    7  C15         0      48.755  71.938 -15.949  1.00  0.00     0.049 C 
HETATM    8  C16         0      49.374  72.904 -15.165  1.00  0.00     0.093 C 
HETATM    9  C18         0      49.459  74.164 -15.745  1.00  0.00     0.048 C 
HETATM   10  C19         0      48.596  74.529 -16.770  1.00  0.00     0.096 C 
HETATM   11  C21         0      47.665  73.634 -17.224  1.00  0.00     0.084 C 
ENDROOT
BRANCH  10  12
HETATM   12  O20         0      48.388  75.878 -17.037  1.00  0.00    -0.359 OA
HETATM   13  H20         0      48.270  76.465 -16.299  1.00  0.00     0.218 HD
ENDBRANCH  10  12
BRANCH   4  14
HETATM   14  C5          0      44.873  70.761 -18.218  1.00  0.00     0.025 C 
HETATM   15  C6          0      44.790  69.765 -19.180  1.00  0.00     0.004 C 
HETATM   16  C7          0      44.311  68.522 -18.780  1.00  0.00     0.026 C 
HETATM   17  C8          0      43.803  68.311 -17.503  1.00  0.00     0.112 C 
HETATM   18  C10         0      43.350  69.457 -16.863  1.00  0.00     0.112 C 
HETATM   19  C12         0      43.908  70.679 -17.222  1.00  0.00     0.028 C 
BRANCH  17  20
HETATM   20  O9          0      43.952  67.088 -16.873  1.00  0.00    -0.357 OA
HETATM   21  H9          0      44.341  66.981 -16.013  1.00  0.00     0.218 HD
ENDBRANCH  17  20
BRANCH  18  22
HETATM   22  O11         0      42.664  69.281 -15.670  1.00  0.00    -0.357 OA
HETATM   23  H11         0      43.180  69.294 -14.872  1.00  0.00     0.218 HD
ENDBRANCH  18  22
ENDBRANCH   4  14
BRANCH   8  24
HETATM   24  O17         0      49.580  72.709 -13.795  1.00  0.00    -0.359 OA
HETATM   25  H17         0      48.959  72.229 -13.261  1.00  0.00     0.218 HD
ENDBRANCH   8  24
TORSDOF 5
ENDMDL
