MODEL 1
REMARK VINA RESULT:      -6.0      0.000      0.000
REMARK  5 active torsions:
REMARK  status: ('A' for Active; 'I' for Inactive)
REMARK    1  A    between atoms: C4_4  and  C5_5 
REMARK    2  A    between atoms: C8_8  and  O9_9 
REMARK    3  A    between atoms: C10_11  and  O11_12 
REMARK    4  A    between atoms: C16_18  and  O17_19 
REMARK    5  A    between atoms: C19_22  and  O20_23 
ROOT
HETATM    1  O1          0      44.272  72.527 -14.087  1.00  0.00    -0.286 OA
HETATM    2  C2          0      45.243  72.575 -14.890  1.00  0.00     0.201 C 
HETATM    3  C3          0      46.420  73.248 -14.607  1.00  0.00     0.067 C 
HETATM    4  C4          0      47.433  73.373 -15.550  1.00  0.00     0.103 C 
HETATM    5  O13         0      47.269  72.815 -16.736  1.00  0.00    -0.307 OA
HETATM    6  C14         0      46.157  72.197 -17.070  1.00  0.00     0.107 C 
HETATM    7  C15         0      45.818  71.968 -18.395  1.00  0.00     0.049 C 
HETATM    8  C16         0      44.541  71.551 -18.752  1.00  0.00     0.093 C 
HETATM    9  C18         0      43.840  70.887 -17.752  1.00  0.00     0.048 C 
HETATM   10  C19         0      44.184  71.056 -16.418  1.00  0.00     0.096 C 
HETATM   11  C21         0      45.231  71.871 -16.085  1.00  0.00     0.084 C 
ENDROOT
BRANCH  10  12
HETATM   12  O20         0      43.247  70.761 -15.432  1.00  0.00    -0.359 OA
HETATM   13  H20         0      43.513  70.188 -14.723  1.00  0.00     0.218 HD
ENDBRANCH  10  12
BRANCH   4  14
HETATM   14  C5          0      48.317  74.535 -15.434  1.00  0.00     0.025 C 
HETATM   15  C6          0      49.109  74.985 -16.480  1.00  0.00     0.004 C 
HETATM   16  C7          0      49.249  76.360 -16.637  1.00  0.00     0.026 C 
HETATM   17  C8          0      48.732  77.257 -15.709  1.00  0.00     0.112 C 
HETATM   18  C10         0      48.538  76.729 -14.439  1.00  0.00     0.112 C 
HETATM   19  C12         0      48.315  75.363 -14.319  1.00  0.00     0.028 C 
BRANCH  17  20
HETATM   20  O9          0      48.262  78.496 -16.106  1.00  0.00    -0.357 OA
HETATM   21  H9          0      47.379  78.805 -15.938  1.00  0.00     0.218 HD
ENDBRANCH  17  20
BRANCH  18  22
HETATM   22  O11         0      48.205  77.623 -13.431  1.00  0.00    -0.357 OA
HETATM   23  H11         0      47.752  77.269 -12.675  1.00  0.00     0.218 HD
ENDBRANCH  18  22
ENDBRANCH   4  14
BRANCH   8  24
HETATM   24  O17         0      43.901  72.054 -19.890  1.00  0.00    -0.359 OA
HETATM   25  H17         0      44.352  72.136 -20.721  1.00  0.00     0.218 HD
ENDBRANCH   8  24
TORSDOF 5
ENDMDL
MODEL 2
REMARK VINA RESULT:      -5.5      2.899      4.888
REMARK  5 active torsions:
REMARK  status: ('A' for Active; 'I' for Inactive)
REMARK    1  A    between atoms: C4_4  and  C5_5 
REMARK    2  A    between atoms: C8_8  and  O9_9 
REMARK    3  A    between atoms: C10_11  and  O11_12 
REMARK    4  A    between atoms: C16_18  and  O17_19 
REMARK    5  A    between atoms: C19_22  and  O20_23 
ROOT
HETATM    1  O1          0      42.790  74.048 -12.578  1.00  0.00    -0.286 OA
HETATM    2  C2          0      43.028  73.115 -13.393  1.00  0.00     0.201 C 
HETATM    3  C3          0      44.252  72.961 -14.021  1.00  0.00     0.067 C 
HETATM    4  C4          0      44.456  71.987 -14.992  1.00  0.00     0.103 C 
HETATM    5  O13         0      43.456  71.181 -15.301  1.00  0.00    -0.307 OA
HETATM    6  C14         0      42.263  71.308 -14.762  1.00  0.00     0.107 C 
HETATM    7  C15         0      41.134  70.756 -15.349  1.00  0.00     0.049 C 
HETATM    8  C16         0      39.857  71.102 -14.924  1.00  0.00     0.093 C 
HETATM    9  C18         0      39.779  71.564 -13.616  1.00  0.00     0.048 C 
HETATM   10  C19         0      40.902  72.080 -12.982  1.00  0.00     0.096 C 
HETATM   11  C21         0      42.098  72.118 -13.645  1.00  0.00     0.084 C 
ENDROOT
BRANCH  10  12
HETATM   12  O20         0      40.737  72.917 -11.882  1.00  0.00    -0.359 OA
HETATM   13  H20         0      40.274  73.735 -12.011  1.00  0.00     0.218 HD
ENDBRANCH  10  12
BRANCH   4  14
HETATM   14  C5          0      45.487  72.249 -15.997  1.00  0.00     0.025 C 
HETATM   15  C6          0      46.016  71.256 -16.809  1.00  0.00     0.004 C 
HETATM   16  C7          0      46.295  71.584 -18.132  1.00  0.00     0.026 C 
HETATM   17  C8          0      46.179  72.889 -18.599  1.00  0.00     0.112 C 
HETATM   18  C10         0      46.271  73.867 -17.617  1.00  0.00     0.112 C 
HETATM   19  C12         0      45.905  73.534 -16.318  1.00  0.00     0.028 C 
BRANCH  17  20
HETATM   20  O9          0      45.793  73.143 -19.903  1.00  0.00    -0.357 OA
HETATM   21  H9          0      44.927  72.951 -20.244  1.00  0.00     0.218 HD
ENDBRANCH  17  20
BRANCH  18  22
HETATM   22  O11         0      46.352  75.183 -18.048  1.00  0.00    -0.357 OA
HETATM   23  H11         0      46.584  75.325 -18.958  1.00  0.00     0.218 HD
ENDBRANCH  18  22
ENDBRANCH   4  14
BRANCH   8  24
HETATM   24  O17         0      38.811  71.292 -15.835  1.00  0.00    -0.359 OA
HETATM   25  H17         0      38.355  70.559 -16.230  1.00  0.00     0.218 HD
ENDBRANCH   8  24
TORSDOF 5
ENDMDL
MODEL 3
REMARK VINA RESULT:      -5.4     10.883     13.561
REMARK  5 active torsions:
REMARK  status: ('A' for Active; 'I' for Inactive)
REMARK    1  A    between atoms: C4_4  and  C5_5 
REMARK    2  A    between atoms: C8_8  and  O9_9 
REMARK    3  A    between atoms: C10_11  and  O11_12 
REMARK    4  A    between atoms: C16_18  and  O17_19 
REMARK    5  A    between atoms: C19_22  and  O20_23 
ROOT
HETATM    1  O1          0      49.580  84.194 -13.178  1.00  0.00    -0.286 OA
HETATM    2  C2          0      48.383  84.532 -12.971  1.00  0.00     0.201 C 
HETATM    3  C3          0      47.361  84.257 -13.865  1.00  0.00     0.067 C 
HETATM    4  C4          0      46.069  84.731 -13.662  1.00  0.00     0.103 C 
HETATM    5  O13         0      45.817  85.442 -12.577  1.00  0.00    -0.307 OA
HETATM    6  C14         0      46.758  85.762 -11.717  1.00  0.00     0.107 C 
HETATM    7  C15         0      46.603  86.810 -10.821  1.00  0.00     0.049 C 
HETATM    8  C16         0      47.680  87.306 -10.097  1.00  0.00     0.093 C 
HETATM    9  C18         0      48.725  86.409  -9.910  1.00  0.00     0.048 C 
HETATM   10  C19         0      48.882  85.323 -10.761  1.00  0.00     0.096 C 
HETATM   11  C21         0      47.992  85.124 -11.780  1.00  0.00     0.084 C 
ENDROOT
BRANCH  10  12
HETATM   12  O20         0      50.125  84.703 -10.849  1.00  0.00    -0.359 OA
HETATM   13  H20         0      50.751  85.048 -11.475  1.00  0.00     0.218 HD
ENDBRANCH  10  12
BRANCH   4  14
HETATM   14  C5          0      45.238  84.936 -14.849  1.00  0.00     0.025 C 
HETATM   15  C6          0      45.113  83.987 -15.853  1.00  0.00     0.004 C 
HETATM   16  C7          0      43.860  83.829 -16.439  1.00  0.00     0.026 C 
HETATM   17  C8          0      42.800  84.675 -16.133  1.00  0.00     0.112 C 
HETATM   18  C10         0      43.174  85.920 -15.643  1.00  0.00     0.112 C 
HETATM   19  C12         0      44.394  86.031 -14.987  1.00  0.00     0.028 C 
BRANCH  17  20
HETATM   20  O9          0      41.498  84.207 -16.127  1.00  0.00    -0.357 OA
HETATM   21  H9          0      41.159  83.599 -15.480  1.00  0.00     0.218 HD
ENDBRANCH  17  20
BRANCH  18  22
HETATM   22  O11         0      42.170  86.867 -15.500  1.00  0.00    -0.357 OA
HETATM   23  H11         0      41.767  87.189 -16.298  1.00  0.00     0.218 HD
ENDBRANCH  18  22
ENDBRANCH   4  14
BRANCH   8  24
HETATM   24  O17         0      47.841  88.679  -9.877  1.00  0.00    -0.359 OA
HETATM   25  H17         0      47.277  89.158  -9.282  1.00  0.00     0.218 HD
ENDBRANCH   8  24
TORSDOF 5
ENDMDL
MODEL 4
REMARK VINA RESULT:      -5.3      3.065      4.111
REMARK  5 active torsions:
REMARK  status: ('A' for Active; 'I' for Inactive)
REMARK    1  A    between atoms: C4_4  and  C5_5 
REMARK    2  A    between atoms: C8_8  and  O9_9 
REMARK    3  A    between atoms: C10_11  and  O11_12 
REMARK    4  A    between atoms: C16_18  and  O17_19 
REMARK    5  A    between atoms: C19_22  and  O20_23 
ROOT
HETATM    1  O1          0      45.446  73.035 -15.247  1.00  0.00    -0.286 OA
HETATM    2  C2          0      45.814  72.563 -16.357  1.00  0.00     0.201 C 
HETATM    3  C3          0      47.003  72.924 -16.969  1.00  0.00     0.067 C 
HETATM    4  C4          0      47.336  72.468 -18.240  1.00  0.00     0.103 C 
HETATM    5  O13         0      46.501  71.655 -18.861  1.00  0.00    -0.307 OA
HETATM    6  C14         0      45.343  71.311 -18.341  1.00  0.00     0.107 C 
HETATM    7  C15         0      44.312  70.806 -19.121  1.00  0.00     0.049 C 
HETATM    8  C16         0      43.021  70.686 -18.621  1.00  0.00     0.093 C 
HETATM    9  C18         0      42.935  70.577 -17.239  1.00  0.00     0.048 C 
HETATM   10  C19         0      43.969  71.030 -16.430  1.00  0.00     0.096 C 
HETATM   11  C21         0      45.089  71.571 -16.999  1.00  0.00     0.084 C 
ENDROOT
BRANCH  10  12
HETATM   12  O20         0      43.710  71.321 -15.094  1.00  0.00    -0.359 OA
HETATM   13  H20         0      43.088  70.773 -14.631  1.00  0.00     0.218 HD
ENDBRANCH  10  12
BRANCH   4  14
HETATM   14  C5          0      48.228  73.309 -19.040  1.00  0.00     0.025 C 
HETATM   15  C6          0      49.510  72.917 -19.397  1.00  0.00     0.004 C 
HETATM   16  C7          0      49.957  73.257 -20.670  1.00  0.00     0.026 C 
HETATM   17  C8          0      49.210  74.074 -21.511  1.00  0.00     0.112 C 
HETATM   18  C10         0      48.302  74.899 -20.862  1.00  0.00     0.112 C 
HETATM   19  C12         0      47.806  74.494 -19.628  1.00  0.00     0.028 C 
BRANCH  17  20
HETATM   20  O9          0      49.243  73.897 -22.883  1.00  0.00    -0.357 OA
HETATM   21  H9          0      49.201  74.612 -23.509  1.00  0.00     0.218 HD
ENDBRANCH  17  20
BRANCH  18  22
HETATM   22  O11         0      47.668  75.864 -21.631  1.00  0.00    -0.357 OA
HETATM   23  H11         0      47.531  76.714 -21.228  1.00  0.00     0.218 HD
ENDBRANCH  18  22
ENDBRANCH   4  14
BRANCH   8  24
HETATM   24  O17         0      41.904  70.990 -19.407  1.00  0.00    -0.359 OA
HETATM   25  H17         0      41.158  70.404 -19.462  1.00  0.00     0.218 HD
ENDBRANCH   8  24
TORSDOF 5
ENDMDL
MODEL 5
REMARK VINA RESULT:      -5.1      3.102      6.050
REMARK  5 active torsions:
REMARK  status: ('A' for Active; 'I' for Inactive)
REMARK    1  A    between atoms: C4_4  and  C5_5 
REMARK    2  A    between atoms: C8_8  and  O9_9 
REMARK    3  A    between atoms: C10_11  and  O11_12 
REMARK    4  A    between atoms: C16_18  and  O17_19 
REMARK    5  A    between atoms: C19_22  and  O20_23 
ROOT
HETATM    1  O1          0      43.886  69.875 -17.677  1.00  0.00    -0.286 OA
HETATM    2  C2          0      44.682  70.806 -17.978  1.00  0.00     0.201 C 
HETATM    3  C3          0      45.179  70.984 -19.258  1.00  0.00     0.067 C 
HETATM    4  C4          0      46.134  71.954 -19.540  1.00  0.00     0.103 C 
HETATM    5  O13         0      46.555  72.735 -18.560  1.00  0.00    -0.307 OA
HETATM    6  C14         0      46.143  72.584 -17.321  1.00  0.00     0.107 C 
HETATM    7  C15         0      46.850  73.105 -16.247  1.00  0.00     0.049 C 
HETATM    8  C16         0      46.557  72.732 -14.940  1.00  0.00     0.093 C 
HETATM    9  C18         0      45.260  72.279 -14.736  1.00  0.00     0.048 C 
HETATM   10  C19         0      44.506  71.795 -15.797  1.00  0.00     0.096 C 
HETATM   11  C21         0      45.040  71.779 -17.057  1.00  0.00     0.084 C 
ENDROOT
BRANCH  10  12
HETATM   12  O20         0      43.421  70.963 -15.538  1.00  0.00    -0.359 OA
HETATM   13  H20         0      43.061  70.462 -16.260  1.00  0.00     0.218 HD
ENDBRANCH  10  12
BRANCH   4  14
HETATM   14  C5          0      47.023  71.709 -20.677  1.00  0.00     0.025 C 
HETATM   15  C6          0      46.872  70.625 -21.529  1.00  0.00     0.004 C 
HETATM   16  C7          0      47.114  70.831 -22.884  1.00  0.00     0.026 C 
HETATM   17  C8          0      47.618  72.036 -23.359  1.00  0.00     0.112 C 
HETATM   18  C10         0      48.312  72.786 -22.418  1.00  0.00     0.112 C 
HETATM   19  C12         0      47.991  72.622 -21.076  1.00  0.00     0.028 C 
BRANCH  17  20
HETATM   20  O9          0      47.257  72.513 -24.607  1.00  0.00    -0.357 OA
HETATM   21  H9          0      46.707  73.277 -24.741  1.00  0.00     0.218 HD
ENDBRANCH  17  20
BRANCH  18  22
HETATM   22  O11         0      48.995  73.901 -22.883  1.00  0.00    -0.357 OA
HETATM   23  H11         0      48.469  74.623 -23.207  1.00  0.00     0.218 HD
ENDBRANCH  18  22
ENDBRANCH   4  14
BRANCH   8  24
HETATM   24  O17         0      47.570  72.510 -14.001  1.00  0.00    -0.359 OA
HETATM   25  H17         0      48.489  72.530 -14.243  1.00  0.00     0.218 HD
ENDBRANCH   8  24
TORSDOF 5
ENDMDL
MODEL 6
REMARK VINA RESULT:      -5.1      1.617      2.087
REMARK  5 active torsions:
REMARK  status: ('A' for Active; 'I' for Inactive)
REMARK    1  A    between atoms: C4_4  and  C5_5 
REMARK    2  A    between atoms: C8_8  and  O9_9 
REMARK    3  A    between atoms: C10_11  and  O11_12 
REMARK    4  A    between atoms: C16_18  and  O17_19 
REMARK    5  A    between atoms: C19_22  and  O20_23 
ROOT
HETATM    1  O1          0      44.943  72.719 -16.243  1.00  0.00    -0.286 OA
HETATM    2  C2          0      46.088  73.006 -16.688  1.00  0.00     0.201 C 
HETATM    3  C3          0      47.045  73.660 -15.930  1.00  0.00     0.067 C 
HETATM    4  C4          0      48.261  74.055 -16.475  1.00  0.00     0.103 C 
HETATM    5  O13         0      48.508  73.778 -17.743  1.00  0.00    -0.307 OA
HETATM    6  C14         0      47.620  73.193 -18.517  1.00  0.00     0.107 C 
HETATM    7  C15         0      47.700  73.258 -19.900  1.00  0.00     0.049 C 
HETATM    8  C16         0      46.636  72.864 -20.704  1.00  0.00     0.093 C 
HETATM    9  C18         0      45.768  71.949 -20.121  1.00  0.00     0.048 C 
HETATM   10  C19         0      45.697  71.825 -18.741  1.00  0.00     0.096 C 
HETATM   11  C21         0      46.500  72.597 -17.947  1.00  0.00     0.084 C 
ENDROOT
BRANCH  10  12
HETATM   12  O20         0      44.563  71.258 -18.166  1.00  0.00    -0.359 OA
HETATM   13  H20         0      43.997  70.735 -18.721  1.00  0.00     0.218 HD
ENDBRANCH  10  12
BRANCH   4  14
HETATM   14  C5          0      48.927  75.206 -15.863  1.00  0.00     0.025 C 
HETATM   15  C6          0      49.938  75.914 -16.496  1.00  0.00     0.004 C 
HETATM   16  C7          0      49.958  77.296 -16.331  1.00  0.00     0.026 C 
HETATM   17  C8          0      49.085  77.939 -15.460  1.00  0.00     0.112 C 
HETATM   18  C10         0      48.582  77.136 -14.445  1.00  0.00     0.112 C 
HETATM   19  C12         0      48.495  75.767 -14.668  1.00  0.00     0.028 C 
BRANCH  17  20
HETATM   20  O9          0      48.615  79.210 -15.739  1.00  0.00    -0.357 OA
HETATM   21  H9          0      49.069  79.830 -16.298  1.00  0.00     0.218 HD
ENDBRANCH  17  20
BRANCH  18  22
HETATM   22  O11         0      47.861  77.769 -13.443  1.00  0.00    -0.357 OA
HETATM   23  H11         0      48.054  77.515 -12.548  1.00  0.00     0.218 HD
ENDBRANCH  18  22
ENDBRANCH   4  14
BRANCH   8  24
HETATM   24  O17         0      46.288  73.580 -21.854  1.00  0.00    -0.359 OA
HETATM   25  H17         0      46.581  73.312 -22.717  1.00  0.00     0.218 HD
ENDBRANCH   8  24
TORSDOF 5
ENDMDL
MODEL 7
REMARK VINA RESULT:      -5.1      2.792      5.522
REMARK  5 active torsions:
REMARK  status: ('A' for Active; 'I' for Inactive)
REMARK    1  A    between atoms: C4_4  and  C5_5 
REMARK    2  A    between atoms: C8_8  and  O9_9 
REMARK    3  A    between atoms: C10_11  and  O11_12 
REMARK    4  A    between atoms: C16_18  and  O17_19 
REMARK    5  A    between atoms: C19_22  and  O20_23 
ROOT
HETATM    1  O1          0      44.500  71.233 -17.537  1.00  0.00    -0.286 OA
HETATM    2  C2          0      44.968  71.866 -16.551  1.00  0.00     0.201 C 
HETATM    3  C3          0      44.433  71.772 -15.277  1.00  0.00     0.067 C 
HETATM    4  C4          0      44.903  72.557 -14.230  1.00  0.00     0.103 C 
HETATM    5  O13         0      45.898  73.395 -14.462  1.00  0.00    -0.307 OA
HETATM    6  C14         0      46.416  73.550 -15.661  1.00  0.00     0.107 C 
HETATM    7  C15         0      47.155  74.675 -15.997  1.00  0.00     0.049 C 
HETATM    8  C16         0      47.481  74.956 -17.319  1.00  0.00     0.093 C 
HETATM    9  C18         0      47.511  73.852 -18.163  1.00  0.00     0.048 C 
HETATM   10  C19         0      46.821  72.693 -17.834  1.00  0.00     0.096 C 
HETATM   11  C21         0      46.119  72.631 -16.661  1.00  0.00     0.084 C 
ENDROOT
BRANCH  10  12
HETATM   12  O20         0      46.494  71.788 -18.838  1.00  0.00    -0.359 OA
HETATM   13  H20         0      47.194  71.266 -19.213  1.00  0.00     0.218 HD
ENDBRANCH  10  12
BRANCH   4  14
HETATM   14  C5          0      43.966  72.857 -13.146  1.00  0.00     0.025 C 
HETATM   15  C6          0      44.278  73.711 -12.098  1.00  0.00     0.004 C 
HETATM   16  C7          0      43.272  74.549 -11.628  1.00  0.00     0.026 C 
HETATM   17  C8          0      41.965  74.451 -12.091  1.00  0.00     0.112 C 
HETATM   18  C10         0      41.630  73.213 -12.624  1.00  0.00     0.112 C 
HETATM   19  C12         0      42.644  72.431 -13.165  1.00  0.00     0.028 C 
BRANCH  17  20
HETATM   20  O9          0      41.162  75.573 -12.192  1.00  0.00    -0.357 OA
HETATM   21  H9          0      41.152  76.148 -12.949  1.00  0.00     0.218 HD
ENDBRANCH  17  20
BRANCH  18  22
HETATM   22  O11         0      40.293  73.000 -12.927  1.00  0.00    -0.357 OA
HETATM   23  H11         0      39.921  72.165 -12.666  1.00  0.00     0.218 HD
ENDBRANCH  18  22
ENDBRANCH   4  14
BRANCH   8  24
HETATM   24  O17         0      47.444  76.263 -17.817  1.00  0.00    -0.359 OA
HETATM   25  H17         0      47.861  76.496 -18.638  1.00  0.00     0.218 HD
ENDBRANCH   8  24
TORSDOF 5
ENDMDL
MODEL 8
REMARK VINA RESULT:      -5.0      3.204      5.157
REMARK  5 active torsions:
REMARK  status: ('A' for Active; 'I' for Inactive)
REMARK    1  A    between atoms: C4_4  and  C5_5 
REMARK    2  A    between atoms: C8_8  and  O9_9 
REMARK    3  A    between atoms: C10_11  and  O11_12 
REMARK    4  A    between atoms: C16_18  and  O17_19 
REMARK    5  A    between atoms: C19_22  and  O20_23 
ROOT
HETATM    1  O1          0      42.760  74.068 -12.548  1.00  0.00    -0.286 OA
HETATM    2  C2          0      43.014  73.130 -13.353  1.00  0.00     0.201 C 
HETATM    3  C3          0      44.252  72.971 -13.953  1.00  0.00     0.067 C 
HETATM    4  C4          0      44.475  71.991 -14.914  1.00  0.00     0.103 C 
HETATM    5  O13         0      43.481  71.184 -15.240  1.00  0.00    -0.307 OA
HETATM    6  C14         0      42.277  71.315 -14.728  1.00  0.00     0.107 C 
HETATM    7  C15         0      41.159  70.762 -15.336  1.00  0.00     0.049 C 
HETATM    8  C16         0      39.874  71.112 -14.940  1.00  0.00     0.093 C 
HETATM    9  C18         0      39.769  71.582 -13.637  1.00  0.00     0.048 C 
HETATM   10  C19         0      40.878  72.100 -12.982  1.00  0.00     0.096 C 
HETATM   11  C21         0      42.088  72.133 -13.619  1.00  0.00     0.084 C 
ENDROOT
BRANCH  10  12
HETATM   12  O20         0      40.691  72.943 -11.891  1.00  0.00    -0.359 OA
HETATM   13  H20         0      41.458  73.353 -11.509  1.00  0.00     0.218 HD
ENDBRANCH  10  12
BRANCH   4  14
HETATM   14  C5          0      45.528  72.245 -15.898  1.00  0.00     0.025 C 
HETATM   15  C6          0      46.493  73.228 -15.730  1.00  0.00     0.004 C 
HETATM   16  C7          0      47.787  72.939 -16.151  1.00  0.00     0.026 C 
HETATM   17  C8          0      48.086  71.767 -16.837  1.00  0.00     0.112 C 
HETATM   18  C10         0      47.008  71.188 -17.494  1.00  0.00     0.112 C 
HETATM   19  C12         0      45.731  71.425 -17.000  1.00  0.00     0.028 C 
BRANCH  17  20
HETATM   20  O9          0      49.313  71.147 -16.680  1.00  0.00    -0.357 OA
HETATM   21  H9          0      49.515  70.549 -15.970  1.00  0.00     0.218 HD
ENDBRANCH  17  20
BRANCH  18  22
HETATM   22  O11         0      47.286  70.129 -18.345  1.00  0.00    -0.357 OA
HETATM   23  H11         0      47.899  70.294 -19.052  1.00  0.00     0.218 HD
ENDBRANCH  18  22
ENDBRANCH   4  14
BRANCH   8  24
HETATM   24  O17         0      38.849  71.298 -15.875  1.00  0.00    -0.359 OA
HETATM   25  H17         0      38.831  70.823 -16.697  1.00  0.00     0.218 HD
ENDBRANCH   8  24
TORSDOF 5
ENDMDL
MODEL 9
REMARK VINA RESULT:      -4.9      3.133      5.912
REMARK  5 active torsions:
REMARK  status: ('A' for Active; 'I' for Inactive)
REMARK    1  A    between atoms: C4_4  and  C5_5 
REMARK    2  A    between atoms: C8_8  and  O9_9 
REMARK    3  A    between atoms: C10_11  and  O11_12 
REMARK    4  A    between atoms: C16_18  and  O17_19 
REMARK    5  A    between atoms: C19_22  and  O20_23 
ROOT
HETATM    1  O1          0      44.430  71.443 -17.623  1.00  0.00    -0.286 OA
HETATM    2  C2          0      45.314  72.329 -17.782  1.00  0.00     0.201 C 
HETATM    3  C3          0      45.662  72.828 -19.026  1.00  0.00     0.067 C 
HETATM    4  C4          0      46.709  73.729 -19.183  1.00  0.00     0.103 C 
HETATM    5  O13         0      47.369  74.128 -18.110  1.00  0.00    -0.307 OA
HETATM    6  C14         0      47.104  73.658 -16.911  1.00  0.00     0.107 C 
HETATM    7  C15         0      48.017  73.752 -15.871  1.00  0.00     0.049 C 
HETATM    8  C16         0      47.843  73.038 -14.691  1.00  0.00     0.093 C 
HETATM    9  C18         0      46.529  72.688 -14.405  1.00  0.00     0.048 C 
HETATM   10  C19         0      45.579  72.630 -15.415  1.00  0.00     0.096 C 
HETATM   11  C21         0      45.934  72.936 -16.700  1.00  0.00     0.084 C 
ENDROOT
BRANCH  10  12
HETATM   12  O20         0      44.422  71.882 -15.218  1.00  0.00    -0.359 OA
HETATM   13  H20         0      43.768  72.222 -14.620  1.00  0.00     0.218 HD
ENDBRANCH  10  12
BRANCH   4  14
HETATM   14  C5          0      47.394  73.741 -20.477  1.00  0.00     0.025 C 
HETATM   15  C6          0      48.770  73.868 -20.598  1.00  0.00     0.004 C 
HETATM   16  C7          0      49.401  73.121 -21.587  1.00  0.00     0.026 C 
HETATM   17  C8          0      48.678  72.376 -22.513  1.00  0.00     0.112 C 
HETATM   18  C10         0      47.372  72.805 -22.708  1.00  0.00     0.112 C 
HETATM   19  C12         0      46.735  73.476 -21.670  1.00  0.00     0.028 C 
BRANCH  17  20
HETATM   20  O9          0      49.179  71.189 -23.015  1.00  0.00    -0.357 OA
HETATM   21  H9          0      49.073  70.347 -22.587  1.00  0.00     0.218 HD
ENDBRANCH  17  20
BRANCH  18  22
HETATM   22  O11         0      46.668  72.221 -23.751  1.00  0.00    -0.357 OA
HETATM   23  H11         0      46.030  72.766 -24.198  1.00  0.00     0.218 HD
ENDBRANCH  18  22
ENDBRANCH   4  14
BRANCH   8  24
HETATM   24  O17         0      48.924  72.435 -14.037  1.00  0.00    -0.359 OA
HETATM   25  H17         0      48.859  72.135 -13.139  1.00  0.00     0.218 HD
ENDBRANCH   8  24
TORSDOF 5
ENDMDL
