MODEL 1
REMARK VINA RESULT:      -0.5      0.000      0.000
REMARK  5 active torsions:
REMARK  status: ('A' for Active; 'I' for Inactive)
REMARK    1  A    between atoms: C4_4  and  C5_5 
REMARK    2  A    between atoms: C8_8  and  O9_9 
REMARK    3  A    between atoms: C10_11  and  O11_12 
REMARK    4  A    between atoms: C16_18  and  O17_19 
REMARK    5  A    between atoms: C19_22  and  O20_23 
ROOT
HETATM    1  O1          0      33.170  10.124   6.316  1.00  0.00    -0.286 OA
HETATM    2  C2          0      33.340   9.761   7.512  1.00  0.00     0.201 C 
HETATM    3  C3          0      34.576   9.789   8.137  1.00  0.00     0.067 C 
HETATM    4  C4          0      34.754   9.288   9.421  1.00  0.00     0.103 C 
HETATM    5  O13         0      33.709   8.793  10.060  1.00  0.00    -0.307 OA
HETATM    6  C14         0      32.523   8.708   9.500  1.00  0.00     0.107 C 
HETATM    7  C15         0      31.544   7.853   9.985  1.00  0.00     0.049 C 
HETATM    8  C16         0      30.397   7.578   9.251  1.00  0.00     0.093 C 
HETATM    9  C18         0      30.040   8.556   8.331  1.00  0.00     0.048 C 
HETATM   10  C19         0      30.984   9.459   7.860  1.00  0.00     0.096 C 
HETATM   11  C21         0      32.272   9.395   8.317  1.00  0.00     0.084 C 
ENDROOT
BRANCH  10  12
HETATM   12  O20         0      30.750  10.124   6.660  1.00  0.00    -0.359 OA
HETATM   13  H20         0      31.497  10.325   6.110  1.00  0.00     0.218 HD
ENDBRANCH  10  12
BRANCH   4  14
HETATM   14  C5          0      36.090   8.799   9.769  1.00  0.00     0.025 C 
HETATM   15  C6          0      36.395   7.449   9.867  1.00  0.00     0.004 C 
HETATM   16  C7          0      37.639   7.034   9.404  1.00  0.00     0.026 C 
HETATM   17  C8          0      38.602   7.945   8.983  1.00  0.00     0.112 C 
HETATM   18  C10         0      38.457   9.224   9.504  1.00  0.00     0.112 C 
HETATM   19  C12         0      37.186   9.644   9.880  1.00  0.00     0.028 C 
BRANCH  17  20
HETATM   20  O9          0      39.483   7.625   7.966  1.00  0.00    -0.357 OA
HETATM   21  H9          0      39.681   8.203   7.237  1.00  0.00     0.218 HD
ENDBRANCH  17  20
BRANCH  18  22
HETATM   22  O11         0      39.491  10.119   9.268  1.00  0.00    -0.357 OA
HETATM   23  H11         0      40.219  10.105   9.878  1.00  0.00     0.218 HD
ENDBRANCH  18  22
ENDBRANCH   4  14
BRANCH   8  24
HETATM   24  O17         0      29.854   6.289   9.202  1.00  0.00    -0.359 OA
HETATM   25  H17         0      30.402   5.514   9.245  1.00  0.00     0.218 HD
ENDBRANCH   8  24
TORSDOF 5
ENDMDL
MODEL 2
REMARK VINA RESULT:      -0.3     16.797     18.209
REMARK  5 active torsions:
REMARK  status: ('A' for Active; 'I' for Inactive)
REMARK    1  A    between atoms: C4_4  and  C5_5 
REMARK    2  A    between atoms: C8_8  and  O9_9 
REMARK    3  A    between atoms: C10_11  and  O11_12 
REMARK    4  A    between atoms: C16_18  and  O17_19 
REMARK    5  A    between atoms: C19_22  and  O20_23 
ROOT
HETATM    1  O1          0      35.711   7.122  -8.470  1.00  0.00    -0.286 OA
HETATM    2  C2          0      36.946   6.869  -8.524  1.00  0.00     0.201 C 
HETATM    3  C3          0      37.443   5.642  -8.927  1.00  0.00     0.067 C 
HETATM    4  C4          0      38.803   5.356  -8.879  1.00  0.00     0.103 C 
HETATM    5  O13         0      39.634   6.292  -8.458  1.00  0.00    -0.307 OA
HETATM    6  C14         0      39.211   7.461  -8.029  1.00  0.00     0.107 C 
HETATM    7  C15         0      40.000   8.276  -7.230  1.00  0.00     0.049 C 
HETATM    8  C16         0      39.466   9.379  -6.574  1.00  0.00     0.093 C 
HETATM    9  C18         0      38.321   9.910  -7.156  1.00  0.00     0.048 C 
HETATM   10  C19         0      37.534   9.137  -7.998  1.00  0.00     0.096 C 
HETATM   11  C21         0      37.897   7.846  -8.271  1.00  0.00     0.084 C 
ENDROOT
BRANCH  10  12
HETATM   12  O20         0      36.209   9.502  -8.217  1.00  0.00    -0.359 OA
HETATM   13  H20         0      35.945   9.708  -9.105  1.00  0.00     0.218 HD
ENDBRANCH  10  12
BRANCH   4  14
HETATM   14  C5          0      39.187   3.951  -8.726  1.00  0.00     0.025 C 
HETATM   15  C6          0      40.120   3.524  -7.792  1.00  0.00     0.004 C 
HETATM   16  C7          0      39.879   2.316  -7.147  1.00  0.00     0.026 C 
HETATM   17  C8          0      38.819   1.493  -7.512  1.00  0.00     0.112 C 
HETATM   18  C10         0      38.360   1.679  -8.809  1.00  0.00     0.112 C 
HETATM   19  C12         0      38.539   2.924  -9.400  1.00  0.00     0.028 C 
BRANCH  17  20
HETATM   20  O9          0      38.165   0.719  -6.569  1.00  0.00    -0.357 OA
HETATM   21  H9          0      38.495   0.564  -5.692  1.00  0.00     0.218 HD
ENDBRANCH  17  20
BRANCH  18  22
HETATM   22  O11         0      37.436   0.761  -9.287  1.00  0.00    -0.357 OA
HETATM   23  H11         0      36.603   0.712  -8.831  1.00  0.00     0.218 HD
ENDBRANCH  18  22
ENDBRANCH   4  14
BRANCH   8  24
HETATM   24  O17         0      39.847   9.706  -5.268  1.00  0.00    -0.359 OA
HETATM   25  H17         0      40.523  10.350  -5.092  1.00  0.00     0.218 HD
ENDBRANCH   8  24
TORSDOF 5
ENDMDL
MODEL 3
REMARK VINA RESULT:      -0.3      2.540      3.083
REMARK  5 active torsions:
REMARK  status: ('A' for Active; 'I' for Inactive)
REMARK    1  A    between atoms: C4_4  and  C5_5 
REMARK    2  A    between atoms: C8_8  and  O9_9 
REMARK    3  A    between atoms: C10_11  and  O11_12 
REMARK    4  A    between atoms: C16_18  and  O17_19 
REMARK    5  A    between atoms: C19_22  and  O20_23 
ROOT
HETATM    1  O1          0      30.804   7.298   5.288  1.00  0.00    -0.286 OA
HETATM    2  C2          0      31.413   8.037   6.109  1.00  0.00     0.201 C 
HETATM    3  C3          0      32.783   7.975   6.301  1.00  0.00     0.067 C 
HETATM    4  C4          0      33.416   8.727   7.284  1.00  0.00     0.103 C 
HETATM    5  O13         0      32.686   9.534   8.034  1.00  0.00    -0.307 OA
HETATM    6  C14         0      31.378   9.604   7.918  1.00  0.00     0.107 C 
HETATM    7  C15         0      30.581  10.118   8.930  1.00  0.00     0.049 C 
HETATM    8  C16         0      29.200   9.958   8.914  1.00  0.00     0.093 C 
HETATM    9  C18         0      28.647   9.761   7.654  1.00  0.00     0.048 C 
HETATM   10  C19         0      29.428   9.292   6.606  1.00  0.00     0.096 C 
HETATM   11  C21         0      30.756   9.036   6.811  1.00  0.00     0.084 C 
ENDROOT
BRANCH  10  12
HETATM   12  O20         0      28.810   8.695   5.512  1.00  0.00    -0.359 OA
HETATM   13  H20         0      28.342   9.256   4.905  1.00  0.00     0.218 HD
ENDBRANCH  10  12
BRANCH   4  14
HETATM   14  C5          0      34.668   8.200   7.829  1.00  0.00     0.025 C 
HETATM   15  C6          0      34.868   7.986   9.185  1.00  0.00     0.004 C 
HETATM   16  C7          0      35.590   6.858   9.560  1.00  0.00     0.026 C 
HETATM   17  C8          0      36.209   6.041   8.619  1.00  0.00     0.112 C 
HETATM   18  C10         0      36.487   6.661   7.408  1.00  0.00     0.112 C 
HETATM   19  C12         0      35.695   7.734   7.017  1.00  0.00     0.028 C 
BRANCH  17  20
HETATM   20  O9          0      36.326   4.679   8.830  1.00  0.00    -0.357 OA
HETATM   21  H9          0      35.863   4.024   8.320  1.00  0.00     0.218 HD
ENDBRANCH  17  20
BRANCH  18  22
HETATM   22  O11         0      37.269   5.954   6.506  1.00  0.00    -0.357 OA
HETATM   23  H11         0      36.812   5.427   5.861  1.00  0.00     0.218 HD
ENDBRANCH  18  22
ENDBRANCH   4  14
BRANCH   8  24
HETATM   24  O17         0      28.484   9.678  10.083  1.00  0.00    -0.359 OA
HETATM   25  H17         0      28.687   8.924  10.624  1.00  0.00     0.218 HD
ENDBRANCH   8  24
TORSDOF 5
ENDMDL
MODEL 4
REMARK VINA RESULT:      -0.3      4.054      7.205
REMARK  5 active torsions:
REMARK  status: ('A' for Active; 'I' for Inactive)
REMARK    1  A    between atoms: C4_4  and  C5_5 
REMARK    2  A    between atoms: C8_8  and  O9_9 
REMARK    3  A    between atoms: C10_11  and  O11_12 
REMARK    4  A    between atoms: C16_18  and  O17_19 
REMARK    5  A    between atoms: C19_22  and  O20_23 
ROOT
HETATM    1  O1          0      28.722   7.981   8.065  1.00  0.00    -0.286 OA
HETATM    2  C2          0      29.521   8.425   7.196  1.00  0.00     0.201 C 
HETATM    3  C3          0      29.378   8.169   5.843  1.00  0.00     0.067 C 
HETATM    4  C4          0      30.329   8.584   4.917  1.00  0.00     0.103 C 
HETATM    5  O13         0      31.382   9.256   5.348  1.00  0.00    -0.307 OA
HETATM    6  C14         0      31.585   9.494   6.625  1.00  0.00     0.107 C 
HETATM    7  C15         0      32.839   9.828   7.115  1.00  0.00     0.049 C 
HETATM    8  C16         0      33.104   9.827   8.479  1.00  0.00     0.093 C 
HETATM    9  C18         0      31.993  10.007   9.293  1.00  0.00     0.048 C 
HETATM   10  C19         0      30.718   9.727   8.819  1.00  0.00     0.096 C 
HETATM   11  C21         0      30.554   9.287   7.534  1.00  0.00     0.084 C 
ENDROOT
BRANCH  10  12
HETATM   12  O20         0      29.692   9.488   9.727  1.00  0.00    -0.359 OA
HETATM   13  H20         0      29.924   9.147  10.583  1.00  0.00     0.218 HD
ENDBRANCH  10  12
BRANCH   4  14
HETATM   14  C5          0      30.445   7.806   3.682  1.00  0.00     0.025 C 
HETATM   15  C6          0      31.559   7.868   2.858  1.00  0.00     0.004 C 
HETATM   16  C7          0      31.987   6.685   2.263  1.00  0.00     0.026 C 
HETATM   17  C8          0      31.256   5.507   2.375  1.00  0.00     0.112 C 
HETATM   18  C10         0      29.907   5.685   2.651  1.00  0.00     0.112 C 
HETATM   19  C12         0      29.517   6.838   3.322  1.00  0.00     0.028 C 
BRANCH  17  20
HETATM   20  O9          0      31.893   4.279   2.415  1.00  0.00    -0.357 OA
HETATM   21  H9          0      32.773   4.129   2.088  1.00  0.00     0.218 HD
ENDBRANCH  17  20
BRANCH  18  22
HETATM   22  O11         0      29.098   4.559   2.586  1.00  0.00    -0.357 OA
HETATM   23  H11         0      28.680   4.283   3.393  1.00  0.00     0.218 HD
ENDBRANCH  18  22
ENDBRANCH   4  14
BRANCH   8  24
HETATM   24  O17         0      34.318   9.349   8.986  1.00  0.00    -0.359 OA
HETATM   25  H17         0      34.367   8.541   9.483  1.00  0.00     0.218 HD
ENDBRANCH   8  24
TORSDOF 5
ENDMDL
MODEL 5
REMARK VINA RESULT:      -0.3      2.372      3.069
REMARK  5 active torsions:
REMARK  status: ('A' for Active; 'I' for Inactive)
REMARK    1  A    between atoms: C4_4  and  C5_5 
REMARK    2  A    between atoms: C8_8  and  O9_9 
REMARK    3  A    between atoms: C10_11  and  O11_12 
REMARK    4  A    between atoms: C16_18  and  O17_19 
REMARK    5  A    between atoms: C19_22  and  O20_23 
ROOT
HETATM    1  O1          0      33.096   7.959   5.210  1.00  0.00    -0.286 OA
HETATM    2  C2          0      33.618   8.200   6.333  1.00  0.00     0.201 C 
HETATM    3  C3          0      34.853   7.701   6.710  1.00  0.00     0.067 C 
HETATM    4  C4          0      35.359   7.898   7.990  1.00  0.00     0.103 C 
HETATM    5  O13         0      34.644   8.596   8.855  1.00  0.00    -0.307 OA
HETATM    6  C14         0      33.449   9.060   8.561  1.00  0.00     0.107 C 
HETATM    7  C15         0      32.545   9.429   9.546  1.00  0.00     0.049 C 
HETATM    8  C16         0      31.210   9.673   9.247  1.00  0.00     0.093 C 
HETATM    9  C18         0      30.963  10.046   7.931  1.00  0.00     0.048 C 
HETATM   10  C19         0      31.869   9.734   6.927  1.00  0.00     0.096 C 
HETATM   11  C21         0      33.023   9.068   7.237  1.00  0.00     0.084 C 
ENDROOT
BRANCH  10  12
HETATM   12  O20         0      31.437   9.710   5.604  1.00  0.00    -0.359 OA
HETATM   13  H20         0      31.660  10.448   5.050  1.00  0.00     0.218 HD
ENDBRANCH  10  12
BRANCH   4  14
HETATM   14  C5          0      36.301   6.899   8.499  1.00  0.00     0.025 C 
HETATM   15  C6          0      36.358   6.531   9.835  1.00  0.00     0.004 C 
HETATM   16  C7          0      36.588   5.190  10.125  1.00  0.00     0.026 C 
HETATM   17  C8          0      36.886   4.268   9.127  1.00  0.00     0.112 C 
HETATM   18  C10         0      37.419   4.820   7.969  1.00  0.00     0.112 C 
HETATM   19  C12         0      37.103   6.137   7.659  1.00  0.00     0.028 C 
BRANCH  17  20
HETATM   20  O9          0      36.474   2.952   9.231  1.00  0.00    -0.357 OA
HETATM   21  H9          0      35.566   2.676   9.170  1.00  0.00     0.218 HD
ENDBRANCH  17  20
BRANCH  18  22
HETATM   22  O11         0      37.908   3.935   7.019  1.00  0.00    -0.357 OA
HETATM   23  H11         0      37.269   3.502   6.465  1.00  0.00     0.218 HD
ENDBRANCH  18  22
ENDBRANCH   4  14
BRANCH   8  24
HETATM   24  O17         0      30.183   9.249  10.097  1.00  0.00    -0.359 OA
HETATM   25  H17         0      29.494   8.668   9.797  1.00  0.00     0.218 HD
ENDBRANCH   8  24
TORSDOF 5
ENDMDL
MODEL 6
REMARK VINA RESULT:      -0.3      2.836      4.601
REMARK  5 active torsions:
REMARK  status: ('A' for Active; 'I' for Inactive)
REMARK    1  A    between atoms: C4_4  and  C5_5 
REMARK    2  A    between atoms: C8_8  and  O9_9 
REMARK    3  A    between atoms: C10_11  and  O11_12 
REMARK    4  A    between atoms: C16_18  and  O17_19 
REMARK    5  A    between atoms: C19_22  and  O20_23 
ROOT
HETATM    1  O1          0      30.316   6.310   4.247  1.00  0.00    -0.286 OA
HETATM    2  C2          0      30.221   7.212   5.123  1.00  0.00     0.201 C 
HETATM    3  C3          0      31.118   8.263   5.220  1.00  0.00     0.067 C 
HETATM    4  C4          0      31.049   9.186   6.257  1.00  0.00     0.103 C 
HETATM    5  O13         0      30.089   9.061   7.156  1.00  0.00    -0.307 OA
HETATM    6  C14         0      29.235   8.061   7.132  1.00  0.00     0.107 C 
HETATM    7  C15         0      28.503   7.698   8.254  1.00  0.00     0.049 C 
HETATM    8  C16         0      27.802   6.499   8.300  1.00  0.00     0.093 C 
HETATM    9  C18         0      27.439   5.983   7.062  1.00  0.00     0.048 C 
HETATM   10  C19         0      28.119   6.361   5.913  1.00  0.00     0.096 C 
HETATM   11  C21         0      29.145   7.262   5.997  1.00  0.00     0.084 C 
ENDROOT
BRANCH  10  12
HETATM   12  O20         0      28.057   5.547   4.787  1.00  0.00    -0.359 OA
HETATM   13  H20         0      28.391   4.661   4.859  1.00  0.00     0.218 HD
ENDBRANCH  10  12
BRANCH   4  14
HETATM   14  C5          0      32.294   9.852   6.644  1.00  0.00     0.025 C 
HETATM   15  C6          0      32.622  10.125   7.964  1.00  0.00     0.004 C 
HETATM   16  C7          0      33.953   9.976   8.342  1.00  0.00     0.026 C 
HETATM   17  C8          0      34.948   9.696   7.411  1.00  0.00     0.112 C 
HETATM   18  C10         0      34.644  10.066   6.108  1.00  0.00     0.112 C 
HETATM   19  C12         0      33.307  10.124   5.733  1.00  0.00     0.028 C 
BRANCH  17  20
HETATM   20  O9          0      36.042   8.922   7.755  1.00  0.00    -0.357 OA
HETATM   21  H9          0      36.246   8.087   7.350  1.00  0.00     0.218 HD
ENDBRANCH  17  20
BRANCH  18  22
HETATM   22  O11         0      35.669   9.984   5.176  1.00  0.00    -0.357 OA
HETATM   23  H11         0      36.315  10.681   5.186  1.00  0.00     0.218 HD
ENDBRANCH  18  22
ENDBRANCH   4  14
BRANCH   8  24
HETATM   24  O17         0      27.768   5.719   9.462  1.00  0.00    -0.359 OA
HETATM   25  H17         0      28.559   5.362   9.846  1.00  0.00     0.218 HD
ENDBRANCH   8  24
TORSDOF 5
ENDMDL
MODEL 7
REMARK VINA RESULT:      -0.3      3.953      5.797
REMARK  5 active torsions:
REMARK  status: ('A' for Active; 'I' for Inactive)
REMARK    1  A    between atoms: C4_4  and  C5_5 
REMARK    2  A    between atoms: C8_8  and  O9_9 
REMARK    3  A    between atoms: C10_11  and  O11_12 
REMARK    4  A    between atoms: C16_18  and  O17_19 
REMARK    5  A    between atoms: C19_22  and  O20_23 
ROOT
HETATM    1  O1          0      29.187   8.741   5.335  1.00  0.00    -0.286 OA
HETATM    2  C2          0      30.367   9.184   5.372  1.00  0.00     0.201 C 
HETATM    3  C3          0      31.223   9.132   4.284  1.00  0.00     0.067 C 
HETATM    4  C4          0      32.550   9.532   4.381  1.00  0.00     0.103 C 
HETATM    5  O13         0      32.992   9.991   5.539  1.00  0.00    -0.307 OA
HETATM    6  C14         0      32.232  10.026   6.612  1.00  0.00     0.107 C 
HETATM    7  C15         0      32.772  10.118   7.887  1.00  0.00     0.049 C 
HETATM    8  C16         0      31.994   9.899   9.018  1.00  0.00     0.093 C 
HETATM    9  C18         0      30.633  10.119   8.845  1.00  0.00     0.048 C 
HETATM   10  C19         0      30.068  10.082   7.578  1.00  0.00     0.096 C 
HETATM   11  C21         0      30.860   9.843   6.488  1.00  0.00     0.084 C 
ENDROOT
BRANCH  10  12
HETATM   12  O20         0      28.699   9.866   7.450  1.00  0.00    -0.359 OA
HETATM   13  H20         0      28.407   9.000   7.194  1.00  0.00     0.218 HD
ENDBRANCH  10  12
BRANCH   4  14
HETATM   14  C5          0      33.505   8.918   3.457  1.00  0.00     0.025 C 
HETATM   15  C6          0      33.126   8.009   2.479  1.00  0.00     0.004 C 
HETATM   16  C7          0      33.766   8.085   1.246  1.00  0.00     0.026 C 
HETATM   17  C8          0      34.838   8.944   1.032  1.00  0.00     0.112 C 
HETATM   18  C10         0      35.522   9.314   2.182  1.00  0.00     0.112 C 
HETATM   19  C12         0      34.835   9.311   3.390  1.00  0.00     0.028 C 
BRANCH  17  20
HETATM   20  O9          0      35.041   9.529  -0.205  1.00  0.00    -0.357 OA
HETATM   21  H9          0      35.681   9.219  -0.836  1.00  0.00     0.218 HD
ENDBRANCH  17  20
BRANCH  18  22
HETATM   22  O11         0      36.708  10.014   2.009  1.00  0.00    -0.357 OA
HETATM   23  H11         0      37.213   9.819   1.228  1.00  0.00     0.218 HD
ENDBRANCH  18  22
ENDBRANCH   4  14
BRANCH   8  24
HETATM   24  O17         0      32.492   9.196  10.121  1.00  0.00    -0.359 OA
HETATM   25  H17         0      33.033   8.422  10.017  1.00  0.00     0.218 HD
ENDBRANCH   8  24
TORSDOF 5
ENDMDL
MODEL 8
REMARK VINA RESULT:      -0.3      2.833      4.329
REMARK  5 active torsions:
REMARK  status: ('A' for Active; 'I' for Inactive)
REMARK    1  A    between atoms: C4_4  and  C5_5 
REMARK    2  A    between atoms: C8_8  and  O9_9 
REMARK    3  A    between atoms: C10_11  and  O11_12 
REMARK    4  A    between atoms: C16_18  and  O17_19 
REMARK    5  A    between atoms: C19_22  and  O20_23 
ROOT
HETATM    1  O1          0      29.894   7.612   4.017  1.00  0.00    -0.286 OA
HETATM    2  C2          0      30.263   8.439   4.895  1.00  0.00     0.201 C 
HETATM    3  C3          0      31.595   8.703   5.166  1.00  0.00     0.067 C 
HETATM    4  C4          0      31.974   9.542   6.208  1.00  0.00     0.103 C 
HETATM    5  O13         0      31.032  10.112   6.939  1.00  0.00    -0.307 OA
HETATM    6  C14         0      29.755   9.866   6.748  1.00  0.00     0.107 C 
HETATM    7  C15         0      28.807  10.125   7.728  1.00  0.00     0.049 C 
HETATM    8  C16         0      27.510   9.634   7.625  1.00  0.00     0.093 C 
HETATM    9  C18         0      27.085   9.366   6.329  1.00  0.00     0.048 C 
HETATM   10  C19         0      28.008   9.149   5.315  1.00  0.00     0.096 C 
HETATM   11  C21         0      29.347   9.215   5.589  1.00  0.00     0.084 C 
ENDROOT
BRANCH  10  12
HETATM   12  O20         0      27.610   8.470   4.167  1.00  0.00    -0.359 OA
HETATM   13  H20         0      27.953   7.596   4.025  1.00  0.00     0.218 HD
ENDBRANCH  10  12
BRANCH   4  14
HETATM   14  C5          0      33.289   9.311   6.808  1.00  0.00     0.025 C 
HETATM   15  C6          0      33.778  10.068   7.863  1.00  0.00     0.004 C 
HETATM   16  C7          0      34.509   9.409   8.845  1.00  0.00     0.026 C 
HETATM   17  C8          0      34.859   8.069   8.718  1.00  0.00     0.112 C 
HETATM   18  C10         0      34.889   7.599   7.412  1.00  0.00     0.112 C 
HETATM   19  C12         0      34.083   8.223   6.468  1.00  0.00     0.028 C 
BRANCH  17  20
HETATM   20  O9          0      34.953   7.252   9.831  1.00  0.00    -0.357 OA
HETATM   21  H9          0      34.201   6.939  10.321  1.00  0.00     0.218 HD
ENDBRANCH  17  20
BRANCH  18  22
HETATM   22  O11         0      35.412   6.329   7.213  1.00  0.00    -0.357 OA
HETATM   23  H11         0      36.355   6.262   7.123  1.00  0.00     0.218 HD
ENDBRANCH  18  22
ENDBRANCH   4  14
BRANCH   8  24
HETATM   24  O17         0      26.828   9.136   8.741  1.00  0.00    -0.359 OA
HETATM   25  H17         0      26.122   9.621   9.151  1.00  0.00     0.218 HD
ENDBRANCH   8  24
TORSDOF 5
ENDMDL
MODEL 9
REMARK VINA RESULT:      -0.3      4.553      5.246
REMARK  5 active torsions:
REMARK  status: ('A' for Active; 'I' for Inactive)
REMARK    1  A    between atoms: C4_4  and  C5_5 
REMARK    2  A    between atoms: C8_8  and  O9_9 
REMARK    3  A    between atoms: C10_11  and  O11_12 
REMARK    4  A    between atoms: C16_18  and  O17_19 
REMARK    5  A    between atoms: C19_22  and  O20_23 
ROOT
HETATM    1  O1          0      36.268   5.003   3.707  1.00  0.00    -0.286 OA
HETATM    2  C2          0      35.451   5.526   4.515  1.00  0.00     0.201 C 
HETATM    3  C3          0      35.399   6.889   4.752  1.00  0.00     0.067 C 
HETATM    4  C4          0      34.561   7.428   5.721  1.00  0.00     0.103 C 
HETATM    5  O13         0      33.785   6.613   6.414  1.00  0.00    -0.307 OA
HETATM    6  C14         0      33.823   5.308   6.255  1.00  0.00     0.107 C 
HETATM    7  C15         0      33.333   4.439   7.220  1.00  0.00     0.049 C 
HETATM    8  C16         0      33.602   3.077   7.167  1.00  0.00     0.093 C 
HETATM    9  C18         0      33.891   2.584   5.900  1.00  0.00     0.048 C 
HETATM   10  C19         0      34.338   3.433   4.898  1.00  0.00     0.096 C 
HETATM   11  C21         0      34.481   4.770   5.154  1.00  0.00     0.084 C 
ENDROOT
BRANCH  10  12
HETATM   12  O20         0      35.025   2.901   3.811  1.00  0.00    -0.359 OA
HETATM   13  H20         0      34.916   3.321   2.966  1.00  0.00     0.218 HD
ENDBRANCH  10  12
BRANCH   4  14
HETATM   14  C5          0      34.966   8.698   6.326  1.00  0.00     0.025 C 
HETATM   15  C6          0      34.106   9.478   7.085  1.00  0.00     0.004 C 
HETATM   16  C7          0      34.633  10.120   8.201  1.00  0.00     0.026 C 
HETATM   17  C8          0      35.996  10.099   8.478  1.00  0.00     0.112 C 
HETATM   18  C10         0      36.808   9.862   7.377  1.00  0.00     0.112 C 
HETATM   19  C12         0      36.281   9.144   6.310  1.00  0.00     0.028 C 
BRANCH  17  20
HETATM   20  O9          0      36.454  10.103   9.784  1.00  0.00    -0.357 OA
HETATM   21  H9          0      37.134   9.523  10.107  1.00  0.00     0.218 HD
ENDBRANCH  17  20
BRANCH  18  22
HETATM   22  O11         0      38.175  10.018   7.559  1.00  0.00    -0.357 OA
HETATM   23  H11         0      38.648   9.275   7.917  1.00  0.00     0.218 HD
ENDBRANCH  18  22
ENDBRANCH   4  14
BRANCH   8  24
HETATM   24  O17         0      33.891   2.345   8.325  1.00  0.00    -0.359 OA
HETATM   25  H17         0      33.746   2.706   9.192  1.00  0.00     0.218 HD
ENDBRANCH   8  24
TORSDOF 5
ENDMDL
