MODEL 1
REMARK VINA RESULT:      -4.1      0.000      0.000
REMARK  5 active torsions:
REMARK  status: ('A' for Active; 'I' for Inactive)
REMARK    1  A    between atoms: C4_4  and  C5_5 
REMARK    2  A    between atoms: C8_8  and  O9_9 
REMARK    3  A    between atoms: C10_11  and  O11_12 
REMARK    4  A    between atoms: C16_18  and  O17_19 
REMARK    5  A    between atoms: C19_22  and  O20_23 
ROOT
HETATM    1  O1          0      26.669 108.138  -7.179  1.00  0.00    -0.286 OA
HETATM    2  C2          0      27.781 107.783  -6.701  1.00  0.00     0.201 C 
HETATM    3  C3          0      28.346 106.544  -6.954  1.00  0.00     0.067 C 
HETATM    4  C4          0      29.522 106.140  -6.334  1.00  0.00     0.103 C 
HETATM    5  O13         0      30.119 106.973  -5.500  1.00  0.00    -0.307 OA
HETATM    6  C14         0      29.607 108.145  -5.197  1.00  0.00     0.107 C 
HETATM    7  C15         0      29.991 108.838  -4.057  1.00  0.00     0.049 C 
HETATM    8  C16         0      29.274 109.940  -3.607  1.00  0.00     0.093 C 
HETATM    9  C18         0      28.542 110.603  -4.584  1.00  0.00     0.048 C 
HETATM   10  C19         0      28.181 109.954  -5.758  1.00  0.00     0.096 C 
HETATM   11  C21         0      28.563 108.656  -5.961  1.00  0.00     0.084 C 
ENDROOT
BRANCH  10  12
HETATM   12  O20         0      27.117 110.446  -6.507  1.00  0.00    -0.359 OA
HETATM   13  H20         0      26.289 110.588  -6.065  1.00  0.00     0.218 HD
ENDBRANCH  10  12
BRANCH   4  14
HETATM   14  C5          0      29.726 104.700  -6.159  1.00  0.00     0.025 C 
HETATM   15  C6          0      29.872 104.108  -4.914  1.00  0.00     0.004 C 
HETATM   16  C7          0      29.281 102.864  -4.718  1.00  0.00     0.026 C 
HETATM   17  C8          0      28.679 102.170  -5.763  1.00  0.00     0.112 C 
HETATM   18  C10         0      29.130 102.523  -7.028  1.00  0.00     0.112 C 
HETATM   19  C12         0      29.638 103.802  -7.215  1.00  0.00     0.028 C 
BRANCH  17  20
HETATM   20  O9          0      27.580 101.361  -5.537  1.00  0.00    -0.357 OA
HETATM   21  H9          0      26.927 101.161  -6.197  1.00  0.00     0.218 HD
ENDBRANCH  17  20
BRANCH  18  22
HETATM   22  O11         0      28.705 101.735  -8.089  1.00  0.00    -0.357 OA
HETATM   23  H11         0      29.363 101.476  -8.723  1.00  0.00     0.218 HD
ENDBRANCH  18  22
ENDBRANCH   4  14
BRANCH   8  24
HETATM   24  O17         0      29.041 110.151  -2.243  1.00  0.00    -0.359 OA
HETATM   25  H17         0      28.188 110.413  -1.917  1.00  0.00     0.218 HD
ENDBRANCH   8  24
TORSDOF 5
ENDMDL
MODEL 2
REMARK VINA RESULT:      -4.1      1.935      6.918
REMARK  5 active torsions:
REMARK  status: ('A' for Active; 'I' for Inactive)
REMARK    1  A    between atoms: C4_4  and  C5_5 
REMARK    2  A    between atoms: C8_8  and  O9_9 
REMARK    3  A    between atoms: C10_11  and  O11_12 
REMARK    4  A    between atoms: C16_18  and  O17_19 
REMARK    5  A    between atoms: C19_22  and  O20_23 
ROOT
HETATM    1  O1          0      25.644 103.089  -4.892  1.00  0.00    -0.286 OA
HETATM    2  C2          0      26.785 103.628  -4.900  1.00  0.00     0.201 C 
HETATM    3  C3          0      26.996 104.943  -4.523  1.00  0.00     0.067 C 
HETATM    4  C4          0      28.245 105.543  -4.638  1.00  0.00     0.103 C 
HETATM    5  O13         0      29.253 104.825  -5.101  1.00  0.00    -0.307 OA
HETATM    6  C14         0      29.099 103.584  -5.507  1.00  0.00     0.107 C 
HETATM    7  C15         0      30.020 102.970  -6.344  1.00  0.00     0.049 C 
HETATM    8  C16         0      29.732 101.764  -6.971  1.00  0.00     0.093 C 
HETATM    9  C18         0      28.776 100.983  -6.333  1.00  0.00     0.048 C 
HETATM   10  C19         0      27.869 101.558  -5.453  1.00  0.00     0.096 C 
HETATM   11  C21         0      27.927 102.902  -5.199  1.00  0.00     0.084 C 
ENDROOT
BRANCH  10  12
HETATM   12  O20         0      26.681 100.892  -5.168  1.00  0.00    -0.359 OA
HETATM   13  H20         0      26.460 100.132  -5.693  1.00  0.00     0.218 HD
ENDBRANCH  10  12
BRANCH   4  14
HETATM   14  C5          0      28.276 106.997  -4.811  1.00  0.00     0.025 C 
HETATM   15  C6          0      27.186 107.724  -5.266  1.00  0.00     0.004 C 
HETATM   16  C7          0      26.956 108.969  -4.691  1.00  0.00     0.026 C 
HETATM   17  C8          0      27.854 109.534  -3.791  1.00  0.00     0.112 C 
HETATM   18  C10         0      29.154 109.055  -3.891  1.00  0.00     0.112 C 
HETATM   19  C12         0      29.349 107.773  -4.391  1.00  0.00     0.028 C 
BRANCH  17  20
HETATM   20  O9          0      27.410 110.340  -2.758  1.00  0.00    -0.357 OA
HETATM   21  H9          0      26.502 110.393  -2.483  1.00  0.00     0.218 HD
ENDBRANCH  17  20
BRANCH  18  22
HETATM   22  O11         0      30.125 109.714  -3.151  1.00  0.00    -0.357 OA
HETATM   23  H11         0      30.398 110.569  -3.465  1.00  0.00     0.218 HD
ENDBRANCH  18  22
ENDBRANCH   4  14
BRANCH   8  24
HETATM   24  O17         0      30.116 101.520  -8.295  1.00  0.00    -0.359 OA
HETATM   25  H17         0      30.826 100.925  -8.507  1.00  0.00     0.218 HD
ENDBRANCH   8  24
TORSDOF 5
ENDMDL
MODEL 3
REMARK VINA RESULT:      -3.9      1.770      6.647
REMARK  5 active torsions:
REMARK  status: ('A' for Active; 'I' for Inactive)
REMARK    1  A    between atoms: C4_4  and  C5_5 
REMARK    2  A    between atoms: C8_8  and  O9_9 
REMARK    3  A    between atoms: C10_11  and  O11_12 
REMARK    4  A    between atoms: C16_18  and  O17_19 
REMARK    5  A    between atoms: C19_22  and  O20_23 
ROOT
HETATM    1  O1          0      25.841 105.660  -5.540  1.00  0.00    -0.286 OA
HETATM    2  C2          0      27.027 105.749  -5.120  1.00  0.00     0.201 C 
HETATM    3  C3          0      27.629 106.960  -4.822  1.00  0.00     0.067 C 
HETATM    4  C4          0      28.969 107.038  -4.459  1.00  0.00     0.103 C 
HETATM    5  O13         0      29.671 105.921  -4.380  1.00  0.00    -0.307 OA
HETATM    6  C14         0      29.159 104.750  -4.688  1.00  0.00     0.107 C 
HETATM    7  C15         0      29.960 103.659  -4.994  1.00  0.00     0.049 C 
HETATM    8  C16         0      29.426 102.508  -5.562  1.00  0.00     0.093 C 
HETATM    9  C18         0      28.075 102.303  -5.311  1.00  0.00     0.048 C 
HETATM   10  C19         0      27.254 103.365  -4.957  1.00  0.00     0.096 C 
HETATM   11  C21         0      27.782 104.621  -4.837  1.00  0.00     0.084 C 
ENDROOT
BRANCH  10  12
HETATM   12  O20         0      25.878 103.250  -5.135  1.00  0.00    -0.359 OA
HETATM   13  H20         0      25.387 104.038  -5.331  1.00  0.00     0.218 HD
ENDBRANCH  10  12
BRANCH   4  14
HETATM   14  C5          0      29.669 108.292  -4.746  1.00  0.00     0.025 C 
HETATM   15  C6          0      30.125 108.625  -6.013  1.00  0.00     0.004 C 
HETATM   16  C7          0      30.016 109.955  -6.407  1.00  0.00     0.026 C 
HETATM   17  C8          0      29.593 110.945  -5.527  1.00  0.00     0.112 C 
HETATM   18  C10         0      29.775 110.642  -4.184  1.00  0.00     0.112 C 
HETATM   19  C12         0      29.795 109.305  -3.805  1.00  0.00     0.028 C 
BRANCH  17  20
HETATM   20  O9          0      28.863 112.030  -5.978  1.00  0.00    -0.357 OA
HETATM   21  H9          0      29.151 112.606  -6.677  1.00  0.00     0.218 HD
ENDBRANCH  17  20
BRANCH  18  22
HETATM   22  O11         0      29.547 111.664  -3.273  1.00  0.00    -0.357 OA
HETATM   23  H11         0      29.609 111.441  -2.352  1.00  0.00     0.218 HD
ENDBRANCH  18  22
ENDBRANCH   4  14
BRANCH   8  24
HETATM   24  O17         0      30.102 101.811  -6.569  1.00  0.00    -0.359 OA
HETATM   25  H17         0      30.664 101.070  -6.373  1.00  0.00     0.218 HD
ENDBRANCH   8  24
TORSDOF 5
ENDMDL
MODEL 4
REMARK VINA RESULT:      -3.9      5.200      6.020
REMARK  5 active torsions:
REMARK  status: ('A' for Active; 'I' for Inactive)
REMARK    1  A    between atoms: C4_4  and  C5_5 
REMARK    2  A    between atoms: C8_8  and  O9_9 
REMARK    3  A    between atoms: C10_11  and  O11_12 
REMARK    4  A    between atoms: C16_18  and  O17_19 
REMARK    5  A    between atoms: C19_22  and  O20_23 
ROOT
HETATM    1  O1          0      23.410 110.240  -0.443  1.00  0.00    -0.286 OA
HETATM    2  C2          0      23.907 109.500  -1.335  1.00  0.00     0.201 C 
HETATM    3  C3          0      23.754 108.124  -1.340  1.00  0.00     0.067 C 
HETATM    4  C4          0      24.398 107.322  -2.276  1.00  0.00     0.103 C 
HETATM    5  O13         0      25.156 107.899  -3.192  1.00  0.00    -0.307 OA
HETATM    6  C14         0      25.364 109.197  -3.210  1.00  0.00     0.107 C 
HETATM    7  C15         0      26.439 109.755  -3.886  1.00  0.00     0.049 C 
HETATM    8  C16         0      26.801 111.083  -3.695  1.00  0.00     0.093 C 
HETATM    9  C18         0      25.777 111.914  -3.256  1.00  0.00     0.048 C 
HETATM   10  C19         0      24.665 111.383  -2.617  1.00  0.00     0.096 C 
HETATM   11  C21         0      24.567 110.031  -2.433  1.00  0.00     0.084 C 
ENDROOT
BRANCH  10  12
HETATM   12  O20         0      23.884 112.209  -1.813  1.00  0.00    -0.359 OA
HETATM   13  H20         0      24.233 112.467  -0.969  1.00  0.00     0.218 HD
ENDBRANCH  10  12
BRANCH   4  14
HETATM   14  C5          0      24.691 105.941  -1.887  1.00  0.00     0.025 C 
HETATM   15  C6          0      24.899 105.559  -0.569  1.00  0.00     0.004 C 
HETATM   16  C7          0      24.386 104.330  -0.166  1.00  0.00     0.026 C 
HETATM   17  C8          0      23.804 103.450  -1.072  1.00  0.00     0.112 C 
HETATM   18  C10         0      24.205 103.625  -2.390  1.00  0.00     0.112 C 
HETATM   19  C12         0      24.633 104.886  -2.788  1.00  0.00     0.028 C 
BRANCH  17  20
HETATM   20  O9          0      22.760 102.627  -0.689  1.00  0.00    -0.357 OA
HETATM   21  H9          0      21.846 102.817  -0.867  1.00  0.00     0.218 HD
ENDBRANCH  17  20
BRANCH  18  22
HETATM   22  O11         0      23.804 102.659  -3.302  1.00  0.00    -0.357 OA
HETATM   23  H11         0      22.883 102.424  -3.302  1.00  0.00     0.218 HD
ENDBRANCH  18  22
ENDBRANCH   4  14
BRANCH   8  24
HETATM   24  O17         0      28.144 111.470  -3.623  1.00  0.00    -0.359 OA
HETATM   25  H17         0      28.673 111.585  -4.403  1.00  0.00     0.218 HD
ENDBRANCH   8  24
TORSDOF 5
ENDMDL
MODEL 5
REMARK VINA RESULT:      -3.6      3.609      5.192
REMARK  5 active torsions:
REMARK  status: ('A' for Active; 'I' for Inactive)
REMARK    1  A    between atoms: C4_4  and  C5_5 
REMARK    2  A    between atoms: C8_8  and  O9_9 
REMARK    3  A    between atoms: C10_11  and  O11_12 
REMARK    4  A    between atoms: C16_18  and  O17_19 
REMARK    5  A    between atoms: C19_22  and  O20_23 
ROOT
HETATM    1  O1          0      24.398 108.913  -1.519  1.00  0.00    -0.286 OA
HETATM    2  C2          0      24.927 109.400  -2.556  1.00  0.00     0.201 C 
HETATM    3  C3          0      25.680 108.646  -3.439  1.00  0.00     0.067 C 
HETATM    4  C4          0      26.337 109.227  -4.518  1.00  0.00     0.103 C 
HETATM    5  O13         0      26.217 110.529  -4.707  1.00  0.00    -0.307 OA
HETATM    6  C14         0      25.545 111.297  -3.877  1.00  0.00     0.107 C 
HETATM    7  C15         0      25.740 112.670  -3.833  1.00  0.00     0.049 C 
HETATM    8  C16         0      25.225 113.438  -2.795  1.00  0.00     0.093 C 
HETATM    9  C18         0      24.120 112.893  -2.153  1.00  0.00     0.048 C 
HETATM   10  C19         0      23.870 111.529  -2.216  1.00  0.00     0.096 C 
HETATM   11  C21         0      24.708 110.717  -2.931  1.00  0.00     0.084 C 
ENDROOT
BRANCH  10  12
HETATM   12  O20         0      23.058 110.940  -1.251  1.00  0.00    -0.359 OA
HETATM   13  H20         0      23.324 110.100  -0.898  1.00  0.00     0.218 HD
ENDBRANCH  10  12
BRANCH   4  14
HETATM   14  C5          0      27.536 108.550  -5.016  1.00  0.00     0.025 C 
HETATM   15  C6          0      28.819 108.910  -4.628  1.00  0.00     0.004 C 
HETATM   16  C7          0      29.744 107.889  -4.435  1.00  0.00     0.026 C 
HETATM   17  C8          0      29.446 106.566  -4.745  1.00  0.00     0.112 C 
HETATM   18  C10         0      28.434 106.404  -5.682  1.00  0.00     0.112 C 
HETATM   19  C12         0      27.473 107.402  -5.795  1.00  0.00     0.028 C 
BRANCH  17  20
HETATM   20  O9          0      29.983 105.526  -4.007  1.00  0.00    -0.357 OA
HETATM   21  H9          0      29.789 104.610  -4.168  1.00  0.00     0.218 HD
ENDBRANCH  17  20
BRANCH  18  22
HETATM   22  O11         0      28.225 105.121  -6.167  1.00  0.00    -0.357 OA
HETATM   23  H11         0      28.309 104.407  -5.545  1.00  0.00     0.218 HD
ENDBRANCH  18  22
ENDBRANCH   4  14
BRANCH   8  24
HETATM   24  O17         0      25.958 114.489  -2.233  1.00  0.00    -0.359 OA
HETATM   25  H17         0      26.034 114.598  -1.292  1.00  0.00     0.218 HD
ENDBRANCH   8  24
TORSDOF 5
ENDMDL
MODEL 6
REMARK VINA RESULT:      -3.6      2.262      3.053
REMARK  5 active torsions:
REMARK  status: ('A' for Active; 'I' for Inactive)
REMARK    1  A    between atoms: C4_4  and  C5_5 
REMARK    2  A    between atoms: C8_8  and  O9_9 
REMARK    3  A    between atoms: C10_11  and  O11_12 
REMARK    4  A    between atoms: C16_18  and  O17_19 
REMARK    5  A    between atoms: C19_22  and  O20_23 
ROOT
HETATM    1  O1          0      29.338 109.283  -4.550  1.00  0.00    -0.286 OA
HETATM    2  C2          0      28.856 108.121  -4.456  1.00  0.00     0.201 C 
HETATM    3  C3          0      29.587 106.980  -4.737  1.00  0.00     0.067 C 
HETATM    4  C4          0      29.003 105.718  -4.725  1.00  0.00     0.103 C 
HETATM    5  O13         0      27.722 105.615  -4.416  1.00  0.00    -0.307 OA
HETATM    6  C14         0      26.974 106.670  -4.177  1.00  0.00     0.107 C 
HETATM    7  C15         0      25.589 106.615  -4.250  1.00  0.00     0.049 C 
HETATM    8  C16         0      24.820 107.772  -4.250  1.00  0.00     0.093 C 
HETATM    9  C18         0      25.421 108.876  -3.656  1.00  0.00     0.048 C 
HETATM   10  C19         0      26.801 108.943  -3.525  1.00  0.00     0.096 C 
HETATM   11  C21         0      27.576 107.906  -3.969  1.00  0.00     0.084 C 
ENDROOT
BRANCH  10  12
HETATM   12  O20         0      27.409 110.182  -3.348  1.00  0.00    -0.359 OA
HETATM   13  H20         0      26.901 110.872  -2.940  1.00  0.00     0.218 HD
ENDBRANCH  10  12
BRANCH   4  14
HETATM   14  C5          0      29.608 104.692  -5.575  1.00  0.00     0.025 C 
HETATM   15  C6          0      30.125 103.507  -5.072  1.00  0.00     0.004 C 
HETATM   16  C7          0      29.928 102.349  -5.817  1.00  0.00     0.026 C 
HETATM   17  C8          0      29.354 102.386  -7.084  1.00  0.00     0.112 C 
HETATM   18  C10         0      29.462 103.608  -7.734  1.00  0.00     0.112 C 
HETATM   19  C12         0      29.573 104.759  -6.962  1.00  0.00     0.028 C 
BRANCH  17  20
HETATM   20  O9          0      28.566 101.342  -7.536  1.00  0.00    -0.357 OA
HETATM   21  H9          0      27.729 101.108  -7.152  1.00  0.00     0.218 HD
ENDBRANCH  17  20
BRANCH  18  22
HETATM   22  O11         0      29.078 103.647  -9.067  1.00  0.00    -0.357 OA
HETATM   23  H11         0      29.705 104.006  -9.684  1.00  0.00     0.218 HD
ENDBRANCH  18  22
ENDBRANCH   4  14
BRANCH   8  24
HETATM   24  O17         0      23.695 107.900  -5.071  1.00  0.00    -0.359 OA
HETATM   25  H17         0      23.395 107.186  -5.621  1.00  0.00     0.218 HD
ENDBRANCH   8  24
TORSDOF 5
ENDMDL
MODEL 7
REMARK VINA RESULT:      -3.6      7.117     10.480
REMARK  5 active torsions:
REMARK  status: ('A' for Active; 'I' for Inactive)
REMARK    1  A    between atoms: C4_4  and  C5_5 
REMARK    2  A    between atoms: C8_8  and  O9_9 
REMARK    3  A    between atoms: C10_11  and  O11_12 
REMARK    4  A    between atoms: C16_18  and  O17_19 
REMARK    5  A    between atoms: C19_22  and  O20_23 
ROOT
HETATM    1  O1          0      19.985 108.798  -0.664  1.00  0.00    -0.286 OA
HETATM    2  C2          0      21.175 109.217  -0.685  1.00  0.00     0.201 C 
HETATM    3  C3          0      21.496 110.558  -0.815  1.00  0.00     0.067 C 
HETATM    4  C4          0      22.814 110.983  -0.939  1.00  0.00     0.103 C 
HETATM    5  O13         0      23.778 110.079  -0.911  1.00  0.00    -0.307 OA
HETATM    6  C14         0      23.526 108.791  -0.827  1.00  0.00     0.107 C 
HETATM    7  C15         0      24.465 107.837  -1.193  1.00  0.00     0.049 C 
HETATM    8  C16         0      24.114 106.501  -1.346  1.00  0.00     0.093 C 
HETATM    9  C18         0      22.993 106.102  -0.628  1.00  0.00     0.048 C 
HETATM   10  C19         0      22.057 107.037  -0.205  1.00  0.00     0.096 C 
HETATM   11  C21         0      22.248 108.363  -0.484  1.00  0.00     0.084 C 
ENDROOT
BRANCH  10  12
HETATM   12  O20         0      20.769 106.615   0.108  1.00  0.00    -0.359 OA
HETATM   13  H20         0      20.384 105.927  -0.422  1.00  0.00     0.218 HD
ENDBRANCH  10  12
BRANCH   4  14
HETATM   14  C5          0      23.048 112.240  -1.651  1.00  0.00     0.025 C 
HETATM   15  C6          0      22.208 113.338  -1.535  1.00  0.00     0.004 C 
HETATM   16  C7          0      22.794 114.599  -1.508  1.00  0.00     0.026 C 
HETATM   17  C8          0      24.157 114.774  -1.722  1.00  0.00     0.112 C 
HETATM   18  C10         0      24.768 113.751  -2.435  1.00  0.00     0.112 C 
HETATM   19  C12         0      24.209 112.480  -2.376  1.00  0.00     0.028 C 
BRANCH  17  20
HETATM   20  O9          0      24.851 115.786  -1.083  1.00  0.00    -0.357 OA
HETATM   21  H9          0      24.868 116.687  -1.384  1.00  0.00     0.218 HD
ENDBRANCH  17  20
BRANCH  18  22
HETATM   22  O11         0      26.079 113.963  -2.839  1.00  0.00    -0.357 OA
HETATM   23  H11         0      26.726 113.332  -2.547  1.00  0.00     0.218 HD
ENDBRANCH  18  22
ENDBRANCH   4  14
BRANCH   8  24
HETATM   24  O17         0      24.635 105.725  -2.387  1.00  0.00    -0.359 OA
HETATM   25  H17         0      25.555 105.488  -2.421  1.00  0.00     0.218 HD
ENDBRANCH   8  24
TORSDOF 5
ENDMDL
MODEL 8
REMARK VINA RESULT:      -3.5      4.898      5.877
REMARK  5 active torsions:
REMARK  status: ('A' for Active; 'I' for Inactive)
REMARK    1  A    between atoms: C4_4  and  C5_5 
REMARK    2  A    between atoms: C8_8  and  O9_9 
REMARK    3  A    between atoms: C10_11  and  O11_12 
REMARK    4  A    between atoms: C16_18  and  O17_19 
REMARK    5  A    between atoms: C19_22  and  O20_23 
ROOT
HETATM    1  O1          0      23.944 111.328  -3.789  1.00  0.00    -0.286 OA
HETATM    2  C2          0      24.701 110.334  -3.615  1.00  0.00     0.201 C 
HETATM    3  C3          0      24.274 109.161  -3.016  1.00  0.00     0.067 C 
HETATM    4  C4          0      25.153 108.120  -2.744  1.00  0.00     0.103 C 
HETATM    5  O13         0      26.422 108.254  -3.088  1.00  0.00    -0.307 OA
HETATM    6  C14         0      26.887 109.360  -3.625  1.00  0.00     0.107 C 
HETATM    7  C15         0      28.241 109.663  -3.619  1.00  0.00     0.049 C 
HETATM    8  C16         0      28.699 110.932  -3.952  1.00  0.00     0.093 C 
HETATM    9  C18         0      27.848 111.667  -4.770  1.00  0.00     0.048 C 
HETATM   10  C19         0      26.495 111.361  -4.836  1.00  0.00     0.096 C 
HETATM   11  C21         0      25.998 110.317  -4.104  1.00  0.00     0.084 C 
ENDROOT
BRANCH  10  12
HETATM   12  O20         0      25.600 112.328  -5.284  1.00  0.00    -0.359 OA
HETATM   13  H20         0      25.082 112.789  -4.636  1.00  0.00     0.218 HD
ENDBRANCH  10  12
BRANCH   4  14
HETATM   14  C5          0      24.815 107.231  -1.630  1.00  0.00     0.025 C 
HETATM   15  C6          0      24.125 107.663  -0.507  1.00  0.00     0.004 C 
HETATM   16  C7          0      23.189 106.795   0.047  1.00  0.00     0.026 C 
HETATM   17  C8          0      23.038 105.493  -0.416  1.00  0.00     0.112 C 
HETATM   18  C10         0      24.152 104.975  -1.063  1.00  0.00     0.112 C 
HETATM   19  C12         0      25.027 105.860  -1.682  1.00  0.00     0.028 C 
BRANCH  17  20
HETATM   20  O9          0      21.800 104.875  -0.405  1.00  0.00    -0.357 OA
HETATM   21  H9          0      21.018 105.268  -0.035  1.00  0.00     0.218 HD
ENDBRANCH  17  20
BRANCH  18  22
HETATM   22  O11         0      24.125 103.623  -1.376  1.00  0.00    -0.357 OA
HETATM   23  H11         0      23.386 103.121  -1.052  1.00  0.00     0.218 HD
ENDBRANCH  18  22
ENDBRANCH   4  14
BRANCH   8  24
HETATM   24  O17         0      29.750 111.536  -3.253  1.00  0.00    -0.359 OA
HETATM   25  H17         0      30.067 112.402  -3.479  1.00  0.00     0.218 HD
ENDBRANCH   8  24
TORSDOF 5
ENDMDL
MODEL 9
REMARK VINA RESULT:      -3.4      4.982      5.429
REMARK  5 active torsions:
REMARK  status: ('A' for Active; 'I' for Inactive)
REMARK    1  A    between atoms: C4_4  and  C5_5 
REMARK    2  A    between atoms: C8_8  and  O9_9 
REMARK    3  A    between atoms: C10_11  and  O11_12 
REMARK    4  A    between atoms: C16_18  and  O17_19 
REMARK    5  A    between atoms: C19_22  and  O20_23 
ROOT
HETATM    1  O1          0      24.857 109.255  -3.078  1.00  0.00    -0.286 OA
HETATM    2  C2          0      25.151 108.044  -2.881  1.00  0.00     0.201 C 
HETATM    3  C3          0      25.934 107.310  -3.756  1.00  0.00     0.067 C 
HETATM    4  C4          0      26.158 105.951  -3.568  1.00  0.00     0.103 C 
HETATM    5  O13         0      25.623 105.359  -2.516  1.00  0.00    -0.307 OA
HETATM    6  C14         0      24.841 106.000  -1.675  1.00  0.00     0.107 C 
HETATM    7  C15         0      23.973 105.328  -0.827  1.00  0.00     0.049 C 
HETATM    8  C16         0      22.977 106.003  -0.131  1.00  0.00     0.093 C 
HETATM    9  C18         0      23.227 107.352   0.091  1.00  0.00     0.048 C 
HETATM   10  C19         0      24.125 108.044  -0.710  1.00  0.00     0.096 C 
HETATM   11  C21         0      24.782 107.389  -1.716  1.00  0.00     0.084 C 
ENDROOT
BRANCH  10  12
HETATM   12  O20         0      24.048 109.432  -0.777  1.00  0.00    -0.359 OA
HETATM   13  H20         0      23.339 109.814  -1.280  1.00  0.00     0.218 HD
ENDBRANCH  10  12
BRANCH   4  14
HETATM   14  C5          0      26.443 105.149  -4.760  1.00  0.00     0.025 C 
HETATM   15  C6          0      26.922 105.699  -5.940  1.00  0.00     0.004 C 
HETATM   16  C7          0      27.868 104.971  -6.653  1.00  0.00     0.026 C 
HETATM   17  C8          0      28.229 103.680  -6.280  1.00  0.00     0.112 C 
HETATM   18  C10         0      27.280 103.010  -5.521  1.00  0.00     0.112 C 
HETATM   19  C12         0      26.400 103.761  -4.750  1.00  0.00     0.028 C 
BRANCH  17  20
HETATM   20  O9          0      29.517 103.218  -6.482  1.00  0.00    -0.357 OA
HETATM   21  H9          0      29.778 102.312  -6.361  1.00  0.00     0.218 HD
ENDBRANCH  17  20
BRANCH  18  22
HETATM   22  O11         0      27.504 101.661  -5.282  1.00  0.00    -0.357 OA
HETATM   23  H11         0      28.233 101.441  -4.714  1.00  0.00     0.218 HD
ENDBRANCH  18  22
ENDBRANCH   4  14
BRANCH   8  24
HETATM   24  O17         0      21.698 105.456   0.026  1.00  0.00    -0.359 OA
HETATM   25  H17         0      20.920 106.000   0.027  1.00  0.00     0.218 HD
ENDBRANCH   8  24
TORSDOF 5
ENDMDL
