MODEL 1
REMARK VINA RESULT:      -3.6      0.000      0.000
REMARK  5 active torsions:
REMARK  status: ('A' for Active; 'I' for Inactive)
REMARK    1  A    between atoms: C4_4  and  C5_5 
REMARK    2  A    between atoms: C8_8  and  O9_9 
REMARK    3  A    between atoms: C10_11  and  O11_12 
REMARK    4  A    between atoms: C16_18  and  O17_19 
REMARK    5  A    between atoms: C19_22  and  O20_23 
ROOT
HETATM    1  O1          0      60.751   7.783 -22.053  1.00  0.00    -0.286 OA
HETATM    2  C2          0      60.481   6.744 -22.716  1.00  0.00     0.201 C 
HETATM    3  C3          0      59.591   6.741 -23.777  1.00  0.00     0.067 C 
HETATM    4  C4          0      59.233   5.564 -24.425  1.00  0.00     0.103 C 
HETATM    5  O13         0      59.776   4.429 -24.023  1.00  0.00    -0.307 OA
HETATM    6  C14         0      60.597   4.370 -22.997  1.00  0.00     0.107 C 
HETATM    7  C15         0      60.848   3.181 -22.329  1.00  0.00     0.049 C 
HETATM    8  C16         0      61.506   3.166 -21.105  1.00  0.00     0.093 C 
HETATM    9  C18         0      62.330   4.259 -20.868  1.00  0.00     0.048 C 
HETATM   10  C19         0      62.135   5.451 -21.553  1.00  0.00     0.096 C 
HETATM   11  C21         0      61.135   5.544 -22.482  1.00  0.00     0.084 C 
ENDROOT
BRANCH  10  12
HETATM   12  O20         0      62.646   6.632 -21.022  1.00  0.00    -0.359 OA
HETATM   13  H20         0      62.208   7.445 -21.244  1.00  0.00     0.218 HD
ENDBRANCH  10  12
BRANCH   4  14
HETATM   14  C5          0      57.920   5.528 -25.071  1.00  0.00     0.025 C 
HETATM   15  C6          0      57.290   4.345 -25.428  1.00  0.00     0.004 C 
HETATM   16  C7          0      55.911   4.272 -25.258  1.00  0.00     0.026 C 
HETATM   17  C8          0      55.164   5.380 -24.874  1.00  0.00     0.112 C 
HETATM   18  C10         0      55.754   6.604 -25.157  1.00  0.00     0.112 C 
HETATM   19  C12         0      57.140   6.666 -25.237  1.00  0.00     0.028 C 
BRANCH  17  20
HETATM   20  O9          0      54.035   5.235 -24.087  1.00  0.00    -0.357 OA
HETATM   21  H9          0      53.148   5.337 -24.412  1.00  0.00     0.218 HD
ENDBRANCH  17  20
BRANCH  18  22
HETATM   22  O11         0      54.975   7.736 -24.968  1.00  0.00    -0.357 OA
HETATM   23  H11         0      54.890   8.057 -24.077  1.00  0.00     0.218 HD
ENDBRANCH  18  22
ENDBRANCH   4  14
BRANCH   8  24
HETATM   24  O17         0      61.108   2.306 -20.074  1.00  0.00    -0.359 OA
HETATM   25  H17         0      61.142   1.362 -20.171  1.00  0.00     0.218 HD
ENDBRANCH   8  24
TORSDOF 5
ENDMDL
MODEL 2
REMARK VINA RESULT:      -3.6      2.929      6.609
REMARK  5 active torsions:
REMARK  status: ('A' for Active; 'I' for Inactive)
REMARK    1  A    between atoms: C4_4  and  C5_5 
REMARK    2  A    between atoms: C8_8  and  O9_9 
REMARK    3  A    between atoms: C10_11  and  O11_12 
REMARK    4  A    between atoms: C16_18  and  O17_19 
REMARK    5  A    between atoms: C19_22  and  O20_23 
ROOT
HETATM    1  O1          0      61.193   2.271 -19.875  1.00  0.00    -0.286 OA
HETATM    2  C2          0      61.537   3.097 -20.764  1.00  0.00     0.201 C 
HETATM    3  C3          0      62.391   4.158 -20.513  1.00  0.00     0.067 C 
HETATM    4  C4          0      62.672   5.112 -21.484  1.00  0.00     0.103 C 
HETATM    5  O13         0      62.122   4.983 -22.679  1.00  0.00    -0.307 OA
HETATM    6  C14         0      61.276   4.016 -22.958  1.00  0.00     0.107 C 
HETATM    7  C15         0      60.407   4.095 -24.037  1.00  0.00     0.049 C 
HETATM    8  C16         0      59.352   3.202 -24.180  1.00  0.00     0.093 C 
HETATM    9  C18         0      59.527   1.979 -23.543  1.00  0.00     0.048 C 
HETATM   10  C19         0      60.423   1.854 -22.490  1.00  0.00     0.096 C 
HETATM   11  C21         0      61.153   2.940 -22.087  1.00  0.00     0.084 C 
ENDROOT
BRANCH  10  12
HETATM   12  O20         0      60.282   0.796 -21.598  1.00  0.00    -0.359 OA
HETATM   13  H20         0      60.418   0.970 -20.675  1.00  0.00     0.218 HD
ENDBRANCH  10  12
BRANCH   4  14
HETATM   14  C5          0      63.045   6.450 -21.020  1.00  0.00     0.025 C 
HETATM   15  C6          0      64.196   6.698 -20.288  1.00  0.00     0.004 C 
HETATM   16  C7          0      64.892   7.872 -20.559  1.00  0.00     0.026 C 
HETATM   17  C8          0      64.391   8.832 -21.431  1.00  0.00     0.112 C 
HETATM   18  C10         0      63.013   8.798 -21.601  1.00  0.00     0.112 C 
HETATM   19  C12         0      62.353   7.591 -21.406  1.00  0.00     0.028 C 
BRANCH  17  20
HETATM   20  O9          0      65.243   9.597 -22.209  1.00  0.00    -0.357 OA
HETATM   21  H9          0      66.005  10.050 -21.868  1.00  0.00     0.218 HD
ENDBRANCH  17  20
BRANCH  18  22
HETATM   22  O11         0      62.442   9.847 -22.308  1.00  0.00    -0.357 OA
HETATM   23  H11         0      61.618   9.670 -22.748  1.00  0.00     0.218 HD
ENDBRANCH  18  22
ENDBRANCH   4  14
BRANCH   8  24
HETATM   24  O17         0      58.096   3.624 -24.630  1.00  0.00    -0.359 OA
HETATM   25  H17         0      57.935   3.826 -25.544  1.00  0.00     0.218 HD
ENDBRANCH   8  24
TORSDOF 5
ENDMDL
MODEL 3
REMARK VINA RESULT:      -3.5      3.216      5.850
REMARK  5 active torsions:
REMARK  status: ('A' for Active; 'I' for Inactive)
REMARK    1  A    between atoms: C4_4  and  C5_5 
REMARK    2  A    between atoms: C8_8  and  O9_9 
REMARK    3  A    between atoms: C10_11  and  O11_12 
REMARK    4  A    between atoms: C16_18  and  O17_19 
REMARK    5  A    between atoms: C19_22  and  O20_23 
ROOT
HETATM    1  O1          0      60.186  -0.165 -23.068  1.00  0.00    -0.286 OA
HETATM    2  C2          0      60.695   0.710 -22.315  1.00  0.00     0.201 C 
HETATM    3  C3          0      60.495   2.068 -22.499  1.00  0.00     0.067 C 
HETATM    4  C4          0      61.149   3.013 -21.718  1.00  0.00     0.103 C 
HETATM    5  O13         0      61.965   2.595 -20.766  1.00  0.00    -0.307 OA
HETATM    6  C14         0      62.219   1.320 -20.574  1.00  0.00     0.107 C 
HETATM    7  C15         0      63.341   0.895 -19.876  1.00  0.00     0.049 C 
HETATM    8  C16         0      63.741  -0.436 -19.893  1.00  0.00     0.093 C 
HETATM    9  C18         0      62.728  -1.349 -20.161  1.00  0.00     0.048 C 
HETATM   10  C19         0      61.571  -0.948 -20.816  1.00  0.00     0.096 C 
HETATM   11  C21         0      61.419   0.361 -21.185  1.00  0.00     0.084 C 
ENDROOT
BRANCH  10  12
HETATM   12  O20         0      60.786  -1.902 -21.456  1.00  0.00    -0.359 OA
HETATM   13  H20         0      61.188  -2.423 -22.140  1.00  0.00     0.218 HD
ENDBRANCH  10  12
BRANCH   4  14
HETATM   14  C5          0      61.377   4.332 -22.313  1.00  0.00     0.025 C 
HETATM   15  C6          0      60.788   4.731 -23.504  1.00  0.00     0.004 C 
HETATM   16  C7          0      60.364   6.052 -23.601  1.00  0.00     0.026 C 
HETATM   17  C8          0      60.636   6.982 -22.603  1.00  0.00     0.112 C 
HETATM   18  C10         0      61.728   6.671 -21.804  1.00  0.00     0.112 C 
HETATM   19  C12         0      62.078   5.334 -21.655  1.00  0.00     0.028 C 
BRANCH  17  20
HETATM   20  O9          0      59.746   8.004 -22.324  1.00  0.00    -0.357 OA
HETATM   21  H9          0      59.043   7.933 -21.689  1.00  0.00     0.218 HD
ENDBRANCH  17  20
BRANCH  18  22
HETATM   22  O11         0      62.158   7.649 -20.919  1.00  0.00    -0.357 OA
HETATM   23  H11         0      62.808   8.264 -21.239  1.00  0.00     0.218 HD
ENDBRANCH  18  22
ENDBRANCH   4  14
BRANCH   8  24
HETATM   24  O17         0      65.092  -0.791 -19.974  1.00  0.00    -0.359 OA
HETATM   25  H17         0      65.364  -1.691 -20.104  1.00  0.00     0.218 HD
ENDBRANCH   8  24
TORSDOF 5
ENDMDL
MODEL 4
REMARK VINA RESULT:      -3.5      4.894      6.772
REMARK  5 active torsions:
REMARK  status: ('A' for Active; 'I' for Inactive)
REMARK    1  A    between atoms: C4_4  and  C5_5 
REMARK    2  A    between atoms: C8_8  and  O9_9 
REMARK    3  A    between atoms: C10_11  and  O11_12 
REMARK    4  A    between atoms: C16_18  and  O17_19 
REMARK    5  A    between atoms: C19_22  and  O20_23 
ROOT
HETATM    1  O1          0      66.900   6.194 -20.555  1.00  0.00    -0.286 OA
HETATM    2  C2          0      65.661   5.994 -20.421  1.00  0.00     0.201 C 
HETATM    3  C3          0      65.118   4.730 -20.261  1.00  0.00     0.067 C 
HETATM    4  C4          0      63.743   4.528 -20.219  1.00  0.00     0.103 C 
HETATM    5  O13         0      62.945   5.577 -20.314  1.00  0.00    -0.307 OA
HETATM    6  C14         0      63.407   6.793 -20.503  1.00  0.00     0.107 C 
HETATM    7  C15         0      62.604   7.812 -20.995  1.00  0.00     0.049 C 
HETATM    8  C16         0      63.149   9.013 -21.432  1.00  0.00     0.093 C 
HETATM    9  C18         0      64.382   9.335 -20.876  1.00  0.00     0.048 C 
HETATM   10  C19         0      65.190   8.346 -20.333  1.00  0.00     0.096 C 
HETATM   11  C21         0      64.763   7.046 -20.329  1.00  0.00     0.084 C 
ENDROOT
BRANCH  10  12
HETATM   12  O20         0      66.553   8.586 -20.188  1.00  0.00    -0.359 OA
HETATM   13  H20         0      66.824   9.256 -19.572  1.00  0.00     0.218 HD
ENDBRANCH  10  12
BRANCH   4  14
HETATM   14  C5          0      63.245   3.221 -20.651  1.00  0.00     0.025 C 
HETATM   15  C6          0      63.552   2.042 -19.987  1.00  0.00     0.004 C 
HETATM   16  C7          0      62.549   1.085 -19.875  1.00  0.00     0.026 C 
HETATM   17  C8          0      61.324   1.234 -20.516  1.00  0.00     0.112 C 
HETATM   18  C10         0      61.346   2.077 -21.619  1.00  0.00     0.112 C 
HETATM   19  C12         0      62.306   3.080 -21.665  1.00  0.00     0.028 C 
BRANCH  17  20
HETATM   20  O9          0      60.163   0.740 -19.949  1.00  0.00    -0.357 OA
HETATM   21  H9          0      59.434   0.397 -20.453  1.00  0.00     0.218 HD
ENDBRANCH  17  20
BRANCH  18  22
HETATM   22  O11         0      60.202   2.113 -22.404  1.00  0.00    -0.357 OA
HETATM   23  H11         0      59.547   1.445 -22.241  1.00  0.00     0.218 HD
ENDBRANCH  18  22
ENDBRANCH   4  14
BRANCH   8  24
HETATM   24  O17         0      62.665   9.661 -22.574  1.00  0.00    -0.359 OA
HETATM   25  H17         0      62.360  10.560 -22.546  1.00  0.00     0.218 HD
ENDBRANCH   8  24
TORSDOF 5
ENDMDL
MODEL 5
REMARK VINA RESULT:      -3.5      8.480     11.110
REMARK  5 active torsions:
REMARK  status: ('A' for Active; 'I' for Inactive)
REMARK    1  A    between atoms: C4_4  and  C5_5 
REMARK    2  A    between atoms: C8_8  and  O9_9 
REMARK    3  A    between atoms: C10_11  and  O11_12 
REMARK    4  A    between atoms: C16_18  and  O17_19 
REMARK    5  A    between atoms: C19_22  and  O20_23 
ROOT
HETATM    1  O1          0      54.475   0.505 -20.608  1.00  0.00    -0.286 OA
HETATM    2  C2          0      53.273   0.246 -20.324  1.00  0.00     0.201 C 
HETATM    3  C3          0      52.791  -1.046 -20.208  1.00  0.00     0.067 C 
HETATM    4  C4          0      51.442  -1.305 -19.995  1.00  0.00     0.103 C 
HETATM    5  O13         0      50.610  -0.284 -19.883  1.00  0.00    -0.307 OA
HETATM    6  C14         0      51.009   0.961 -20.023  1.00  0.00     0.107 C 
HETATM    7  C15         0      50.118   1.987 -20.305  1.00  0.00     0.049 C 
HETATM    8  C16         0      50.565   3.242 -20.701  1.00  0.00     0.093 C 
HETATM    9  C18         0      51.854   3.562 -20.294  1.00  0.00     0.048 C 
HETATM   10  C19         0      52.757   2.562 -19.959  1.00  0.00     0.096 C 
HETATM   11  C21         0      52.369   1.251 -20.015  1.00  0.00     0.084 C 
ENDROOT
BRANCH  10  12
HETATM   12  O20         0      54.120   2.841 -19.981  1.00  0.00    -0.359 OA
HETATM   13  H20         0      54.459   3.347 -20.709  1.00  0.00     0.218 HD
ENDBRANCH  10  12
BRANCH   4  14
HETATM   14  C5          0      50.922  -2.588 -20.471  1.00  0.00     0.025 C 
HETATM   15  C6          0      49.875  -2.686 -21.376  1.00  0.00     0.004 C 
HETATM   16  C7          0      49.949  -3.685 -22.341  1.00  0.00     0.026 C 
HETATM   17  C8          0      50.960  -4.640 -22.327  1.00  0.00     0.112 C 
HETATM   18  C10         0      51.549  -4.843 -21.086  1.00  0.00     0.112 C 
HETATM   19  C12         0      51.536  -3.797 -20.170  1.00  0.00     0.028 C 
BRANCH  17  20
HETATM   20  O9          0      51.455  -5.166 -23.507  1.00  0.00    -0.357 OA
HETATM   21  H9          0      52.040  -4.696 -24.090  1.00  0.00     0.218 HD
ENDBRANCH  17  20
BRANCH  18  22
HETATM   22  O11         0      52.427  -5.911 -20.974  1.00  0.00    -0.357 OA
HETATM   23  H11         0      52.045  -6.769 -20.833  1.00  0.00     0.218 HD
ENDBRANCH  18  22
ENDBRANCH   4  14
BRANCH   8  24
HETATM   24  O17         0      49.908   3.967 -21.702  1.00  0.00    -0.359 OA
HETATM   25  H17         0      49.050   3.714 -22.020  1.00  0.00     0.218 HD
ENDBRANCH   8  24
TORSDOF 5
ENDMDL
MODEL 6
REMARK VINA RESULT:      -3.4      3.919      6.169
REMARK  5 active torsions:
REMARK  status: ('A' for Active; 'I' for Inactive)
REMARK    1  A    between atoms: C4_4  and  C5_5 
REMARK    2  A    between atoms: C8_8  and  O9_9 
REMARK    3  A    between atoms: C10_11  and  O11_12 
REMARK    4  A    between atoms: C16_18  and  O17_19 
REMARK    5  A    between atoms: C19_22  and  O20_23 
ROOT
HETATM    1  O1          0      60.484   2.308 -24.157  1.00  0.00    -0.286 OA
HETATM    2  C2          0      60.821   2.864 -23.075  1.00  0.00     0.201 C 
HETATM    3  C3          0      60.948   4.237 -22.945  1.00  0.00     0.067 C 
HETATM    4  C4          0      61.420   4.817 -21.773  1.00  0.00     0.103 C 
HETATM    5  O13         0      61.732   4.031 -20.757  1.00  0.00    -0.307 OA
HETATM    6  C14         0      61.666   2.721 -20.841  1.00  0.00     0.107 C 
HETATM    7  C15         0      62.351   1.896 -19.960  1.00  0.00     0.049 C 
HETATM    8  C16         0      62.485   0.534 -20.202  1.00  0.00     0.093 C 
HETATM    9  C18         0      61.501  -0.017 -21.015  1.00  0.00     0.048 C 
HETATM   10  C19         0      60.764   0.787 -21.874  1.00  0.00     0.096 C 
HETATM   11  C21         0      60.996   2.135 -21.910  1.00  0.00     0.084 C 
ENDROOT
BRANCH  10  12
HETATM   12  O20         0      60.120   0.207 -22.962  1.00  0.00    -0.359 OA
HETATM   13  H20         0      60.403   0.458 -23.833  1.00  0.00     0.218 HD
ENDBRANCH  10  12
BRANCH   4  14
HETATM   14  C5          0      62.083   6.117 -21.889  1.00  0.00     0.025 C 
HETATM   15  C6          0      61.481   7.219 -22.478  1.00  0.00     0.004 C 
HETATM   16  C7          0      61.710   8.464 -21.901  1.00  0.00     0.026 C 
HETATM   17  C8          0      62.613   8.629 -20.857  1.00  0.00     0.112 C 
HETATM   18  C10         0      63.591   7.647 -20.776  1.00  0.00     0.112 C 
HETATM   19  C12         0      63.305   6.386 -21.284  1.00  0.00     0.028 C 
BRANCH  17  20
HETATM   20  O9          0      62.396   9.580 -19.876  1.00  0.00    -0.357 OA
HETATM   21  H9          0      61.719   9.510 -19.213  1.00  0.00     0.218 HD
ENDBRANCH  17  20
BRANCH  18  22
HETATM   22  O11         0      64.625   7.862 -19.875  1.00  0.00    -0.357 OA
HETATM   23  H11         0      65.030   7.092 -19.494  1.00  0.00     0.218 HD
ENDBRANCH  18  22
ENDBRANCH   4  14
BRANCH   8  24
HETATM   24  O17         0      63.682  -0.139 -19.935  1.00  0.00    -0.359 OA
HETATM   25  H17         0      64.148  -0.023 -19.116  1.00  0.00     0.218 HD
ENDBRANCH   8  24
TORSDOF 5
ENDMDL
MODEL 7
REMARK VINA RESULT:      -3.4      2.731      7.362
REMARK  5 active torsions:
REMARK  status: ('A' for Active; 'I' for Inactive)
REMARK    1  A    between atoms: C4_4  and  C5_5 
REMARK    2  A    between atoms: C8_8  and  O9_9 
REMARK    3  A    between atoms: C10_11  and  O11_12 
REMARK    4  A    between atoms: C16_18  and  O17_19 
REMARK    5  A    between atoms: C19_22  and  O20_23 
ROOT
HETATM    1  O1          0      60.573   0.615 -21.217  1.00  0.00    -0.286 OA
HETATM    2  C2          0      61.126   1.632 -21.719  1.00  0.00     0.201 C 
HETATM    3  C3          0      62.258   2.216 -21.177  1.00  0.00     0.067 C 
HETATM    4  C4          0      62.786   3.395 -21.690  1.00  0.00     0.103 C 
HETATM    5  O13         0      62.198   3.954 -22.733  1.00  0.00    -0.307 OA
HETATM    6  C14         0      61.099   3.462 -23.262  1.00  0.00     0.107 C 
HETATM    7  C15         0      60.269   4.228 -24.066  1.00  0.00     0.049 C 
HETATM    8  C16         0      58.995   3.792 -24.411  1.00  0.00     0.093 C 
HETATM    9  C18         0      58.817   2.415 -24.378  1.00  0.00     0.048 C 
HETATM   10  C19         0      59.659   1.612 -23.620  1.00  0.00     0.096 C 
HETATM   11  C21         0      60.684   2.181 -22.913  1.00  0.00     0.084 C 
ENDROOT
BRANCH  10  12
HETATM   12  O20         0      59.233   0.343 -23.243  1.00  0.00    -0.359 OA
HETATM   13  H20         0      59.789  -0.159 -22.660  1.00  0.00     0.218 HD
ENDBRANCH  10  12
BRANCH   4  14
HETATM   14  C5          0      63.545   4.245 -20.770  1.00  0.00     0.025 C 
HETATM   15  C6          0      64.741   3.846 -20.191  1.00  0.00     0.004 C 
HETATM   16  C7          0      65.739   4.804 -20.047  1.00  0.00     0.026 C 
HETATM   17  C8          0      65.512   6.144 -20.344  1.00  0.00     0.112 C 
HETATM   18  C10         0      64.180   6.531 -20.294  1.00  0.00     0.112 C 
HETATM   19  C12         0      63.203   5.569 -20.526  1.00  0.00     0.028 C 
BRANCH  17  20
HETATM   20  O9          0      66.525   6.939 -20.849  1.00  0.00    -0.357 OA
HETATM   21  H9          0      66.693   7.053 -21.777  1.00  0.00     0.218 HD
ENDBRANCH  17  20
BRANCH  18  22
HETATM   22  O11         0      63.916   7.889 -20.395  1.00  0.00    -0.357 OA
HETATM   23  H11         0      64.286   8.450 -19.723  1.00  0.00     0.218 HD
ENDBRANCH  18  22
ENDBRANCH   4  14
BRANCH   8  24
HETATM   24  O17         0      57.909   4.674 -24.452  1.00  0.00    -0.359 OA
HETATM   25  H17         0      57.079   4.426 -24.842  1.00  0.00     0.218 HD
ENDBRANCH   8  24
TORSDOF 5
ENDMDL
MODEL 8
REMARK VINA RESULT:      -3.4      2.146      6.989
REMARK  5 active torsions:
REMARK  status: ('A' for Active; 'I' for Inactive)
REMARK    1  A    between atoms: C4_4  and  C5_5 
REMARK    2  A    between atoms: C8_8  and  O9_9 
REMARK    3  A    between atoms: C10_11  and  O11_12 
REMARK    4  A    between atoms: C16_18  and  O17_19 
REMARK    5  A    between atoms: C19_22  and  O20_23 
ROOT
HETATM    1  O1          0      59.184   0.211 -23.415  1.00  0.00    -0.286 OA
HETATM    2  C2          0      59.493   1.426 -23.552  1.00  0.00     0.201 C 
HETATM    3  C3          0      60.503   2.030 -22.823  1.00  0.00     0.067 C 
HETATM    4  C4          0      60.755   3.394 -22.918  1.00  0.00     0.103 C 
HETATM    5  O13         0      60.020   4.119 -23.743  1.00  0.00    -0.307 OA
HETATM    6  C14         0      59.025   3.603 -24.429  1.00  0.00     0.107 C 
HETATM    7  C15         0      58.021   4.394 -24.968  1.00  0.00     0.049 C 
HETATM    8  C16         0      56.850   3.835 -25.466  1.00  0.00     0.093 C 
HETATM    9  C18         0      56.961   2.513 -25.880  1.00  0.00     0.048 C 
HETATM   10  C19         0      57.982   1.706 -25.396  1.00  0.00     0.096 C 
HETATM   11  C21         0      58.897   2.221 -24.519  1.00  0.00     0.084 C 
ENDROOT
BRANCH  10  12
HETATM   12  O20         0      57.842   0.323 -25.456  1.00  0.00    -0.359 OA
HETATM   13  H20         0      57.806  -0.156 -24.637  1.00  0.00     0.218 HD
ENDBRANCH  10  12
BRANCH   4  14
HETATM   14  C5          0      61.362   4.046 -21.756  1.00  0.00     0.025 C 
HETATM   15  C6          0      61.596   3.384 -20.560  1.00  0.00     0.004 C 
HETATM   16  C7          0      62.769   3.686 -19.875  1.00  0.00     0.026 C 
HETATM   17  C8          0      63.616   4.707 -20.293  1.00  0.00     0.112 C 
HETATM   18  C10         0      63.007   5.683 -21.071  1.00  0.00     0.112 C 
HETATM   19  C12         0      61.885   5.331 -21.812  1.00  0.00     0.028 C 
BRANCH  17  20
HETATM   20  O9          0      64.984   4.612 -20.112  1.00  0.00    -0.357 OA
HETATM   21  H9          0      65.623   4.995 -20.702  1.00  0.00     0.218 HD
ENDBRANCH  17  20
BRANCH  18  22
HETATM   22  O11         0      63.755   6.816 -21.356  1.00  0.00    -0.357 OA
HETATM   23  H11         0      63.830   7.467 -20.667  1.00  0.00     0.218 HD
ENDBRANCH  18  22
ENDBRANCH   4  14
BRANCH   8  24
HETATM   24  O17         0      55.605   4.437 -25.252  1.00  0.00    -0.359 OA
HETATM   25  H17         0      54.816   4.112 -25.667  1.00  0.00     0.218 HD
ENDBRANCH   8  24
TORSDOF 5
ENDMDL
MODEL 9
REMARK VINA RESULT:      -3.3      7.244     10.058
REMARK  5 active torsions:
REMARK  status: ('A' for Active; 'I' for Inactive)
REMARK    1  A    between atoms: C4_4  and  C5_5 
REMARK    2  A    between atoms: C8_8  and  O9_9 
REMARK    3  A    between atoms: C10_11  and  O11_12 
REMARK    4  A    between atoms: C16_18  and  O17_19 
REMARK    5  A    between atoms: C19_22  and  O20_23 
ROOT
HETATM    1  O1          0      52.723  -1.357 -25.538  1.00  0.00    -0.286 OA
HETATM    2  C2          0      52.244  -1.213 -24.379  1.00  0.00     0.201 C 
HETATM    3  C3          0      51.824   0.011 -23.888  1.00  0.00     0.067 C 
HETATM    4  C4          0      51.396   0.161 -22.573  1.00  0.00     0.103 C 
HETATM    5  O13         0      51.376  -0.902 -21.788  1.00  0.00    -0.307 OA
HETATM    6  C14         0      51.799  -2.079 -22.193  1.00  0.00     0.107 C 
HETATM    7  C15         0      52.155  -3.076 -21.296  1.00  0.00     0.049 C 
HETATM    8  C16         0      52.836  -4.213 -21.714  1.00  0.00     0.093 C 
HETATM    9  C18         0      52.664  -4.541 -23.053  1.00  0.00     0.048 C 
HETATM   10  C19         0      52.263  -3.578 -23.970  1.00  0.00     0.096 C 
HETATM   11  C21         0      52.019  -2.300 -23.548  1.00  0.00     0.084 C 
ENDROOT
BRANCH  10  12
HETATM   12  O20         0      52.511  -3.783 -25.324  1.00  0.00    -0.359 OA
HETATM   13  H20         0      52.091  -3.201 -25.946  1.00  0.00     0.218 HD
ENDBRANCH  10  12
BRANCH   4  14
HETATM   14  C5          0      51.550   1.484 -21.965  1.00  0.00     0.025 C 
HETATM   15  C6          0      51.226   1.745 -20.642  1.00  0.00     0.004 C 
HETATM   16  C7          0      52.053   2.612 -19.935  1.00  0.00     0.026 C 
HETATM   17  C8          0      53.089   3.302 -20.557  1.00  0.00     0.112 C 
HETATM   18  C10         0      52.934   3.468 -21.927  1.00  0.00     0.112 C 
HETATM   19  C12         0      52.171   2.538 -22.623  1.00  0.00     0.028 C 
BRANCH  17  20
HETATM   20  O9          0      54.257   3.593 -19.875  1.00  0.00    -0.357 OA
HETATM   21  H9          0      54.308   3.682 -18.930  1.00  0.00     0.218 HD
ENDBRANCH  17  20
BRANCH  18  22
HETATM   22  O11         0      53.837   4.307 -22.564  1.00  0.00    -0.357 OA
HETATM   23  H11         0      53.649   5.238 -22.541  1.00  0.00     0.218 HD
ENDBRANCH  18  22
ENDBRANCH   4  14
BRANCH   8  24
HETATM   24  O17         0      53.865  -4.770 -20.946  1.00  0.00    -0.359 OA
HETATM   25  H17         0      54.118  -5.681 -21.037  1.00  0.00     0.218 HD
ENDBRANCH   8  24
TORSDOF 5
ENDMDL
