MODEL 1
REMARK VINA RESULT:      -3.5      0.000      0.000
REMARK  5 active torsions:
REMARK  status: ('A' for Active; 'I' for Inactive)
REMARK    1  A    between atoms: C4_4  and  C5_5 
REMARK    2  A    between atoms: C8_8  and  O9_9 
REMARK    3  A    between atoms: C10_11  and  O11_12 
REMARK    4  A    between atoms: C16_18  and  O17_19 
REMARK    5  A    between atoms: C19_22  and  O20_23 
ROOT
HETATM    1  O1          0      15.494  30.021  -4.182  1.00  0.00    -0.286 OA
HETATM    2  C2          0      16.678  29.585  -4.216  1.00  0.00     0.201 C 
HETATM    3  C3          0      17.028  28.415  -4.868  1.00  0.00     0.067 C 
HETATM    4  C4          0      18.319  27.904  -4.804  1.00  0.00     0.103 C 
HETATM    5  O13         0      19.232  28.570  -4.119  1.00  0.00    -0.307 OA
HETATM    6  C14         0      18.944  29.665  -3.451  1.00  0.00     0.107 C 
HETATM    7  C15         0      19.759  30.136  -2.432  1.00  0.00     0.049 C 
HETATM    8  C16         0      19.330  31.135  -1.567  1.00  0.00     0.093 C 
HETATM    9  C18         0      18.340  31.967  -2.076  1.00  0.00     0.048 C 
HETATM   10  C19         0      17.536  31.545  -3.127  1.00  0.00     0.096 C 
HETATM   11  C21         0      17.731  30.308  -3.677  1.00  0.00     0.084 C 
ENDROOT
BRANCH  10  12
HETATM   12  O20         0      16.308  32.166  -3.336  1.00  0.00    -0.359 OA
HETATM   13  H20         0      15.829  32.472  -2.575  1.00  0.00     0.218 HD
ENDBRANCH  10  12
BRANCH   4  14
HETATM   14  C5          0      18.476  26.458  -4.967  1.00  0.00     0.025 C 
HETATM   15  C6          0      19.616  25.881  -5.508  1.00  0.00     0.004 C 
HETATM   16  C7          0      20.062  24.688  -4.948  1.00  0.00     0.026 C 
HETATM   17  C8          0      19.329  24.020  -3.973  1.00  0.00     0.112 C 
HETATM   18  C10         0      17.971  24.313  -3.968  1.00  0.00     0.112 C 
HETATM   19  C12         0      17.560  25.547  -4.456  1.00  0.00     0.028 C 
BRANCH  17  20
HETATM   20  O9          0      19.963  23.300  -2.977  1.00  0.00    -0.357 OA
HETATM   21  H9          0      19.999  23.574  -2.068  1.00  0.00     0.218 HD
ENDBRANCH  17  20
BRANCH  18  22
HETATM   22  O11         0      17.165  23.538  -3.146  1.00  0.00    -0.357 OA
HETATM   23  H11         0      16.654  22.855  -3.566  1.00  0.00     0.218 HD
ENDBRANCH  18  22
ENDBRANCH   4  14
BRANCH   8  24
HETATM   24  O17         0      19.621  31.090  -0.199  1.00  0.00    -0.359 OA
HETATM   25  H17         0      20.025  31.824   0.249  1.00  0.00     0.218 HD
ENDBRANCH   8  24
TORSDOF 5
ENDMDL
MODEL 2
REMARK VINA RESULT:      -3.1      1.767      2.557
REMARK  5 active torsions:
REMARK  status: ('A' for Active; 'I' for Inactive)
REMARK    1  A    between atoms: C4_4  and  C5_5 
REMARK    2  A    between atoms: C8_8  and  O9_9 
REMARK    3  A    between atoms: C10_11  and  O11_12 
REMARK    4  A    between atoms: C16_18  and  O17_19 
REMARK    5  A    between atoms: C19_22  and  O20_23 
ROOT
HETATM    1  O1          0      19.055  29.407  -7.546  1.00  0.00    -0.286 OA
HETATM    2  C2          0      18.963  28.929  -6.382  1.00  0.00     0.201 C 
HETATM    3  C3          0      19.139  27.584  -6.107  1.00  0.00     0.067 C 
HETATM    4  C4          0      18.932  27.067  -4.833  1.00  0.00     0.103 C 
HETATM    5  O13         0      18.578  27.892  -3.863  1.00  0.00    -0.307 OA
HETATM    6  C14         0      18.361  29.171  -4.078  1.00  0.00     0.107 C 
HETATM    7  C15         0      17.622  29.946  -3.196  1.00  0.00     0.049 C 
HETATM    8  C16         0      17.181  31.217  -3.546  1.00  0.00     0.093 C 
HETATM    9  C18         0      17.932  31.848  -4.530  1.00  0.00     0.048 C 
HETATM   10  C19         0      18.720  31.106  -5.401  1.00  0.00     0.096 C 
HETATM   11  C21         0      18.771  29.745  -5.277  1.00  0.00     0.084 C 
ENDROOT
BRANCH  10  12
HETATM   12  O20         0      19.104  31.666  -6.615  1.00  0.00    -0.359 OA
HETATM   13  H20         0      20.016  31.909  -6.724  1.00  0.00     0.218 HD
ENDBRANCH  10  12
BRANCH   4  14
HETATM   14  C5          0      18.545  25.658  -4.736  1.00  0.00     0.025 C 
HETATM   15  C6          0      19.468  24.633  -4.595  1.00  0.00     0.004 C 
HETATM   16  C7          0      19.132  23.573  -3.759  1.00  0.00     0.026 C 
HETATM   17  C8          0      17.869  23.468  -3.187  1.00  0.00     0.112 C 
HETATM   18  C10         0      16.867  24.149  -3.864  1.00  0.00     0.112 C 
HETATM   19  C12         0      17.220  25.256  -4.626  1.00  0.00     0.028 C 
BRANCH  17  20
HETATM   20  O9          0      17.703  22.904  -1.934  1.00  0.00    -0.357 OA
HETATM   21  H9          0      18.243  23.121  -1.182  1.00  0.00     0.218 HD
ENDBRANCH  17  20
BRANCH  18  22
HETATM   22  O11         0      15.562  23.925  -3.448  1.00  0.00    -0.357 OA
HETATM   23  H11         0      14.909  24.558  -3.721  1.00  0.00     0.218 HD
ENDBRANCH  18  22
ENDBRANCH   4  14
BRANCH   8  24
HETATM   24  O17         0      15.907  31.671  -3.187  1.00  0.00    -0.359 OA
HETATM   25  H17         0      15.724  32.595  -3.064  1.00  0.00     0.218 HD
ENDBRANCH   8  24
TORSDOF 5
ENDMDL
MODEL 3
REMARK VINA RESULT:      -2.8      2.009      6.328
REMARK  5 active torsions:
REMARK  status: ('A' for Active; 'I' for Inactive)
REMARK    1  A    between atoms: C4_4  and  C5_5 
REMARK    2  A    between atoms: C8_8  and  O9_9 
REMARK    3  A    between atoms: C10_11  and  O11_12 
REMARK    4  A    between atoms: C16_18  and  O17_19 
REMARK    5  A    between atoms: C19_22  and  O20_23 
ROOT
HETATM    1  O1          0      15.511  29.162  -6.296  1.00  0.00    -0.286 OA
HETATM    2  C2          0      16.375  28.883  -5.421  1.00  0.00     0.201 C 
HETATM    3  C3          0      16.851  29.814  -4.512  1.00  0.00     0.067 C 
HETATM    4  C4          0      17.877  29.508  -3.626  1.00  0.00     0.103 C 
HETATM    5  O13         0      18.391  28.291  -3.646  1.00  0.00    -0.307 OA
HETATM    6  C14         0      18.003  27.382  -4.513  1.00  0.00     0.107 C 
HETATM    7  C15         0      18.783  26.273  -4.809  1.00  0.00     0.049 C 
HETATM    8  C16         0      18.495  25.458  -5.898  1.00  0.00     0.093 C 
HETATM    9  C18         0      17.169  25.480  -6.313  1.00  0.00     0.048 C 
HETATM   10  C19         0      16.348  26.552  -5.994  1.00  0.00     0.096 C 
HETATM   11  C21         0      16.842  27.589  -5.251  1.00  0.00     0.084 C 
ENDROOT
BRANCH  10  12
HETATM   12  O20         0      15.202  26.780  -6.751  1.00  0.00    -0.359 OA
HETATM   13  H20         0      15.310  26.966  -7.676  1.00  0.00     0.218 HD
ENDBRANCH  10  12
BRANCH   4  14
HETATM   14  C5          0      18.710  30.617  -3.157  1.00  0.00     0.025 C 
HETATM   15  C6          0      18.678  31.878  -3.735  1.00  0.00     0.004 C 
HETATM   16  C7          0      18.783  32.977  -2.890  1.00  0.00     0.026 C 
HETATM   17  C8          0      19.045  32.831  -1.532  1.00  0.00     0.112 C 
HETATM   18  C10         0      19.672  31.641  -1.187  1.00  0.00     0.112 C 
HETATM   19  C12         0      19.481  30.533  -2.005  1.00  0.00     0.028 C 
BRANCH  17  20
HETATM   20  O9          0      18.520  33.718  -0.609  1.00  0.00    -0.357 OA
HETATM   21  H9          0      18.725  33.697   0.319  1.00  0.00     0.218 HD
ENDBRANCH  17  20
BRANCH  18  22
HETATM   22  O11         0      20.125  31.524   0.119  1.00  0.00    -0.357 OA
HETATM   23  H11         0      20.663  32.233   0.452  1.00  0.00     0.218 HD
ENDBRANCH  18  22
ENDBRANCH   4  14
BRANCH   8  24
HETATM   24  O17         0      19.511  24.936  -6.706  1.00  0.00    -0.359 OA
HETATM   25  H17         0      19.851  25.415  -7.453  1.00  0.00     0.218 HD
ENDBRANCH   8  24
TORSDOF 5
ENDMDL
MODEL 4
REMARK VINA RESULT:      -2.5      1.943      3.797
REMARK  5 active torsions:
REMARK  status: ('A' for Active; 'I' for Inactive)
REMARK    1  A    between atoms: C4_4  and  C5_5 
REMARK    2  A    between atoms: C8_8  and  O9_9 
REMARK    3  A    between atoms: C10_11  and  O11_12 
REMARK    4  A    between atoms: C16_18  and  O17_19 
REMARK    5  A    between atoms: C19_22  and  O20_23 
ROOT
HETATM    1  O1          0      20.124  32.279  -1.873  1.00  0.00    -0.286 OA
HETATM    2  C2          0      19.036  31.718  -2.178  1.00  0.00     0.201 C 
HETATM    3  C3          0      18.972  30.436  -2.696  1.00  0.00     0.067 C 
HETATM    4  C4          0      17.769  29.880  -3.119  1.00  0.00     0.103 C 
HETATM    5  O13         0      16.664  30.594  -3.001  1.00  0.00    -0.307 OA
HETATM    6  C14         0      16.674  31.830  -2.551  1.00  0.00     0.107 C 
HETATM    7  C15         0      15.625  32.705  -2.793  1.00  0.00     0.049 C 
HETATM    8  C16         0      15.748  34.066  -2.542  1.00  0.00     0.093 C 
HETATM    9  C18         0      16.701  34.403  -1.587  1.00  0.00     0.048 C 
HETATM   10  C19         0      17.738  33.531  -1.287  1.00  0.00     0.096 C 
HETATM   11  C21         0      17.814  32.322  -1.923  1.00  0.00     0.084 C 
ENDROOT
BRANCH  10  12
HETATM   12  O20         0      18.892  34.026  -0.688  1.00  0.00    -0.359 OA
HETATM   13  H20         0      18.951  33.992   0.259  1.00  0.00     0.218 HD
ENDBRANCH  10  12
BRANCH   4  14
HETATM   14  C5          0      17.836  28.851  -4.158  1.00  0.00     0.025 C 
HETATM   15  C6          0      18.964  28.073  -4.375  1.00  0.00     0.004 C 
HETATM   16  C7          0      18.771  26.735  -4.701  1.00  0.00     0.026 C 
HETATM   17  C8          0      17.502  26.217  -4.937  1.00  0.00     0.112 C 
HETATM   18  C10         0      16.554  27.158  -5.316  1.00  0.00     0.112 C 
HETATM   19  C12         0      16.727  28.474  -4.904  1.00  0.00     0.028 C 
BRANCH  17  20
HETATM   20  O9          0      17.197  24.909  -4.604  1.00  0.00    -0.357 OA
HETATM   21  H9          0      17.446  24.502  -3.783  1.00  0.00     0.218 HD
ENDBRANCH  17  20
BRANCH  18  22
HETATM   22  O11         0      15.326  26.674  -5.745  1.00  0.00    -0.357 OA
HETATM   23  H11         0      14.633  27.312  -5.873  1.00  0.00     0.218 HD
ENDBRANCH  18  22
ENDBRANCH   4  14
BRANCH   8  24
HETATM   24  O17         0      15.209  35.020  -3.412  1.00  0.00    -0.359 OA
HETATM   25  H17         0      14.809  34.773  -4.237  1.00  0.00     0.218 HD
ENDBRANCH   8  24
TORSDOF 5
ENDMDL
MODEL 5
REMARK VINA RESULT:      -2.3      2.237      3.974
REMARK  5 active torsions:
REMARK  status: ('A' for Active; 'I' for Inactive)
REMARK    1  A    between atoms: C4_4  and  C5_5 
REMARK    2  A    between atoms: C8_8  and  O9_9 
REMARK    3  A    between atoms: C10_11  and  O11_12 
REMARK    4  A    between atoms: C16_18  and  O17_19 
REMARK    5  A    between atoms: C19_22  and  O20_23 
ROOT
HETATM    1  O1          0      20.031  31.221  -1.104  1.00  0.00    -0.286 OA
HETATM    2  C2          0      19.210  31.402  -2.045  1.00  0.00     0.201 C 
HETATM    3  C3          0      18.518  30.365  -2.647  1.00  0.00     0.067 C 
HETATM    4  C4          0      17.697  30.579  -3.748  1.00  0.00     0.103 C 
HETATM    5  O13         0      17.565  31.809  -4.212  1.00  0.00    -0.307 OA
HETATM    6  C14         0      18.228  32.823  -3.701  1.00  0.00     0.107 C 
HETATM    7  C15         0      18.411  34.005  -4.404  1.00  0.00     0.049 C 
HETATM    8  C16         0      19.316  34.968  -3.974  1.00  0.00     0.093 C 
HETATM    9  C18         0      19.599  34.942  -2.614  1.00  0.00     0.048 C 
HETATM   10  C19         0      19.384  33.790  -1.870  1.00  0.00     0.096 C 
HETATM   11  C21         0      18.874  32.675  -2.478  1.00  0.00     0.084 C 
ENDROOT
BRANCH  10  12
HETATM   12  O20         0      20.053  33.626  -0.662  1.00  0.00    -0.359 OA
HETATM   13  H20         0      19.930  34.287   0.009  1.00  0.00     0.218 HD
ENDBRANCH  10  12
BRANCH   4  14
HETATM   14  C5          0      17.501  29.455  -4.666  1.00  0.00     0.025 C 
HETATM   15  C6          0      18.556  28.768  -5.250  1.00  0.00     0.004 C 
HETATM   16  C7          0      18.428  27.390  -5.391  1.00  0.00     0.026 C 
HETATM   17  C8          0      17.241  26.733  -5.088  1.00  0.00     0.112 C 
HETATM   18  C10         0      16.107  27.533  -5.132  1.00  0.00     0.112 C 
HETATM   19  C12         0      16.252  28.896  -4.903  1.00  0.00     0.028 C 
BRANCH  17  20
HETATM   20  O9          0      17.252  25.445  -4.581  1.00  0.00    -0.357 OA
HETATM   21  H9          0      16.478  24.996  -4.264  1.00  0.00     0.218 HD
ENDBRANCH  17  20
BRANCH  18  22
HETATM   22  O11         0      14.881  26.893  -5.025  1.00  0.00    -0.357 OA
HETATM   23  H11         0      14.104  27.436  -5.100  1.00  0.00     0.218 HD
ENDBRANCH  18  22
ENDBRANCH   4  14
BRANCH   8  24
HETATM   24  O17         0      20.122  35.668  -4.880  1.00  0.00    -0.359 OA
HETATM   25  H17         0      20.745  35.222  -5.442  1.00  0.00     0.218 HD
ENDBRANCH   8  24
TORSDOF 5
ENDMDL
MODEL 6
REMARK VINA RESULT:      -2.3      3.215      6.423
REMARK  5 active torsions:
REMARK  status: ('A' for Active; 'I' for Inactive)
REMARK    1  A    between atoms: C4_4  and  C5_5 
REMARK    2  A    between atoms: C8_8  and  O9_9 
REMARK    3  A    between atoms: C10_11  and  O11_12 
REMARK    4  A    between atoms: C16_18  and  O17_19 
REMARK    5  A    between atoms: C19_22  and  O20_23 
ROOT
HETATM    1  O1          0      18.059  28.853  -4.868  1.00  0.00    -0.286 OA
HETATM    2  C2          0      17.184  27.957  -5.019  1.00  0.00     0.201 C 
HETATM    3  C3          0      15.845  28.243  -5.228  1.00  0.00     0.067 C 
HETATM    4  C4          0      14.886  27.239  -5.288  1.00  0.00     0.103 C 
HETATM    5  O13         0      15.275  25.982  -5.163  1.00  0.00    -0.307 OA
HETATM    6  C14         0      16.527  25.658  -4.926  1.00  0.00     0.107 C 
HETATM    7  C15         0      16.875  24.420  -4.405  1.00  0.00     0.049 C 
HETATM    8  C16         0      18.154  24.175  -3.921  1.00  0.00     0.093 C 
HETATM    9  C18         0      19.149  24.985  -4.455  1.00  0.00     0.048 C 
HETATM   10  C19         0      18.830  26.210  -5.026  1.00  0.00     0.096 C 
HETATM   11  C21         0      17.524  26.614  -5.080  1.00  0.00     0.084 C 
ENDROOT
BRANCH  10  12
HETATM   12  O20         0      19.819  27.180  -5.152  1.00  0.00    -0.359 OA
HETATM   13  H20         0      20.298  27.224  -5.971  1.00  0.00     0.218 HD
ENDBRANCH  10  12
BRANCH   4  14
HETATM   14  C5          0      13.518  27.595  -4.908  1.00  0.00     0.025 C 
HETATM   15  C6          0      12.456  26.707  -5.001  1.00  0.00     0.004 C 
HETATM   16  C7          0      11.500  26.738  -3.991  1.00  0.00     0.026 C 
HETATM   17  C8          0      11.523  27.707  -2.993  1.00  0.00     0.112 C 
HETATM   18  C10         0      12.198  28.872  -3.333  1.00  0.00     0.112 C 
HETATM   19  C12         0      13.208  28.797  -4.285  1.00  0.00     0.028 C 
BRANCH  17  20
HETATM   20  O9          0      11.088  27.417  -1.713  1.00  0.00    -0.357 OA
HETATM   21  H9          0      11.248  27.976  -0.961  1.00  0.00     0.218 HD
ENDBRANCH  17  20
BRANCH  18  22
HETATM   22  O11         0      12.091  29.939  -2.452  1.00  0.00    -0.357 OA
HETATM   23  H11         0      12.339  30.795  -2.782  1.00  0.00     0.218 HD
ENDBRANCH  18  22
ENDBRANCH   4  14
BRANCH   8  24
HETATM   24  O17         0      18.363  23.421  -2.761  1.00  0.00    -0.359 OA
HETATM   25  H17         0      19.210  23.389  -2.332  1.00  0.00     0.218 HD
ENDBRANCH   8  24
TORSDOF 5
ENDMDL
MODEL 7
REMARK VINA RESULT:      -2.3      2.188      6.459
REMARK  5 active torsions:
REMARK  status: ('A' for Active; 'I' for Inactive)
REMARK    1  A    between atoms: C4_4  and  C5_5 
REMARK    2  A    between atoms: C8_8  and  O9_9 
REMARK    3  A    between atoms: C10_11  and  O11_12 
REMARK    4  A    between atoms: C16_18  and  O17_19 
REMARK    5  A    between atoms: C19_22  and  O20_23 
ROOT
HETATM    1  O1          0      15.326  26.534  -6.429  1.00  0.00    -0.286 OA
HETATM    2  C2          0      16.307  26.568  -5.636  1.00  0.00     0.201 C 
HETATM    3  C3          0      16.972  27.739  -5.315  1.00  0.00     0.067 C 
HETATM    4  C4          0      18.112  27.735  -4.520  1.00  0.00     0.103 C 
HETATM    5  O13         0      18.552  26.582  -4.047  1.00  0.00    -0.307 OA
HETATM    6  C14         0      17.980  25.438  -4.351  1.00  0.00     0.107 C 
HETATM    7  C15         0      18.642  24.228  -4.203  1.00  0.00     0.049 C 
HETATM    8  C16         0      18.138  23.057  -4.758  1.00  0.00     0.093 C 
HETATM    9  C18         0      16.765  23.053  -4.972  1.00  0.00     0.048 C 
HETATM   10  C19         0      16.064  24.246  -5.078  1.00  0.00     0.096 C 
HETATM   11  C21         0      16.727  25.436  -4.954  1.00  0.00     0.084 C 
ENDROOT
BRANCH  10  12
HETATM   12  O20         0      14.824  24.252  -5.709  1.00  0.00    -0.359 OA
HETATM   13  H20         0      14.806  24.331  -6.655  1.00  0.00     0.218 HD
ENDBRANCH  10  12
BRANCH   4  14
HETATM   14  C5          0      19.067  28.828  -4.712  1.00  0.00     0.025 C 
HETATM   15  C6          0      19.393  29.331  -5.963  1.00  0.00     0.004 C 
HETATM   16  C7          0      19.581  30.705  -6.077  1.00  0.00     0.026 C 
HETATM   17  C8          0      19.580  31.536  -4.962  1.00  0.00     0.112 C 
HETATM   18  C10         0      19.881  30.901  -3.765  1.00  0.00     0.112 C 
HETATM   19  C12         0      19.604  29.544  -3.649  1.00  0.00     0.028 C 
BRANCH  17  20
HETATM   20  O9          0      19.104  32.832  -5.046  1.00  0.00    -0.357 OA
HETATM   21  H9          0      19.493  33.503  -5.595  1.00  0.00     0.218 HD
ENDBRANCH  17  20
BRANCH  18  22
HETATM   22  O11         0      20.079  31.711  -2.656  1.00  0.00    -0.357 OA
HETATM   23  H11         0      20.958  32.045  -2.519  1.00  0.00     0.218 HD
ENDBRANCH  18  22
ENDBRANCH   4  14
BRANCH   8  24
HETATM   24  O17         0      18.980  22.114  -5.357  1.00  0.00    -0.359 OA
HETATM   25  H17         0      19.190  21.291  -4.932  1.00  0.00     0.218 HD
ENDBRANCH   8  24
TORSDOF 5
ENDMDL
MODEL 8
REMARK VINA RESULT:      -2.1      2.085      2.932
REMARK  5 active torsions:
REMARK  status: ('A' for Active; 'I' for Inactive)
REMARK    1  A    between atoms: C4_4  and  C5_5 
REMARK    2  A    between atoms: C8_8  and  O9_9 
REMARK    3  A    between atoms: C10_11  and  O11_12 
REMARK    4  A    between atoms: C16_18  and  O17_19 
REMARK    5  A    between atoms: C19_22  and  O20_23 
ROOT
HETATM    1  O1          0      17.172  28.518  -7.668  1.00  0.00    -0.286 OA
HETATM    2  C2          0      17.889  28.229  -6.670  1.00  0.00     0.201 C 
HETATM    3  C3          0      18.602  27.046  -6.576  1.00  0.00     0.067 C 
HETATM    4  C4          0      19.301  26.707  -5.423  1.00  0.00     0.103 C 
HETATM    5  O13         0      19.295  27.551  -4.406  1.00  0.00    -0.307 OA
HETATM    6  C14         0      18.604  28.669  -4.429  1.00  0.00     0.107 C 
HETATM    7  C15         0      18.268  29.346  -3.265  1.00  0.00     0.049 C 
HETATM    8  C16         0      17.333  30.374  -3.273  1.00  0.00     0.093 C 
HETATM    9  C18         0      17.177  31.017  -4.495  1.00  0.00     0.048 C 
HETATM   10  C19         0      17.547  30.387  -5.675  1.00  0.00     0.096 C 
HETATM   11  C21         0      18.085  29.130  -5.635  1.00  0.00     0.084 C 
ENDROOT
BRANCH  10  12
HETATM   12  O20         0      17.004  30.825  -6.879  1.00  0.00    -0.359 OA
HETATM   13  H20         0      16.368  30.267  -7.310  1.00  0.00     0.218 HD
ENDBRANCH  10  12
BRANCH   4  14
HETATM   14  C5          0      19.500  25.282  -5.155  1.00  0.00     0.025 C 
HETATM   15  C6          0      18.952  24.640  -4.054  1.00  0.00     0.004 C 
HETATM   16  C7          0      18.477  23.345  -4.233  1.00  0.00     0.026 C 
HETATM   17  C8          0      18.660  22.659  -5.429  1.00  0.00     0.112 C 
HETATM   18  C10         0      19.725  23.110  -6.198  1.00  0.00     0.112 C 
HETATM   19  C12         0      20.125  24.434  -6.061  1.00  0.00     0.028 C 
BRANCH  17  20
HETATM   20  O9          0      17.715  21.755  -5.880  1.00  0.00    -0.357 OA
HETATM   21  H9          0      17.406  21.718  -6.778  1.00  0.00     0.218 HD
ENDBRANCH  17  20
BRANCH  18  22
HETATM   22  O11         0      20.069  22.346  -7.304  1.00  0.00    -0.357 OA
HETATM   23  H11         0      19.790  21.438  -7.303  1.00  0.00     0.218 HD
ENDBRANCH  18  22
ENDBRANCH   4  14
BRANCH   8  24
HETATM   24  O17         0      16.398  30.516  -2.242  1.00  0.00    -0.359 OA
HETATM   25  H17         0      15.953  29.766  -1.865  1.00  0.00     0.218 HD
ENDBRANCH   8  24
TORSDOF 5
ENDMDL
MODEL 9
REMARK VINA RESULT:      -2.1      3.909      5.426
REMARK  5 active torsions:
REMARK  status: ('A' for Active; 'I' for Inactive)
REMARK    1  A    between atoms: C4_4  and  C5_5 
REMARK    2  A    between atoms: C8_8  and  O9_9 
REMARK    3  A    between atoms: C10_11  and  O11_12 
REMARK    4  A    between atoms: C16_18  and  O17_19 
REMARK    5  A    between atoms: C19_22  and  O20_23 
ROOT
HETATM    1  O1          0      19.144  31.534  -1.680  1.00  0.00    -0.286 OA
HETATM    2  C2          0      18.069  32.017  -2.128  1.00  0.00     0.201 C 
HETATM    3  C3          0      16.989  31.232  -2.496  1.00  0.00     0.067 C 
HETATM    4  C4          0      15.855  31.782  -3.083  1.00  0.00     0.103 C 
HETATM    5  O13         0      15.808  33.089  -3.271  1.00  0.00    -0.307 OA
HETATM    6  C14         0      16.819  33.875  -2.974  1.00  0.00     0.107 C 
HETATM    7  C15         0      16.943  35.144  -3.519  1.00  0.00     0.049 C 
HETATM    8  C16         0      18.126  35.865  -3.408  1.00  0.00     0.093 C 
HETATM    9  C18         0      18.928  35.514  -2.329  1.00  0.00     0.048 C 
HETATM   10  C19         0      18.798  34.269  -1.729  1.00  0.00     0.096 C 
HETATM   11  C21         0      17.862  33.386  -2.193  1.00  0.00     0.084 C 
ENDROOT
BRANCH  10  12
HETATM   12  O20         0      19.852  33.765  -0.974  1.00  0.00    -0.359 OA
HETATM   13  H20         0      19.701  32.974  -0.470  1.00  0.00     0.218 HD
ENDBRANCH  10  12
BRANCH   4  14
HETATM   14  C5          0      15.068  30.915  -3.962  1.00  0.00     0.025 C 
HETATM   15  C6          0      15.478  30.571  -5.242  1.00  0.00     0.004 C 
HETATM   16  C7          0      15.225  29.273  -5.673  1.00  0.00     0.026 C 
HETATM   17  C8          0      14.472  28.385  -4.911  1.00  0.00     0.112 C 
HETATM   18  C10         0      13.608  28.986  -4.006  1.00  0.00     0.112 C 
HETATM   19  C12         0      13.929  30.250  -3.526  1.00  0.00     0.028 C 
BRANCH  17  20
HETATM   20  O9          0      14.743  27.028  -4.930  1.00  0.00    -0.357 OA
HETATM   21  H9          0      15.578  26.660  -5.198  1.00  0.00     0.218 HD
ENDBRANCH  17  20
BRANCH  18  22
HETATM   22  O11         0      12.702  28.159  -3.358  1.00  0.00    -0.357 OA
HETATM   23  H11         0      13.050  27.576  -2.694  1.00  0.00     0.218 HD
ENDBRANCH  18  22
ENDBRANCH   4  14
BRANCH   8  24
HETATM   24  O17         0      18.618  36.628  -4.473  1.00  0.00    -0.359 OA
HETATM   25  H17         0      19.437  36.415  -4.903  1.00  0.00     0.218 HD
ENDBRANCH   8  24
TORSDOF 5
ENDMDL
