MODEL 1
REMARK VINA RESULT:      -4.2      0.000      0.000
REMARK  5 active torsions:
REMARK  status: ('A' for Active; 'I' for Inactive)
REMARK    1  A    between atoms: C4_4  and  C5_5 
REMARK    2  A    between atoms: C8_8  and  O9_9 
REMARK    3  A    between atoms: C10_11  and  O11_12 
REMARK    4  A    between atoms: C16_18  and  O17_19 
REMARK    5  A    between atoms: C19_22  and  O20_23 
ROOT
HETATM    1  O1          0      33.891 113.032  -5.160  1.00  0.00    -0.286 OA
HETATM    2  C2          0      34.205 112.861  -3.951  1.00  0.00     0.201 C 
HETATM    3  C3          0      33.866 113.760  -2.953  1.00  0.00     0.067 C 
HETATM    4  C4          0      34.313 113.599  -1.646  1.00  0.00     0.103 C 
HETATM    5  O13         0      35.061 112.550  -1.355  1.00  0.00    -0.307 OA
HETATM    6  C14         0      35.442 111.687  -2.272  1.00  0.00     0.107 C 
HETATM    7  C15         0      36.521 110.838  -2.073  1.00  0.00     0.049 C 
HETATM    8  C16         0      37.075 110.117  -3.123  1.00  0.00     0.093 C 
HETATM    9  C18         0      36.215 109.875  -4.188  1.00  0.00     0.048 C 
HETATM   10  C19         0      35.099 110.677  -4.389  1.00  0.00     0.096 C 
HETATM   11  C21         0      34.835 111.703  -3.523  1.00  0.00     0.084 C 
ENDROOT
BRANCH  10  12
HETATM   12  O20         0      34.509 110.718  -5.648  1.00  0.00    -0.359 OA
HETATM   13  H20         0      33.931 111.445  -5.846  1.00  0.00     0.218 HD
ENDBRANCH  10  12
BRANCH   4  14
HETATM   14  C5          0      34.447 114.808  -0.831  1.00  0.00     0.025 C 
HETATM   15  C6          0      35.658 115.224  -0.297  1.00  0.00     0.004 C 
HETATM   16  C7          0      35.917 116.591  -0.276  1.00  0.00     0.026 C 
HETATM   17  C8          0      34.954 117.522  -0.649  1.00  0.00     0.112 C 
HETATM   18  C10         0      33.644 117.073  -0.549  1.00  0.00     0.112 C 
HETATM   19  C12         0      33.404 115.709  -0.658  1.00  0.00     0.028 C 
BRANCH  17  20
HETATM   20  O9          0      35.315 118.708  -1.265  1.00  0.00    -0.357 OA
HETATM   21  H9          0      36.078 119.219  -1.020  1.00  0.00     0.218 HD
ENDBRANCH  17  20
BRANCH  18  22
HETATM   22  O11         0      32.641 118.016  -0.725  1.00  0.00    -0.357 OA
HETATM   23  H11         0      32.768 118.862  -0.311  1.00  0.00     0.218 HD
ENDBRANCH  18  22
ENDBRANCH   4  14
BRANCH   8  24
HETATM   24  O17         0      38.459 109.952  -3.244  1.00  0.00    -0.359 OA
HETATM   25  H17         0      38.987 110.533  -3.779  1.00  0.00     0.218 HD
ENDBRANCH   8  24
TORSDOF 5
ENDMDL
MODEL 2
REMARK VINA RESULT:      -3.9      1.768      6.654
REMARK  5 active torsions:
REMARK  status: ('A' for Active; 'I' for Inactive)
REMARK    1  A    between atoms: C4_4  and  C5_5 
REMARK    2  A    between atoms: C8_8  and  O9_9 
REMARK    3  A    between atoms: C10_11  and  O11_12 
REMARK    4  A    between atoms: C16_18  and  O17_19 
REMARK    5  A    between atoms: C19_22  and  O20_23 
ROOT
HETATM    1  O1          0      37.199 116.502  -3.659  1.00  0.00    -0.286 OA
HETATM    2  C2          0      36.905 115.573  -2.857  1.00  0.00     0.201 C 
HETATM    3  C3          0      37.232 114.248  -3.092  1.00  0.00     0.067 C 
HETATM    4  C4          0      36.807 113.232  -2.243  1.00  0.00     0.103 C 
HETATM    5  O13         0      36.092 113.552  -1.179  1.00  0.00    -0.307 OA
HETATM    6  C14         0      35.723 114.789  -0.930  1.00  0.00     0.107 C 
HETATM    7  C15         0      34.670 115.080  -0.075  1.00  0.00     0.049 C 
HETATM    8  C16         0      34.122 116.355  -0.012  1.00  0.00     0.093 C 
HETATM    9  C18         0      34.975 117.380  -0.403  1.00  0.00     0.048 C 
HETATM   10  C19         0      36.066 117.117  -1.221  1.00  0.00     0.096 C 
HETATM   11  C21         0      36.313 115.835  -1.631  1.00  0.00     0.084 C 
ENDROOT
BRANCH  10  12
HETATM   12  O20         0      36.638 118.156  -1.948  1.00  0.00    -0.359 OA
HETATM   13  H20         0      37.489 118.008  -2.343  1.00  0.00     0.218 HD
ENDBRANCH  10  12
BRANCH   4  14
HETATM   14  C5          0      36.650 111.897  -2.823  1.00  0.00     0.025 C 
HETATM   15  C6          0      35.911 110.894  -2.213  1.00  0.00     0.004 C 
HETATM   16  C7          0      35.153 110.063  -3.031  1.00  0.00     0.026 C 
HETATM   17  C8          0      35.230 110.137  -4.417  1.00  0.00     0.112 C 
HETATM   18  C10         0      36.408 110.687  -4.904  1.00  0.00     0.112 C 
HETATM   19  C12         0      37.102 111.582  -4.098  1.00  0.00     0.028 C 
BRANCH  17  20
HETATM   20  O9          0      34.122 109.875  -5.204  1.00  0.00    -0.357 OA
HETATM   21  H9          0      34.007 110.214  -6.084  1.00  0.00     0.218 HD
ENDBRANCH  17  20
BRANCH  18  22
HETATM   22  O11         0      36.617 110.613  -6.274  1.00  0.00    -0.357 OA
HETATM   23  H11         0      36.756 109.747  -6.642  1.00  0.00     0.218 HD
ENDBRANCH  18  22
ENDBRANCH   4  14
BRANCH   8  24
HETATM   24  O17         0      32.742 116.552   0.105  1.00  0.00    -0.359 OA
HETATM   25  H17         0      32.119 115.887  -0.165  1.00  0.00     0.218 HD
ENDBRANCH   8  24
TORSDOF 5
ENDMDL
MODEL 3
REMARK VINA RESULT:      -3.9      1.425      2.755
REMARK  5 active torsions:
REMARK  status: ('A' for Active; 'I' for Inactive)
REMARK    1  A    between atoms: C4_4  and  C5_5 
REMARK    2  A    between atoms: C8_8  and  O9_9 
REMARK    3  A    between atoms: C10_11  and  O11_12 
REMARK    4  A    between atoms: C16_18  and  O17_19 
REMARK    5  A    between atoms: C19_22  and  O20_23 
ROOT
HETATM    1  O1          0      37.192 110.850  -2.665  1.00  0.00    -0.286 OA
HETATM    2  C2          0      36.430 111.825  -2.913  1.00  0.00     0.201 C 
HETATM    3  C3          0      36.423 112.983  -2.155  1.00  0.00     0.067 C 
HETATM    4  C4          0      35.503 114.000  -2.386  1.00  0.00     0.103 C 
HETATM    5  O13         0      34.632 113.856  -3.369  1.00  0.00    -0.307 OA
HETATM    6  C14         0      34.572 112.761  -4.095  1.00  0.00     0.107 C 
HETATM    7  C15         0      33.444 112.435  -4.834  1.00  0.00     0.049 C 
HETATM    8  C16         0      33.284 111.170  -5.388  1.00  0.00     0.093 C 
HETATM    9  C18         0      34.467 110.479  -5.623  1.00  0.00     0.048 C 
HETATM   10  C19         0      35.626 110.810  -4.935  1.00  0.00     0.096 C 
HETATM   11  C21         0      35.609 111.836  -4.030  1.00  0.00     0.084 C 
ENDROOT
BRANCH  10  12
HETATM   12  O20         0      36.652 109.875  -4.841  1.00  0.00    -0.359 OA
HETATM   13  H20         0      37.527 110.147  -5.091  1.00  0.00     0.218 HD
ENDBRANCH  10  12
BRANCH   4  14
HETATM   14  C5          0      35.150 114.855  -1.252  1.00  0.00     0.025 C 
HETATM   15  C6          0      36.052 115.724  -0.656  1.00  0.00     0.004 C 
HETATM   16  C7          0      35.574 116.961  -0.235  1.00  0.00     0.026 C 
HETATM   17  C8          0      34.219 117.274  -0.281  1.00  0.00     0.112 C 
HETATM   18  C10         0      33.370 116.175  -0.279  1.00  0.00     0.112 C 
HETATM   19  C12         0      33.847 114.971  -0.784  1.00  0.00     0.028 C 
BRANCH  17  20
HETATM   20  O9          0      33.799 118.569  -0.525  1.00  0.00    -0.357 OA
HETATM   21  H9          0      34.329 119.338  -0.350  1.00  0.00     0.218 HD
ENDBRANCH  17  20
BRANCH  18  22
HETATM   22  O11         0      32.014 116.429  -0.134  1.00  0.00    -0.357 OA
HETATM   23  H11         0      31.483 115.733   0.237  1.00  0.00     0.218 HD
ENDBRANCH  18  22
ENDBRANCH   4  14
BRANCH   8  24
HETATM   24  O17         0      32.043 110.525  -5.388  1.00  0.00    -0.359 OA
HETATM   25  H17         0      31.946 109.628  -5.683  1.00  0.00     0.218 HD
ENDBRANCH   8  24
TORSDOF 5
ENDMDL
MODEL 4
REMARK VINA RESULT:      -3.8      1.614      1.775
REMARK  5 active torsions:
REMARK  status: ('A' for Active; 'I' for Inactive)
REMARK    1  A    between atoms: C4_4  and  C5_5 
REMARK    2  A    between atoms: C8_8  and  O9_9 
REMARK    3  A    between atoms: C10_11  and  O11_12 
REMARK    4  A    between atoms: C16_18  and  O17_19 
REMARK    5  A    between atoms: C19_22  and  O20_23 
ROOT
HETATM    1  O1          0      35.707 113.996  -6.009  1.00  0.00    -0.286 OA
HETATM    2  C2          0      35.564 113.364  -4.927  1.00  0.00     0.201 C 
HETATM    3  C3          0      34.684 113.764  -3.935  1.00  0.00     0.067 C 
HETATM    4  C4          0      34.619 113.108  -2.711  1.00  0.00     0.103 C 
HETATM    5  O13         0      35.406 112.067  -2.506  1.00  0.00    -0.307 OA
HETATM    6  C14         0      36.286 111.669  -3.399  1.00  0.00     0.107 C 
HETATM    7  C15         0      37.363 110.864  -3.056  1.00  0.00     0.049 C 
HETATM    8  C16         0      38.419 110.658  -3.936  1.00  0.00     0.093 C 
HETATM    9  C18         0      38.105 110.829  -5.279  1.00  0.00     0.048 C 
HETATM   10  C19         0      37.007 111.589  -5.656  1.00  0.00     0.096 C 
HETATM   11  C21         0      36.216 112.162  -4.697  1.00  0.00     0.084 C 
ENDROOT
BRANCH  10  12
HETATM   12  O20         0      36.950 112.110  -6.945  1.00  0.00    -0.359 OA
HETATM   13  H20         0      36.372 111.690  -7.570  1.00  0.00     0.218 HD
ENDBRANCH  10  12
BRANCH   4  14
HETATM   14  C5          0      34.167 113.887  -1.557  1.00  0.00     0.025 C 
HETATM   15  C6          0      34.985 114.171  -0.473  1.00  0.00     0.004 C 
HETATM   16  C7          0      34.871 115.430   0.108  1.00  0.00     0.026 C 
HETATM   17  C8          0      33.885 116.328  -0.285  1.00  0.00     0.112 C 
HETATM   18  C10         0      32.774 115.746  -0.879  1.00  0.00     0.112 C 
HETATM   19  C12         0      32.934 114.528  -1.528  1.00  0.00     0.028 C 
BRANCH  17  20
HETATM   20  O9          0      34.120 117.692  -0.265  1.00  0.00    -0.357 OA
HETATM   21  H9          0      34.918 118.095  -0.586  1.00  0.00     0.218 HD
ENDBRANCH  17  20
BRANCH  18  22
HETATM   22  O11         0      31.684 116.571  -1.118  1.00  0.00    -0.357 OA
HETATM   23  H11         0      31.543 117.285  -0.507  1.00  0.00     0.218 HD
ENDBRANCH  18  22
ENDBRANCH   4  14
BRANCH   8  24
HETATM   24  O17         0      39.744 110.621  -3.489  1.00  0.00    -0.359 OA
HETATM   25  H17         0      40.314 111.378  -3.554  1.00  0.00     0.218 HD
ENDBRANCH   8  24
TORSDOF 5
ENDMDL
MODEL 5
REMARK VINA RESULT:      -3.5      2.151      6.608
REMARK  5 active torsions:
REMARK  status: ('A' for Active; 'I' for Inactive)
REMARK    1  A    between atoms: C4_4  and  C5_5 
REMARK    2  A    between atoms: C8_8  and  O9_9 
REMARK    3  A    between atoms: C10_11  and  O11_12 
REMARK    4  A    between atoms: C16_18  and  O17_19 
REMARK    5  A    between atoms: C19_22  and  O20_23 
ROOT
HETATM    1  O1          0      35.782 117.984  -3.104  1.00  0.00    -0.286 OA
HETATM    2  C2          0      35.693 116.810  -2.653  1.00  0.00     0.201 C 
HETATM    3  C3          0      36.611 115.818  -2.954  1.00  0.00     0.067 C 
HETATM    4  C4          0      36.433 114.507  -2.527  1.00  0.00     0.103 C 
HETATM    5  O13         0      35.369 114.215  -1.800  1.00  0.00    -0.307 OA
HETATM    6  C14         0      34.448 115.110  -1.517  1.00  0.00     0.107 C 
HETATM    7  C15         0      33.171 114.744  -1.118  1.00  0.00     0.049 C 
HETATM    8  C16         0      32.137 115.671  -1.068  1.00  0.00     0.093 C 
HETATM    9  C18         0      32.539 116.991  -0.911  1.00  0.00     0.048 C 
HETATM   10  C19         0      33.826 117.383  -1.256  1.00  0.00     0.096 C 
HETATM   11  C21         0      34.710 116.458  -1.740  1.00  0.00     0.084 C 
ENDROOT
BRANCH  10  12
HETATM   12  O20         0      34.082 118.726  -1.511  1.00  0.00    -0.359 OA
HETATM   13  H20         0      33.356 119.275  -1.781  1.00  0.00     0.218 HD
ENDBRANCH  10  12
BRANCH   4  14
HETATM   14  C5          0      37.047 113.451  -3.334  1.00  0.00     0.025 C 
HETATM   15  C6          0      38.026 113.703  -4.283  1.00  0.00     0.004 C 
HETATM   16  C7          0      39.062 112.782  -4.401  1.00  0.00     0.026 C 
HETATM   17  C8          0      39.056 111.583  -3.696  1.00  0.00     0.112 C 
HETATM   18  C10         0      37.798 111.151  -3.298  1.00  0.00     0.112 C 
HETATM   19  C12         0      36.803 112.103  -3.105  1.00  0.00     0.028 C 
BRANCH  17  20
HETATM   20  O9          0      40.238 111.010  -3.261  1.00  0.00    -0.357 OA
HETATM   21  H9          0      40.361 110.650  -2.391  1.00  0.00     0.218 HD
ENDBRANCH  17  20
BRANCH  18  22
HETATM   22  O11         0      37.712 109.875  -2.760  1.00  0.00    -0.357 OA
HETATM   23  H11         0      38.313 109.665  -2.054  1.00  0.00     0.218 HD
ENDBRANCH  18  22
ENDBRANCH   4  14
BRANCH   8  24
HETATM   24  O17         0      30.841 115.341  -1.481  1.00  0.00    -0.359 OA
HETATM   25  H17         0      30.193 115.008  -0.872  1.00  0.00     0.218 HD
ENDBRANCH   8  24
TORSDOF 5
ENDMDL
MODEL 6
REMARK VINA RESULT:      -3.5      2.973      5.689
REMARK  5 active torsions:
REMARK  status: ('A' for Active; 'I' for Inactive)
REMARK    1  A    between atoms: C4_4  and  C5_5 
REMARK    2  A    between atoms: C8_8  and  O9_9 
REMARK    3  A    between atoms: C10_11  and  O11_12 
REMARK    4  A    between atoms: C16_18  and  O17_19 
REMARK    5  A    between atoms: C19_22  and  O20_23 
ROOT
HETATM    1  O1          0      36.071 112.923  -0.907  1.00  0.00    -0.286 OA
HETATM    2  C2          0      36.134 114.174  -1.052  1.00  0.00     0.201 C 
HETATM    3  C3          0      37.307 114.890  -0.887  1.00  0.00     0.067 C 
HETATM    4  C4          0      37.329 116.279  -0.952  1.00  0.00     0.103 C 
HETATM    5  O13         0      36.200 116.920  -1.197  1.00  0.00    -0.307 OA
HETATM    6  C14         0      35.052 116.292  -1.324  1.00  0.00     0.107 C 
HETATM    7  C15         0      33.839 116.949  -1.181  1.00  0.00     0.049 C 
HETATM    8  C16         0      32.646 116.245  -1.062  1.00  0.00     0.093 C 
HETATM    9  C18         0      32.661 114.969  -1.612  1.00  0.00     0.048 C 
HETATM   10  C19         0      33.861 114.301  -1.813  1.00  0.00     0.096 C 
HETATM   11  C21         0      35.041 114.910  -1.483  1.00  0.00     0.084 C 
ENDROOT
BRANCH  10  12
HETATM   12  O20         0      33.855 112.915  -1.940  1.00  0.00    -0.359 OA
HETATM   13  H20         0      34.205 112.540  -2.739  1.00  0.00     0.218 HD
ENDBRANCH  10  12
BRANCH   4  14
HETATM   14  C5          0      38.383 116.968  -0.206  1.00  0.00     0.025 C 
HETATM   15  C6          0      39.588 116.365   0.125  1.00  0.00     0.004 C 
HETATM   16  C7          0      40.738 117.145   0.062  1.00  0.00     0.026 C 
HETATM   17  C8          0      40.680 118.511  -0.189  1.00  0.00     0.112 C 
HETATM   18  C10         0      39.465 119.107   0.124  1.00  0.00     0.112 C 
HETATM   19  C12         0      38.318 118.322   0.096  1.00  0.00     0.028 C 
BRANCH  17  20
HETATM   20  O9          0      41.689 119.147  -0.890  1.00  0.00    -0.357 OA
HETATM   21  H9          0      41.620 119.398  -1.804  1.00  0.00     0.218 HD
ENDBRANCH  17  20
BRANCH  18  22
HETATM   22  O11         0      39.413 120.493   0.072  1.00  0.00    -0.357 OA
HETATM   23  H11         0      38.805 120.923   0.663  1.00  0.00     0.218 HD
ENDBRANCH  18  22
ENDBRANCH   4  14
BRANCH   8  24
HETATM   24  O17         0      31.645 116.652  -0.174  1.00  0.00    -0.359 OA
HETATM   25  H17         0      30.862 117.098  -0.475  1.00  0.00     0.218 HD
ENDBRANCH   8  24
TORSDOF 5
ENDMDL
MODEL 7
REMARK VINA RESULT:      -3.4      2.126      2.749
REMARK  5 active torsions:
REMARK  status: ('A' for Active; 'I' for Inactive)
REMARK    1  A    between atoms: C4_4  and  C5_5 
REMARK    2  A    between atoms: C8_8  and  O9_9 
REMARK    3  A    between atoms: C10_11  and  O11_12 
REMARK    4  A    between atoms: C16_18  and  O17_19 
REMARK    5  A    between atoms: C19_22  and  O20_23 
ROOT
HETATM    1  O1          0      33.057 114.328  -6.097  1.00  0.00    -0.286 OA
HETATM    2  C2          0      33.637 113.510  -5.331  1.00  0.00     0.201 C 
HETATM    3  C3          0      33.564 113.593  -3.951  1.00  0.00     0.067 C 
HETATM    4  C4          0      34.295 112.741  -3.131  1.00  0.00     0.103 C 
HETATM    5  O13         0      35.059 111.820  -3.692  1.00  0.00    -0.307 OA
HETATM    6  C14         0      35.193 111.723  -4.996  1.00  0.00     0.107 C 
HETATM    7  C15         0      36.263 111.056  -5.574  1.00  0.00     0.049 C 
HETATM    8  C16         0      36.539 111.171  -6.931  1.00  0.00     0.093 C 
HETATM    9  C18         0      35.449 111.510  -7.724  1.00  0.00     0.048 C 
HETATM   10  C19         0      34.341 112.137  -7.170  1.00  0.00     0.096 C 
HETATM   11  C21         0      34.314 112.408  -5.829  1.00  0.00     0.084 C 
ENDROOT
BRANCH  10  12
HETATM   12  O20         0      33.478 112.849  -7.997  1.00  0.00    -0.359 OA
HETATM   13  H20         0      32.740 112.386  -8.374  1.00  0.00     0.218 HD
ENDBRANCH  10  12
BRANCH   4  14
HETATM   14  C5          0      34.650 113.235  -1.799  1.00  0.00     0.025 C 
HETATM   15  C6          0      35.861 112.947  -1.188  1.00  0.00     0.004 C 
HETATM   16  C7          0      36.463 113.956  -0.443  1.00  0.00     0.026 C 
HETATM   17  C8          0      35.821 115.165  -0.200  1.00  0.00     0.112 C 
HETATM   18  C10         0      34.437 115.116  -0.291  1.00  0.00     0.112 C 
HETATM   19  C12         0      33.864 114.150  -1.111  1.00  0.00     0.028 C 
BRANCH  17  20
HETATM   20  O9          0      36.542 116.341  -0.092  1.00  0.00    -0.357 OA
HETATM   21  H9          0      37.006 116.745  -0.817  1.00  0.00     0.218 HD
ENDBRANCH  17  20
BRANCH  18  22
HETATM   22  O11         0      33.739 116.240   0.124  1.00  0.00    -0.357 OA
HETATM   23  H11         0      34.048 116.672   0.912  1.00  0.00     0.218 HD
ENDBRANCH  18  22
ENDBRANCH   4  14
BRANCH   8  24
HETATM   24  O17         0      37.852 111.273  -7.403  1.00  0.00    -0.359 OA
HETATM   25  H17         0      38.114 110.898  -8.235  1.00  0.00     0.218 HD
ENDBRANCH   8  24
TORSDOF 5
ENDMDL
MODEL 8
REMARK VINA RESULT:      -3.3      1.669      2.283
REMARK  5 active torsions:
REMARK  status: ('A' for Active; 'I' for Inactive)
REMARK    1  A    between atoms: C4_4  and  C5_5 
REMARK    2  A    between atoms: C8_8  and  O9_9 
REMARK    3  A    between atoms: C10_11  and  O11_12 
REMARK    4  A    between atoms: C16_18  and  O17_19 
REMARK    5  A    between atoms: C19_22  and  O20_23 
ROOT
HETATM    1  O1          0      33.796 114.388  -4.179  1.00  0.00    -0.286 OA
HETATM    2  C2          0      34.521 113.971  -3.234  1.00  0.00     0.201 C 
HETATM    3  C3          0      34.948 114.787  -2.201  1.00  0.00     0.067 C 
HETATM    4  C4          0      35.829 114.329  -1.228  1.00  0.00     0.103 C 
HETATM    5  O13         0      36.248 113.077  -1.289  1.00  0.00    -0.307 OA
HETATM    6  C14         0      35.902 112.272  -2.270  1.00  0.00     0.107 C 
HETATM    7  C15         0      36.626 111.125  -2.564  1.00  0.00     0.049 C 
HETATM    8  C16         0      36.416 110.422  -3.743  1.00  0.00     0.093 C 
HETATM    9  C18         0      35.158 110.588  -4.310  1.00  0.00     0.048 C 
HETATM   10  C19         0      34.387 111.700  -4.001  1.00  0.00     0.096 C 
HETATM   11  C21         0      34.862 112.633  -3.120  1.00  0.00     0.084 C 
ENDROOT
BRANCH  10  12
HETATM   12  O20         0      33.366 112.082  -4.866  1.00  0.00    -0.359 OA
HETATM   13  H20         0      33.592 112.634  -5.605  1.00  0.00     0.218 HD
ENDBRANCH  10  12
BRANCH   4  14
HETATM   14  C5          0      36.679 115.325  -0.571  1.00  0.00     0.025 C 
HETATM   15  C6          0      38.029 115.117  -0.326  1.00  0.00     0.004 C 
HETATM   16  C7          0      38.887 116.201  -0.485  1.00  0.00     0.026 C 
HETATM   17  C8          0      38.406 117.479  -0.746  1.00  0.00     0.112 C 
HETATM   18  C10         0      37.094 117.698  -0.349  1.00  0.00     0.112 C 
HETATM   19  C12         0      36.234 116.608  -0.282  1.00  0.00     0.028 C 
BRANCH  17  20
HETATM   20  O9          0      39.129 118.362  -1.529  1.00  0.00    -0.357 OA
HETATM   21  H9          0      39.870 118.106  -2.066  1.00  0.00     0.218 HD
ENDBRANCH  17  20
BRANCH  18  22
HETATM   22  O11         0      36.627 119.003  -0.413  1.00  0.00    -0.357 OA
HETATM   23  H11         0      35.723 119.124  -0.681  1.00  0.00     0.218 HD
ENDBRANCH  18  22
ENDBRANCH   4  14
BRANCH   8  24
HETATM   24  O17         0      37.482 109.875  -4.467  1.00  0.00    -0.359 OA
HETATM   25  H17         0      38.055 109.218  -4.091  1.00  0.00     0.218 HD
ENDBRANCH   8  24
TORSDOF 5
ENDMDL
MODEL 9
REMARK VINA RESULT:      -3.3      2.326      3.009
REMARK  5 active torsions:
REMARK  status: ('A' for Active; 'I' for Inactive)
REMARK    1  A    between atoms: C4_4  and  C5_5 
REMARK    2  A    between atoms: C8_8  and  O9_9 
REMARK    3  A    between atoms: C10_11  and  O11_12 
REMARK    4  A    between atoms: C16_18  and  O17_19 
REMARK    5  A    between atoms: C19_22  and  O20_23 
ROOT
HETATM    1  O1          0      37.161 115.264  -3.654  1.00  0.00    -0.286 OA
HETATM    2  C2          0      36.144 114.526  -3.535  1.00  0.00     0.201 C 
HETATM    3  C3          0      34.861 115.031  -3.418  1.00  0.00     0.067 C 
HETATM    4  C4          0      33.770 114.201  -3.185  1.00  0.00     0.103 C 
HETATM    5  O13         0      33.972 112.898  -3.094  1.00  0.00    -0.307 OA
HETATM    6  C14         0      35.174 112.370  -3.161  1.00  0.00     0.107 C 
HETATM    7  C15         0      35.442 111.097  -2.679  1.00  0.00     0.049 C 
HETATM    8  C16         0      36.746 110.646  -2.517  1.00  0.00     0.093 C 
HETATM    9  C18         0      37.688 111.273  -3.324  1.00  0.00     0.048 C 
HETATM   10  C19         0      37.434 112.527  -3.861  1.00  0.00     0.096 C 
HETATM   11  C21         0      36.239 113.145  -3.609  1.00  0.00     0.084 C 
ENDROOT
BRANCH  10  12
HETATM   12  O20         0      38.500 113.317  -4.281  1.00  0.00    -0.359 OA
HETATM   13  H20         0      39.238 112.885  -4.695  1.00  0.00     0.218 HD
ENDBRANCH  10  12
BRANCH   4  14
HETATM   14  C5          0      32.619 114.785  -2.494  1.00  0.00     0.025 C 
HETATM   15  C6          0      32.620 115.065  -1.135  1.00  0.00     0.004 C 
HETATM   16  C7          0      31.982 116.228  -0.716  1.00  0.00     0.026 C 
HETATM   17  C8          0      31.252 117.018  -1.597  1.00  0.00     0.112 C 
HETATM   18  C10         0      30.790 116.353  -2.726  1.00  0.00     0.112 C 
HETATM   19  C12         0      31.497 115.242  -3.173  1.00  0.00     0.028 C 
BRANCH  17  20
HETATM   20  O9          0      31.194 118.391  -1.438  1.00  0.00    -0.357 OA
HETATM   21  H9          0      31.456 119.012  -2.108  1.00  0.00     0.218 HD
ENDBRANCH  17  20
BRANCH  18  22
HETATM   22  O11         0      29.902 117.040  -3.541  1.00  0.00    -0.357 OA
HETATM   23  H11         0      29.999 116.921  -4.479  1.00  0.00     0.218 HD
ENDBRANCH  18  22
ENDBRANCH   4  14
BRANCH   8  24
HETATM   24  O17         0      37.121 109.880  -1.408  1.00  0.00    -0.359 OA
HETATM   25  H17         0      37.091 110.231  -0.526  1.00  0.00     0.218 HD
ENDBRANCH   8  24
TORSDOF 5
ENDMDL
