MODEL 1
REMARK VINA RESULT:      -4.5      0.000      0.000
REMARK  5 active torsions:
REMARK  status: ('A' for Active; 'I' for Inactive)
REMARK    1  A    between atoms: C4_4  and  C5_5 
REMARK    2  A    between atoms: C8_8  and  O9_9 
REMARK    3  A    between atoms: C10_11  and  O11_12 
REMARK    4  A    between atoms: C16_18  and  O17_19 
REMARK    5  A    between atoms: C19_22  and  O20_23 
ROOT
HETATM    1  O1          0      39.047 116.974  15.827  1.00  0.00    -0.286 OA
HETATM    2  C2          0      39.185 116.505  16.990  1.00  0.00     0.201 C 
HETATM    3  C3          0      39.841 115.313  17.246  1.00  0.00     0.067 C 
HETATM    4  C4          0      39.889 114.768  18.524  1.00  0.00     0.103 C 
HETATM    5  O13         0      39.309 115.422  19.515  1.00  0.00    -0.307 OA
HETATM    6  C14         0      38.641 116.538  19.321  1.00  0.00     0.107 C 
HETATM    7  C15         0      37.716 117.006  20.242  1.00  0.00     0.049 C 
HETATM    8  C16         0      36.836 118.034  19.923  1.00  0.00     0.093 C 
HETATM    9  C18         0      37.267 118.882  18.910  1.00  0.00     0.048 C 
HETATM   10  C19         0      38.227 118.462  17.999  1.00  0.00     0.096 C 
HETATM   11  C21         0      38.765 117.209  18.109  1.00  0.00     0.084 C 
ENDROOT
BRANCH  10  12
HETATM   12  O20         0      38.331 119.112  16.773  1.00  0.00    -0.359 OA
HETATM   13  H20         0      37.528 119.368  16.335  1.00  0.00     0.218 HD
ENDBRANCH  10  12
BRANCH   4  14
HETATM   14  C5          0      40.034 113.315  18.628  1.00  0.00     0.025 C 
HETATM   15  C6          0      39.041 112.495  19.143  1.00  0.00     0.004 C 
HETATM   16  C7          0      38.844 111.260  18.534  1.00  0.00     0.026 C 
HETATM   17  C8          0      39.692 110.797  17.534  1.00  0.00     0.112 C 
HETATM   18  C10         0      40.960 111.362  17.541  1.00  0.00     0.112 C 
HETATM   19  C12         0      41.113 112.634  18.080  1.00  0.00     0.028 C 
BRANCH  17  20
HETATM   20  O9          0      39.211 110.002  16.509  1.00  0.00    -0.357 OA
HETATM   21  H9          0      38.383 109.537  16.545  1.00  0.00     0.218 HD
ENDBRANCH  17  20
BRANCH  18  22
HETATM   22  O11         0      41.902 110.803  16.690  1.00  0.00    -0.357 OA
HETATM   23  H11         0      42.790 111.138  16.750  1.00  0.00     0.218 HD
ENDBRANCH  18  22
ENDBRANCH   4  14
BRANCH   8  24
HETATM   24  O17         0      35.502 118.008  20.343  1.00  0.00    -0.359 OA
HETATM   25  H17         0      35.125 117.244  20.763  1.00  0.00     0.218 HD
ENDBRANCH   8  24
TORSDOF 5
ENDMDL
MODEL 2
REMARK VINA RESULT:      -4.4      1.763      6.546
REMARK  5 active torsions:
REMARK  status: ('A' for Active; 'I' for Inactive)
REMARK    1  A    between atoms: C4_4  and  C5_5 
REMARK    2  A    between atoms: C8_8  and  O9_9 
REMARK    3  A    between atoms: C10_11  and  O11_12 
REMARK    4  A    between atoms: C16_18  and  O17_19 
REMARK    5  A    between atoms: C19_22  and  O20_23 
ROOT
HETATM    1  O1          0      36.392 113.544  20.244  1.00  0.00    -0.286 OA
HETATM    2  C2          0      37.548 113.765  19.788  1.00  0.00     0.201 C 
HETATM    3  C3          0      38.076 115.039  19.668  1.00  0.00     0.067 C 
HETATM    4  C4          0      39.310 115.262  19.068  1.00  0.00     0.103 C 
HETATM    5  O13         0      39.997 114.225  18.623  1.00  0.00    -0.307 OA
HETATM    6  C14         0      39.525 112.999  18.678  1.00  0.00     0.107 C 
HETATM    7  C15         0      40.031 111.984  17.879  1.00  0.00     0.049 C 
HETATM    8  C16         0      39.372 110.767  17.754  1.00  0.00     0.093 C 
HETATM    9  C18         0      38.543 110.436  18.819  1.00  0.00     0.048 C 
HETATM   10  C19         0      38.056 111.421  19.667  1.00  0.00     0.096 C 
HETATM   11  C21         0      38.409 112.728  19.462  1.00  0.00     0.084 C 
ENDROOT
BRANCH  10  12
HETATM   12  O20         0      36.921 111.164  20.428  1.00  0.00    -0.359 OA
HETATM   13  H20         0      36.966 110.469  21.074  1.00  0.00     0.218 HD
ENDBRANCH  10  12
BRANCH   4  14
HETATM   14  C5          0      39.524 116.569  18.444  1.00  0.00     0.025 C 
HETATM   15  C6          0      40.551 116.813  17.544  1.00  0.00     0.004 C 
HETATM   16  C7          0      40.277 117.647  16.464  1.00  0.00     0.026 C 
HETATM   17  C8          0      39.066 118.322  16.353  1.00  0.00     0.112 C 
HETATM   18  C10         0      38.399 118.518  17.555  1.00  0.00     0.112 C 
HETATM   19  C12         0      38.628 117.620  18.591  1.00  0.00     0.028 C 
BRANCH  17  20
HETATM   20  O9          0      38.505 118.572  15.113  1.00  0.00    -0.357 OA
HETATM   21  H9          0      37.604 118.847  14.988  1.00  0.00     0.218 HD
ENDBRANCH  17  20
BRANCH  18  22
HETATM   22  O11         0      37.287 119.347  17.529  1.00  0.00    -0.357 OA
HETATM   23  H11         0      36.814 119.407  16.707  1.00  0.00     0.218 HD
ENDBRANCH  18  22
ENDBRANCH   4  14
BRANCH   8  24
HETATM   24  O17         0      39.286 110.107  16.522  1.00  0.00    -0.359 OA
HETATM   25  H17         0      38.450 109.860  16.145  1.00  0.00     0.218 HD
ENDBRANCH   8  24
TORSDOF 5
ENDMDL
MODEL 3
REMARK VINA RESULT:      -4.3      7.342      8.672
REMARK  5 active torsions:
REMARK  status: ('A' for Active; 'I' for Inactive)
REMARK    1  A    between atoms: C4_4  and  C5_5 
REMARK    2  A    between atoms: C8_8  and  O9_9 
REMARK    3  A    between atoms: C10_11  and  O11_12 
REMARK    4  A    between atoms: C16_18  and  O17_19 
REMARK    5  A    between atoms: C19_22  and  O20_23 
ROOT
HETATM    1  O1          0      37.459 122.777  10.349  1.00  0.00    -0.286 OA
HETATM    2  C2          0      38.256 122.347  11.227  1.00  0.00     0.201 C 
HETATM    3  C3          0      39.566 121.998  10.945  1.00  0.00     0.067 C 
HETATM    4  C4          0      40.392 121.431  11.909  1.00  0.00     0.103 C 
HETATM    5  O13         0      39.913 121.243  13.126  1.00  0.00    -0.307 OA
HETATM    6  C14         0      38.666 121.522  13.436  1.00  0.00     0.107 C 
HETATM    7  C15         0      38.050 120.973  14.552  1.00  0.00     0.049 C 
HETATM    8  C16         0      36.675 121.063  14.735  1.00  0.00     0.093 C 
HETATM    9  C18         0      36.065 122.128  14.084  1.00  0.00     0.048 C 
HETATM   10  C19         0      36.675 122.731  12.993  1.00  0.00     0.096 C 
HETATM   11  C21         0      37.896 122.284  12.565  1.00  0.00     0.084 C 
ENDROOT
BRANCH  10  12
HETATM   12  O20         0      35.901 123.468  12.102  1.00  0.00    -0.359 OA
HETATM   13  H20         0      36.276 123.679  11.255  1.00  0.00     0.218 HD
ENDBRANCH  10  12
BRANCH   4  14
HETATM   14  C5          0      41.476 120.566  11.437  1.00  0.00     0.025 C 
HETATM   15  C6          0      42.811 120.810  11.723  1.00  0.00     0.004 C 
HETATM   16  C7          0      43.624 119.713  11.989  1.00  0.00     0.026 C 
HETATM   17  C8          0      43.161 118.410  11.845  1.00  0.00     0.112 C 
HETATM   18  C10         0      42.085 118.270  10.979  1.00  0.00     0.112 C 
HETATM   19  C12         0      41.238 119.357  10.797  1.00  0.00     0.028 C 
BRANCH  17  20
HETATM   20  O9          0      43.619 117.399  12.671  1.00  0.00    -0.357 OA
HETATM   21  H9          0      44.242 116.735  12.398  1.00  0.00     0.218 HD
ENDBRANCH  17  20
BRANCH  18  22
HETATM   22  O11         0      41.705 116.976  10.653  1.00  0.00    -0.357 OA
HETATM   23  H11         0      41.392 116.830   9.767  1.00  0.00     0.218 HD
ENDBRANCH  18  22
ENDBRANCH   4  14
BRANCH   8  24
HETATM   24  O17         0      35.936 119.989  15.243  1.00  0.00    -0.359 OA
HETATM   25  H17         0      36.252 119.095  15.187  1.00  0.00     0.218 HD
ENDBRANCH   8  24
TORSDOF 5
ENDMDL
MODEL 4
REMARK VINA RESULT:      -4.2      6.424     10.957
REMARK  5 active torsions:
REMARK  status: ('A' for Active; 'I' for Inactive)
REMARK    1  A    between atoms: C4_4  and  C5_5 
REMARK    2  A    between atoms: C8_8  and  O9_9 
REMARK    3  A    between atoms: C10_11  and  O11_12 
REMARK    4  A    between atoms: C16_18  and  O17_19 
REMARK    5  A    between atoms: C19_22  and  O20_23 
ROOT
HETATM    1  O1          0      36.052 120.319  16.610  1.00  0.00    -0.286 OA
HETATM    2  C2          0      36.647 120.993  15.726  1.00  0.00     0.201 C 
HETATM    3  C3          0      36.157 122.194  15.242  1.00  0.00     0.067 C 
HETATM    4  C4          0      36.778 122.866  14.195  1.00  0.00     0.103 C 
HETATM    5  O13         0      37.874 122.346  13.669  1.00  0.00    -0.307 OA
HETATM    6  C14         0      38.360 121.191  14.066  1.00  0.00     0.107 C 
HETATM    7  C15         0      39.240 120.459  13.281  1.00  0.00     0.049 C 
HETATM    8  C16         0      39.548 119.138  13.582  1.00  0.00     0.093 C 
HETATM    9  C18         0      39.383 118.786  14.916  1.00  0.00     0.048 C 
HETATM   10  C19         0      38.546 119.524  15.742  1.00  0.00     0.096 C 
HETATM   11  C21         0      37.891 120.617  15.243  1.00  0.00     0.084 C 
ENDROOT
BRANCH  10  12
HETATM   12  O20         0      38.050 118.941  16.904  1.00  0.00    -0.359 OA
HETATM   13  H20         0      37.473 118.192  16.815  1.00  0.00     0.218 HD
ENDBRANCH  10  12
BRANCH   4  14
HETATM   14  C5          0      35.940 123.732  13.364  1.00  0.00     0.025 C 
HETATM   15  C6          0      35.016 124.619  13.896  1.00  0.00     0.004 C 
HETATM   16  C7          0      34.878 125.857  13.276  1.00  0.00     0.026 C 
HETATM   17  C8          0      35.537 126.154  12.087  1.00  0.00     0.112 C 
HETATM   18  C10         0      35.900 125.046  11.333  1.00  0.00     0.112 C 
HETATM   19  C12         0      36.114 123.841  11.990  1.00  0.00     0.028 C 
BRANCH  17  20
HETATM   20  O9          0      35.967 127.441  11.818  1.00  0.00    -0.357 OA
HETATM   21  H9          0      35.402 128.127  11.480  1.00  0.00     0.218 HD
ENDBRANCH  17  20
BRANCH  18  22
HETATM   22  O11         0      36.387 125.288  10.056  1.00  0.00    -0.357 OA
HETATM   23  H11         0      36.273 124.597   9.414  1.00  0.00     0.218 HD
ENDBRANCH  18  22
ENDBRANCH   4  14
BRANCH   8  24
HETATM   24  O17         0      39.680 118.173  12.577  1.00  0.00    -0.359 OA
HETATM   25  H17         0      40.137 117.354  12.729  1.00  0.00     0.218 HD
ENDBRANCH   8  24
TORSDOF 5
ENDMDL
MODEL 5
REMARK VINA RESULT:      -4.2      8.669     10.829
REMARK  5 active torsions:
REMARK  status: ('A' for Active; 'I' for Inactive)
REMARK    1  A    between atoms: C4_4  and  C5_5 
REMARK    2  A    between atoms: C8_8  and  O9_9 
REMARK    3  A    between atoms: C10_11  and  O11_12 
REMARK    4  A    between atoms: C16_18  and  O17_19 
REMARK    5  A    between atoms: C19_22  and  O20_23 
ROOT
HETATM    1  O1          0      36.291 120.805  12.284  1.00  0.00    -0.286 OA
HETATM    2  C2          0      36.166 121.765  13.093  1.00  0.00     0.201 C 
HETATM    3  C3          0      35.881 121.582  14.436  1.00  0.00     0.067 C 
HETATM    4  C4          0      35.646 122.658  15.284  1.00  0.00     0.103 C 
HETATM    5  O13         0      35.720 123.882  14.791  1.00  0.00    -0.307 OA
HETATM    6  C14         0      35.950 124.110  13.517  1.00  0.00     0.107 C 
HETATM    7  C15         0      35.639 125.325  12.923  1.00  0.00     0.049 C 
HETATM    8  C16         0      35.644 125.476  11.542  1.00  0.00     0.093 C 
HETATM    9  C18         0      36.455 124.580  10.857  1.00  0.00     0.048 C 
HETATM   10  C19         0      36.825 123.375  11.439  1.00  0.00     0.096 C 
HETATM   11  C21         0      36.401 123.075  12.705  1.00  0.00     0.084 C 
ENDROOT
BRANCH  10  12
HETATM   12  O20         0      37.246 122.327  10.626  1.00  0.00    -0.359 OA
HETATM   13  H20         0      38.116 122.378  10.249  1.00  0.00     0.218 HD
ENDBRANCH  10  12
BRANCH   4  14
HETATM   14  C5          0      34.796 122.419  16.451  1.00  0.00     0.025 C 
HETATM   15  C6          0      34.435 123.423  17.337  1.00  0.00     0.004 C 
HETATM   16  C7          0      33.141 123.396  17.849  1.00  0.00     0.026 C 
HETATM   17  C8          0      32.279 122.335  17.596  1.00  0.00     0.112 C 
HETATM   18  C10         0      32.908 121.142  17.264  1.00  0.00     0.112 C 
HETATM   19  C12         0      34.166 121.201  16.675  1.00  0.00     0.028 C 
BRANCH  17  20
HETATM   20  O9          0      30.915 122.541  17.485  1.00  0.00    -0.357 OA
HETATM   21  H9          0      30.499 122.917  16.718  1.00  0.00     0.218 HD
ENDBRANCH  17  20
BRANCH  18  22
HETATM   22  O11         0      32.110 120.010  17.188  1.00  0.00    -0.357 OA
HETATM   23  H11         0      31.188 120.119  17.394  1.00  0.00     0.218 HD
ENDBRANCH  18  22
ENDBRANCH   4  14
BRANCH   8  24
HETATM   24  O17         0      34.664 126.230  10.887  1.00  0.00    -0.359 OA
HETATM   25  H17         0      33.738 126.049  10.996  1.00  0.00     0.218 HD
ENDBRANCH   8  24
TORSDOF 5
ENDMDL
MODEL 6
REMARK VINA RESULT:      -4.1      1.783      2.855
REMARK  5 active torsions:
REMARK  status: ('A' for Active; 'I' for Inactive)
REMARK    1  A    between atoms: C4_4  and  C5_5 
REMARK    2  A    between atoms: C8_8  and  O9_9 
REMARK    3  A    between atoms: C10_11  and  O11_12 
REMARK    4  A    between atoms: C16_18  and  O17_19 
REMARK    5  A    between atoms: C19_22  and  O20_23 
ROOT
HETATM    1  O1          0      40.408 117.809  20.286  1.00  0.00    -0.286 OA
HETATM    2  C2          0      39.885 117.041  19.432  1.00  0.00     0.201 C 
HETATM    3  C3          0      39.699 115.687  19.654  1.00  0.00     0.067 C 
HETATM    4  C4          0      39.217 114.845  18.659  1.00  0.00     0.103 C 
HETATM    5  O13         0      38.912 115.362  17.482  1.00  0.00    -0.307 OA
HETATM    6  C14         0      39.104 116.633  17.207  1.00  0.00     0.107 C 
HETATM    7  C15         0      39.172 117.096  15.900  1.00  0.00     0.049 C 
HETATM    8  C16         0      39.625 118.377  15.611  1.00  0.00     0.093 C 
HETATM    9  C18         0      39.487 119.296  16.645  1.00  0.00     0.048 C 
HETATM   10  C19         0      39.370 118.866  17.959  1.00  0.00     0.096 C 
HETATM   11  C21         0      39.373 117.526  18.238  1.00  0.00     0.084 C 
ENDROOT
BRANCH  10  12
HETATM   12  O20         0      39.669 119.748  18.993  1.00  0.00    -0.359 OA
HETATM   13  H20         0      40.516 120.177  18.981  1.00  0.00     0.218 HD
ENDBRANCH  10  12
BRANCH   4  14
HETATM   14  C5          0      39.602 113.434  18.731  1.00  0.00     0.025 C 
HETATM   15  C6          0      38.775 112.454  19.259  1.00  0.00     0.004 C 
HETATM   16  C7          0      38.765 111.212  18.633  1.00  0.00     0.026 C 
HETATM   17  C8          0      39.646 110.909  17.600  1.00  0.00     0.112 C 
HETATM   18  C10         0      40.803 111.676  17.580  1.00  0.00     0.112 C 
HETATM   19  C12         0      40.761 112.948  18.138  1.00  0.00     0.028 C 
BRANCH  17  20
HETATM   20  O9          0      39.269 110.060  16.574  1.00  0.00    -0.357 OA
HETATM   21  H9          0      39.876 109.503  16.100  1.00  0.00     0.218 HD
ENDBRANCH  17  20
BRANCH  18  22
HETATM   22  O11         0      41.796 111.292  16.691  1.00  0.00    -0.357 OA
HETATM   23  H11         0      42.455 110.689  17.016  1.00  0.00     0.218 HD
ENDBRANCH  18  22
ENDBRANCH   4  14
BRANCH   8  24
HETATM   24  O17         0      40.451 118.628  14.510  1.00  0.00    -0.359 OA
HETATM   25  H17         0      41.392 118.721  14.602  1.00  0.00     0.218 HD
ENDBRANCH   8  24
TORSDOF 5
ENDMDL
MODEL 7
REMARK VINA RESULT:      -4.0      6.447      9.219
REMARK  5 active torsions:
REMARK  status: ('A' for Active; 'I' for Inactive)
REMARK    1  A    between atoms: C4_4  and  C5_5 
REMARK    2  A    between atoms: C8_8  and  O9_9 
REMARK    3  A    between atoms: C10_11  and  O11_12 
REMARK    4  A    between atoms: C16_18  and  O17_19 
REMARK    5  A    between atoms: C19_22  and  O20_23 
ROOT
HETATM    1  O1          0      36.193 124.977  15.834  1.00  0.00    -0.286 OA
HETATM    2  C2          0      36.321 124.048  14.991  1.00  0.00     0.201 C 
HETATM    3  C3          0      36.889 122.824  15.303  1.00  0.00     0.067 C 
HETATM    4  C4          0      37.111 121.855  14.332  1.00  0.00     0.103 C 
HETATM    5  O13         0      36.750 122.110  13.086  1.00  0.00    -0.307 OA
HETATM    6  C14         0      36.241 123.269  12.729  1.00  0.00     0.107 C 
HETATM    7  C15         0      36.234 123.688  11.407  1.00  0.00     0.049 C 
HETATM    8  C16         0      35.934 125.002  11.068  1.00  0.00     0.093 C 
HETATM    9  C18         0      35.157 125.685  11.995  1.00  0.00     0.048 C 
HETATM   10  C19         0      35.104 125.265  13.317  1.00  0.00     0.096 C 
HETATM   11  C21         0      35.810 124.159  13.707  1.00  0.00     0.084 C 
ENDROOT
BRANCH  10  12
HETATM   12  O20         0      34.703 126.163  14.301  1.00  0.00    -0.359 OA
HETATM   13  H20         0      33.926 125.954  14.805  1.00  0.00     0.218 HD
ENDBRANCH  10  12
BRANCH   4  14
HETATM   14  C5          0      38.201 120.906  14.569  1.00  0.00     0.025 C 
HETATM   15  C6          0      38.532 120.444  15.834  1.00  0.00     0.004 C 
HETATM   16  C7          0      38.908 119.110  15.955  1.00  0.00     0.026 C 
HETATM   17  C8          0      39.079 118.296  14.839  1.00  0.00     0.112 C 
HETATM   18  C10         0      39.346 118.979  13.660  1.00  0.00     0.112 C 
HETATM   19  C12         0      38.884 120.284  13.533  1.00  0.00     0.028 C 
BRANCH  17  20
HETATM   20  O9          0      38.789 116.945  14.896  1.00  0.00    -0.357 OA
HETATM   21  H9          0      39.139 116.357  15.556  1.00  0.00     0.218 HD
ENDBRANCH  17  20
BRANCH  18  22
HETATM   22  O11         0      39.710 118.215  12.561  1.00  0.00    -0.357 OA
HETATM   23  H11         0      40.599 118.319  12.239  1.00  0.00     0.218 HD
ENDBRANCH  18  22
ENDBRANCH   4  14
BRANCH   8  24
HETATM   24  O17         0      36.635 125.672  10.059  1.00  0.00    -0.359 OA
HETATM   25  H17         0      36.527 126.604   9.911  1.00  0.00     0.218 HD
ENDBRANCH   8  24
TORSDOF 5
ENDMDL
MODEL 8
REMARK VINA RESULT:      -3.9      4.170      6.797
REMARK  5 active torsions:
REMARK  status: ('A' for Active; 'I' for Inactive)
REMARK    1  A    between atoms: C4_4  and  C5_5 
REMARK    2  A    between atoms: C8_8  and  O9_9 
REMARK    3  A    between atoms: C10_11  and  O11_12 
REMARK    4  A    between atoms: C16_18  and  O17_19 
REMARK    5  A    between atoms: C19_22  and  O20_23 
ROOT
HETATM    1  O1          0      37.287 123.845  16.819  1.00  0.00    -0.286 OA
HETATM    2  C2          0      37.098 122.647  16.472  1.00  0.00     0.201 C 
HETATM    3  C3          0      37.408 121.571  17.287  1.00  0.00     0.067 C 
HETATM    4  C4          0      37.287 120.260  16.840  1.00  0.00     0.103 C 
HETATM    5  O13         0      36.844 120.046  15.614  1.00  0.00    -0.307 OA
HETATM    6  C14         0      36.572 121.031  14.787  1.00  0.00     0.107 C 
HETATM    7  C15         0      36.500 120.835  13.415  1.00  0.00     0.049 C 
HETATM    8  C16         0      36.467 121.909  12.533  1.00  0.00     0.093 C 
HETATM    9  C18         0      35.981 123.095  13.071  1.00  0.00     0.048 C 
HETATM   10  C19         0      35.995 123.305  14.443  1.00  0.00     0.096 C 
HETATM   11  C21         0      36.474 122.330  15.275  1.00  0.00     0.084 C 
ENDROOT
BRANCH  10  12
HETATM   12  O20         0      35.930 124.606  14.933  1.00  0.00    -0.359 OA
HETATM   13  H20         0      35.178 125.134  14.694  1.00  0.00     0.218 HD
ENDBRANCH  10  12
BRANCH   4  14
HETATM   14  C5          0      38.154 119.258  17.462  1.00  0.00     0.025 C 
HETATM   15  C6          0      37.876 118.684  18.695  1.00  0.00     0.004 C 
HETATM   16  C7          0      38.163 117.333  18.856  1.00  0.00     0.026 C 
HETATM   17  C8          0      38.826 116.606  17.873  1.00  0.00     0.112 C 
HETATM   18  C10         0      39.597 117.370  17.007  1.00  0.00     0.112 C 
HETATM   19  C12         0      39.237 118.696  16.799  1.00  0.00     0.028 C 
BRANCH  17  20
HETATM   20  O9          0      38.548 115.265  17.675  1.00  0.00    -0.357 OA
HETATM   21  H9          0      38.833 114.774  16.912  1.00  0.00     0.218 HD
ENDBRANCH  17  20
BRANCH  18  22
HETATM   22  O11         0      40.425 116.683  16.131  1.00  0.00    -0.357 OA
HETATM   23  H11         0      40.082 115.882  15.754  1.00  0.00     0.218 HD
ENDBRANCH  18  22
ENDBRANCH   4  14
BRANCH   8  24
HETATM   24  O17         0      37.173 121.883  11.326  1.00  0.00    -0.359 OA
HETATM   25  H17         0      37.057 122.556  10.665  1.00  0.00     0.218 HD
ENDBRANCH   8  24
TORSDOF 5
ENDMDL
MODEL 9
REMARK VINA RESULT:      -3.9      2.471      3.349
REMARK  5 active torsions:
REMARK  status: ('A' for Active; 'I' for Inactive)
REMARK    1  A    between atoms: C4_4  and  C5_5 
REMARK    2  A    between atoms: C8_8  and  O9_9 
REMARK    3  A    between atoms: C10_11  and  O11_12 
REMARK    4  A    between atoms: C16_18  and  O17_19 
REMARK    5  A    between atoms: C19_22  and  O20_23 
ROOT
HETATM    1  O1          0      43.818 115.923  16.473  1.00  0.00    -0.286 OA
HETATM    2  C2          0      42.734 115.595  17.029  1.00  0.00     0.201 C 
HETATM    3  C3          0      42.581 114.414  17.736  1.00  0.00     0.067 C 
HETATM    4  C4          0      41.349 114.028  18.251  1.00  0.00     0.103 C 
HETATM    5  O13         0      40.309 114.825  18.074  1.00  0.00    -0.307 OA
HETATM    6  C14         0      40.392 115.938  17.379  1.00  0.00     0.107 C 
HETATM    7  C15         0      39.267 116.558  16.856  1.00  0.00     0.049 C 
HETATM    8  C16         0      39.375 117.579  15.919  1.00  0.00     0.093 C 
HETATM    9  C18         0      40.577 118.275  15.946  1.00  0.00     0.048 C 
HETATM   10  C19         0      41.712 117.703  16.505  1.00  0.00     0.096 C 
HETATM   11  C21         0      41.642 116.449  17.048  1.00  0.00     0.084 C 
ENDROOT
BRANCH  10  12
HETATM   12  O20         0      42.966 118.191  16.150  1.00  0.00    -0.359 OA
HETATM   13  H20         0      43.728 117.679  16.392  1.00  0.00     0.218 HD
ENDBRANCH  10  12
BRANCH   4  14
HETATM   14  C5          0      41.115 112.594  18.427  1.00  0.00     0.025 C 
HETATM   15  C6          0      41.130 111.976  19.669  1.00  0.00     0.004 C 
HETATM   16  C7          0      40.199 110.968  19.898  1.00  0.00     0.026 C 
HETATM   17  C8          0      39.371 110.496  18.885  1.00  0.00     0.112 C 
HETATM   18  C10         0      39.851 110.704  17.599  1.00  0.00     0.112 C 
HETATM   19  C12         0      40.714 111.772  17.382  1.00  0.00     0.028 C 
BRANCH  17  20
HETATM   20  O9          0      38.089 110.055  19.165  1.00  0.00    -0.357 OA
HETATM   21  H9          0      37.835 109.659  19.990  1.00  0.00     0.218 HD
ENDBRANCH  17  20
BRANCH  18  22
HETATM   22  O11         0      39.161 110.089  16.564  1.00  0.00    -0.357 OA
HETATM   23  H11         0      38.762 110.658  15.916  1.00  0.00     0.218 HD
ENDBRANCH  18  22
ENDBRANCH   4  14
BRANCH   8  24
HETATM   24  O17         0      38.498 117.667  14.832  1.00  0.00    -0.359 OA
HETATM   25  H17         0      38.044 118.474  14.621  1.00  0.00     0.218 HD
ENDBRANCH   8  24
TORSDOF 5
ENDMDL
