MODEL 1
REMARK VINA RESULT:      -4.4      0.000      0.000
REMARK  5 active torsions:
REMARK  status: ('A' for Active; 'I' for Inactive)
REMARK    1  A    between atoms: C4_4  and  C5_5 
REMARK    2  A    between atoms: C8_8  and  O9_9 
REMARK    3  A    between atoms: C10_11  and  O11_12 
REMARK    4  A    between atoms: C16_18  and  O17_19 
REMARK    5  A    between atoms: C19_22  and  O20_23 
ROOT
HETATM    1  O1          0      17.734  21.571   6.406  1.00  0.00    -0.286 OA
HETATM    2  C2          0      17.106  22.178   5.496  1.00  0.00     0.201 C 
HETATM    3  C3          0      16.741  21.574   4.305  1.00  0.00     0.067 C 
HETATM    4  C4          0      16.140  22.293   3.278  1.00  0.00     0.103 C 
HETATM    5  O13         0      15.899  23.580   3.460  1.00  0.00    -0.307 OA
HETATM    6  C14         0      16.259  24.210   4.557  1.00  0.00     0.107 C 
HETATM    7  C15         0      16.378  25.591   4.600  1.00  0.00     0.049 C 
HETATM    8  C16         0      16.998  26.229   5.668  1.00  0.00     0.093 C 
HETATM    9  C18         0      16.994  25.515   6.860  1.00  0.00     0.048 C 
HETATM   10  C19         0      16.830  24.137   6.857  1.00  0.00     0.096 C 
HETATM   11  C21         0      16.654  23.477   5.671  1.00  0.00     0.084 C 
ENDROOT
BRANCH  10  12
HETATM   12  O20         0      17.254  23.399   7.957  1.00  0.00    -0.359 OA
HETATM   13  H20         0      16.611  23.178   8.620  1.00  0.00     0.218 HD
ENDBRANCH  10  12
BRANCH   4  14
HETATM   14  C5          0      16.333  21.799   1.913  1.00  0.00     0.025 C 
HETATM   15  C6          0      15.806  22.439   0.801  1.00  0.00     0.004 C 
HETATM   16  C7          0      16.586  22.475  -0.351  1.00  0.00     0.026 C 
HETATM   17  C8          0      17.789  21.784  -0.439  1.00  0.00     0.112 C 
HETATM   18  C10         0      17.906  20.710   0.433  1.00  0.00     0.112 C 
HETATM   19  C12         0      17.180  20.739   1.618  1.00  0.00     0.028 C 
BRANCH  17  20
HETATM   20  O9          0      18.839  22.282  -1.190  1.00  0.00    -0.357 OA
HETATM   21  H9          0      18.966  22.093  -2.112  1.00  0.00     0.218 HD
ENDBRANCH  17  20
BRANCH  18  22
HETATM   22  O11         0      19.001  19.875   0.258  1.00  0.00    -0.357 OA
HETATM   23  H11         0      18.948  19.010   0.647  1.00  0.00     0.218 HD
ENDBRANCH  18  22
ENDBRANCH   4  14
BRANCH   8  24
HETATM   24  O17         0      17.841  27.329   5.471  1.00  0.00    -0.359 OA
HETATM   25  H17         0      17.528  28.132   5.073  1.00  0.00     0.218 HD
ENDBRANCH   8  24
TORSDOF 5
ENDMDL
MODEL 2
REMARK VINA RESULT:      -4.3      2.227      6.915
REMARK  5 active torsions:
REMARK  status: ('A' for Active; 'I' for Inactive)
REMARK    1  A    between atoms: C4_4  and  C5_5 
REMARK    2  A    between atoms: C8_8  and  O9_9 
REMARK    3  A    between atoms: C10_11  and  O11_12 
REMARK    4  A    between atoms: C16_18  and  O17_19 
REMARK    5  A    between atoms: C19_22  and  O20_23 
ROOT
HETATM    1  O1          0      12.729  24.063   0.126  1.00  0.00    -0.286 OA
HETATM    2  C2          0      13.728  23.697   0.804  1.00  0.00     0.201 C 
HETATM    3  C3          0      13.872  23.994   2.149  1.00  0.00     0.067 C 
HETATM    4  C4          0      15.029  23.668   2.847  1.00  0.00     0.103 C 
HETATM    5  O13         0      16.002  23.042   2.207  1.00  0.00    -0.307 OA
HETATM    6  C14         0      15.932  22.771   0.922  1.00  0.00     0.107 C 
HETATM    7  C15         0      17.065  22.493   0.171  1.00  0.00     0.049 C 
HETATM    8  C16         0      17.020  22.460  -1.218  1.00  0.00     0.093 C 
HETATM    9  C18         0      15.769  22.187  -1.758  1.00  0.00     0.048 C 
HETATM   10  C19         0      14.616  22.410  -1.017  1.00  0.00     0.096 C 
HETATM   11  C21         0      14.713  22.886   0.262  1.00  0.00     0.084 C 
ENDROOT
BRANCH  10  12
HETATM   12  O20         0      13.400  22.556  -1.678  1.00  0.00    -0.359 OA
HETATM   13  H20         0      12.633  22.149  -1.294  1.00  0.00     0.218 HD
ENDBRANCH  10  12
BRANCH   4  14
HETATM   14  C5          0      15.367  24.494   4.007  1.00  0.00     0.025 C 
HETATM   15  C6          0      16.350  24.142   4.920  1.00  0.00     0.004 C 
HETATM   16  C7          0      17.149  25.160   5.431  1.00  0.00     0.026 C 
HETATM   17  C8          0      16.895  26.498   5.149  1.00  0.00     0.112 C 
HETATM   18  C10         0      15.584  26.775   4.784  1.00  0.00     0.112 C 
HETATM   19  C12         0      14.834  25.763   4.197  1.00  0.00     0.028 C 
BRANCH  17  20
HETATM   20  O9          0      17.931  27.409   5.043  1.00  0.00    -0.357 OA
HETATM   21  H9          0      18.020  28.175   5.599  1.00  0.00     0.218 HD
ENDBRANCH  17  20
BRANCH  18  22
HETATM   22  O11         0      15.231  28.113   4.676  1.00  0.00    -0.357 OA
HETATM   23  H11         0      15.859  28.691   4.259  1.00  0.00     0.218 HD
ENDBRANCH  18  22
ENDBRANCH   4  14
BRANCH   8  24
HETATM   24  O17         0      18.057  22.989  -1.994  1.00  0.00    -0.359 OA
HETATM   25  H17         0      18.113  22.829  -2.928  1.00  0.00     0.218 HD
ENDBRANCH   8  24
TORSDOF 5
ENDMDL
MODEL 3
REMARK VINA RESULT:      -3.9      4.222      5.960
REMARK  5 active torsions:
REMARK  status: ('A' for Active; 'I' for Inactive)
REMARK    1  A    between atoms: C4_4  and  C5_5 
REMARK    2  A    between atoms: C8_8  and  O9_9 
REMARK    3  A    between atoms: C10_11  and  O11_12 
REMARK    4  A    between atoms: C16_18  and  O17_19 
REMARK    5  A    between atoms: C19_22  and  O20_23 
ROOT
HETATM    1  O1          0      18.790  27.291   9.537  1.00  0.00    -0.286 OA
HETATM    2  C2          0      18.032  26.890   8.612  1.00  0.00     0.201 C 
HETATM    3  C3          0      17.434  25.642   8.620  1.00  0.00     0.067 C 
HETATM    4  C4          0      16.687  25.185   7.540  1.00  0.00     0.103 C 
HETATM    5  O13         0      16.533  25.977   6.494  1.00  0.00    -0.307 OA
HETATM    6  C14         0      17.110  27.157   6.420  1.00  0.00     0.107 C 
HETATM    7  C15         0      17.289  27.808   5.207  1.00  0.00     0.049 C 
HETATM    8  C16         0      18.116  28.919   5.101  1.00  0.00     0.093 C 
HETATM    9  C18         0      18.299  29.630   6.281  1.00  0.00     0.048 C 
HETATM   10  C19         0      18.084  29.023   7.510  1.00  0.00     0.096 C 
HETATM   11  C21         0      17.671  27.719   7.561  1.00  0.00     0.084 C 
ENDROOT
BRANCH  10  12
HETATM   12  O20         0      18.670  29.566   8.650  1.00  0.00    -0.359 OA
HETATM   13  H20         0      19.539  29.941   8.568  1.00  0.00     0.218 HD
ENDBRANCH  10  12
BRANCH   4  14
HETATM   14  C5          0      16.610  23.736   7.344  1.00  0.00     0.025 C 
HETATM   15  C6          0      16.843  23.130   6.118  1.00  0.00     0.004 C 
HETATM   16  C7          0      17.525  21.918   6.117  1.00  0.00     0.026 C 
HETATM   17  C8          0      17.849  21.262   7.300  1.00  0.00     0.112 C 
HETATM   18  C10         0      17.050  21.597   8.386  1.00  0.00     0.112 C 
HETATM   19  C12         0      16.448  22.849   8.401  1.00  0.00     0.028 C 
BRANCH  17  20
HETATM   20  O9          0      19.006  20.511   7.401  1.00  0.00    -0.357 OA
HETATM   21  H9          0      19.025  19.605   7.687  1.00  0.00     0.218 HD
ENDBRANCH  17  20
BRANCH  18  22
HETATM   22  O11         0      17.205  20.839   9.537  1.00  0.00    -0.357 OA
HETATM   23  H11         0      17.657  20.007   9.448  1.00  0.00     0.218 HD
ENDBRANCH  18  22
ENDBRANCH   4  14
BRANCH   8  24
HETATM   24  O17         0      18.952  29.103   3.994  1.00  0.00    -0.359 OA
HETATM   25  H17         0      19.736  28.581   3.869  1.00  0.00     0.218 HD
ENDBRANCH   8  24
TORSDOF 5
ENDMDL
MODEL 4
REMARK VINA RESULT:      -3.8      2.379      3.091
REMARK  5 active torsions:
REMARK  status: ('A' for Active; 'I' for Inactive)
REMARK    1  A    between atoms: C4_4  and  C5_5 
REMARK    2  A    between atoms: C8_8  and  O9_9 
REMARK    3  A    between atoms: C10_11  and  O11_12 
REMARK    4  A    between atoms: C16_18  and  O17_19 
REMARK    5  A    between atoms: C19_22  and  O20_23 
ROOT
HETATM    1  O1          0      17.203  24.876   5.110  1.00  0.00    -0.286 OA
HETATM    2  C2          0      16.178  24.733   4.388  1.00  0.00     0.201 C 
HETATM    3  C3          0      16.018  23.673   3.512  1.00  0.00     0.067 C 
HETATM    4  C4          0      14.927  23.595   2.655  1.00  0.00     0.103 C 
HETATM    5  O13         0      14.015  24.550   2.699  1.00  0.00    -0.307 OA
HETATM    6  C14         0      14.137  25.597   3.486  1.00  0.00     0.107 C 
HETATM    7  C15         0      13.425  26.767   3.261  1.00  0.00     0.049 C 
HETATM    8  C16         0      13.741  27.943   3.930  1.00  0.00     0.093 C 
HETATM    9  C18         0      14.387  27.770   5.148  1.00  0.00     0.048 C 
HETATM   10  C19         0      15.069  26.593   5.424  1.00  0.00     0.096 C 
HETATM   11  C21         0      15.092  25.588   4.496  1.00  0.00     0.084 C 
ENDROOT
BRANCH  10  12
HETATM   12  O20         0      16.047  26.590   6.414  1.00  0.00    -0.359 OA
HETATM   13  H20         0      15.958  25.969   7.126  1.00  0.00     0.218 HD
ENDBRANCH  10  12
BRANCH   4  14
HETATM   14  C5          0      15.107  22.850   1.407  1.00  0.00     0.025 C 
HETATM   15  C6          0      14.046  22.465   0.601  1.00  0.00     0.004 C 
HETATM   16  C7          0      14.226  22.530  -0.777  1.00  0.00     0.026 C 
HETATM   17  C8          0      15.462  22.837  -1.337  1.00  0.00     0.112 C 
HETATM   18  C10         0      16.551  22.579  -0.515  1.00  0.00     0.112 C 
HETATM   19  C12         0      16.360  22.605   0.861  1.00  0.00     0.028 C 
BRANCH  17  20
HETATM   20  O9          0      15.546  23.537  -2.528  1.00  0.00    -0.357 OA
HETATM   21  H9          0      16.361  23.700  -2.987  1.00  0.00     0.218 HD
ENDBRANCH  17  20
BRANCH  18  22
HETATM   22  O11         0      17.810  22.688  -1.088  1.00  0.00    -0.357 OA
HETATM   23  H11         0      18.421  21.979  -0.922  1.00  0.00     0.218 HD
ENDBRANCH  18  22
ENDBRANCH   4  14
BRANCH   8  24
HETATM   24  O17         0      13.718  29.181   3.278  1.00  0.00    -0.359 OA
HETATM   25  H17         0      13.594  29.248   2.339  1.00  0.00     0.218 HD
ENDBRANCH   8  24
TORSDOF 5
ENDMDL
MODEL 5
REMARK VINA RESULT:      -3.8      2.913      4.779
REMARK  5 active torsions:
REMARK  status: ('A' for Active; 'I' for Inactive)
REMARK    1  A    between atoms: C4_4  and  C5_5 
REMARK    2  A    between atoms: C8_8  and  O9_9 
REMARK    3  A    between atoms: C10_11  and  O11_12 
REMARK    4  A    between atoms: C16_18  and  O17_19 
REMARK    5  A    between atoms: C19_22  and  O20_23 
ROOT
HETATM    1  O1          0      14.104  26.819   3.858  1.00  0.00    -0.286 OA
HETATM    2  C2          0      15.118  26.364   4.455  1.00  0.00     0.201 C 
HETATM    3  C3          0      15.568  25.065   4.287  1.00  0.00     0.067 C 
HETATM    4  C4          0      16.625  24.558   5.034  1.00  0.00     0.103 C 
HETATM    5  O13         0      17.222  25.349   5.908  1.00  0.00    -0.307 OA
HETATM    6  C14         0      16.811  26.578   6.133  1.00  0.00     0.107 C 
HETATM    7  C15         0      17.151  27.261   7.292  1.00  0.00     0.049 C 
HETATM    8  C16         0      16.516  28.446   7.643  1.00  0.00     0.093 C 
HETATM    9  C18         0      15.962  29.152   6.582  1.00  0.00     0.048 C 
HETATM   10  C19         0      15.653  28.509   5.391  1.00  0.00     0.096 C 
HETATM   11  C21         0      15.912  27.172   5.255  1.00  0.00     0.084 C 
ENDROOT
BRANCH  10  12
HETATM   12  O20         0      14.729  29.086   4.525  1.00  0.00    -0.359 OA
HETATM   13  H20         0      14.324  29.904   4.788  1.00  0.00     0.218 HD
ENDBRANCH  10  12
BRANCH   4  14
HETATM   14  C5          0      16.654  23.111   5.258  1.00  0.00     0.025 C 
HETATM   15  C6          0      16.225  22.195   4.309  1.00  0.00     0.004 C 
HETATM   16  C7          0      16.947  21.012   4.184  1.00  0.00     0.026 C 
HETATM   17  C8          0      17.976  20.689   5.061  1.00  0.00     0.112 C 
HETATM   18  C10         0      17.905  21.319   6.296  1.00  0.00     0.112 C 
HETATM   19  C12         0      17.251  22.543   6.376  1.00  0.00     0.028 C 
BRANCH  17  20
HETATM   20  O9          0      19.075  19.967   4.629  1.00  0.00    -0.357 OA
HETATM   21  H9          0      19.620  20.223   3.894  1.00  0.00     0.218 HD
ENDBRANCH  17  20
BRANCH  18  22
HETATM   22  O11         0      18.794  20.893   7.272  1.00  0.00    -0.357 OA
HETATM   23  H11         0      19.715  21.079   7.126  1.00  0.00     0.218 HD
ENDBRANCH  18  22
ENDBRANCH   4  14
BRANCH   8  24
HETATM   24  O17         0      16.171  28.723   8.970  1.00  0.00    -0.359 OA
HETATM   25  H17         0      15.271  28.881   9.230  1.00  0.00     0.218 HD
ENDBRANCH   8  24
TORSDOF 5
ENDMDL
MODEL 6
REMARK VINA RESULT:      -3.6      3.578      7.586
REMARK  5 active torsions:
REMARK  status: ('A' for Active; 'I' for Inactive)
REMARK    1  A    between atoms: C4_4  and  C5_5 
REMARK    2  A    between atoms: C8_8  and  O9_9 
REMARK    3  A    between atoms: C10_11  and  O11_12 
REMARK    4  A    between atoms: C16_18  and  O17_19 
REMARK    5  A    between atoms: C19_22  and  O20_23 
ROOT
HETATM    1  O1          0      13.350  28.177   4.523  1.00  0.00    -0.286 OA
HETATM    2  C2          0      14.518  27.874   4.892  1.00  0.00     0.201 C 
HETATM    3  C3          0      15.437  28.816   5.322  1.00  0.00     0.067 C 
HETATM    4  C4          0      16.749  28.468   5.625  1.00  0.00     0.103 C 
HETATM    5  O13         0      17.112  27.202   5.516  1.00  0.00    -0.307 OA
HETATM    6  C14         0      16.289  26.275   5.076  1.00  0.00     0.107 C 
HETATM    7  C15         0      16.750  25.062   4.584  1.00  0.00     0.049 C 
HETATM    8  C16         0      15.910  24.198   3.892  1.00  0.00     0.093 C 
HETATM    9  C18         0      14.558  24.338   4.179  1.00  0.00     0.048 C 
HETATM   10  C19         0      14.070  25.522   4.716  1.00  0.00     0.096 C 
HETATM   11  C21         0      14.930  26.553   4.980  1.00  0.00     0.084 C 
ENDROOT
BRANCH  10  12
HETATM   12  O20         0      12.716  25.817   4.593  1.00  0.00    -0.359 OA
HETATM   13  H20         0      12.335  26.429   5.212  1.00  0.00     0.218 HD
ENDBRANCH  10  12
BRANCH   4  14
HETATM   14  C5          0      17.769  29.508   5.478  1.00  0.00     0.025 C 
HETATM   15  C6          0      19.127  29.250   5.586  1.00  0.00     0.004 C 
HETATM   16  C7          0      19.983  29.927   4.723  1.00  0.00     0.026 C 
HETATM   17  C8          0      19.521  30.926   3.873  1.00  0.00     0.112 C 
HETATM   18  C10         0      18.338  31.531   4.278  1.00  0.00     0.112 C 
HETATM   19  C12         0      17.461  30.800   5.071  1.00  0.00     0.028 C 
BRANCH  17  20
HETATM   20  O9          0      20.100  31.125   2.632  1.00  0.00    -0.357 OA
HETATM   21  H9          0      20.654  31.867   2.421  1.00  0.00     0.218 HD
ENDBRANCH  17  20
BRANCH  18  22
HETATM   22  O11         0      17.934  32.655   3.573  1.00  0.00    -0.357 OA
HETATM   23  H11         0      18.364  33.475   3.787  1.00  0.00     0.218 HD
ENDBRANCH  18  22
ENDBRANCH   4  14
BRANCH   8  24
HETATM   24  O17         0      16.355  23.495   2.767  1.00  0.00    -0.359 OA
HETATM   25  H17         0      16.605  23.941   1.967  1.00  0.00     0.218 HD
ENDBRANCH   8  24
TORSDOF 5
ENDMDL
MODEL 7
REMARK VINA RESULT:      -3.6      1.717      2.164
REMARK  5 active torsions:
REMARK  status: ('A' for Active; 'I' for Inactive)
REMARK    1  A    between atoms: C4_4  and  C5_5 
REMARK    2  A    between atoms: C8_8  and  O9_9 
REMARK    3  A    between atoms: C10_11  and  O11_12 
REMARK    4  A    between atoms: C16_18  and  O17_19 
REMARK    5  A    between atoms: C19_22  and  O20_23 
ROOT
HETATM    1  O1          0      12.957  22.678   5.089  1.00  0.00    -0.286 OA
HETATM    2  C2          0      13.905  23.154   4.405  1.00  0.00     0.201 C 
HETATM    3  C3          0      14.144  22.783   3.093  1.00  0.00     0.067 C 
HETATM    4  C4          0      15.255  23.245   2.396  1.00  0.00     0.103 C 
HETATM    5  O13         0      16.085  24.075   3.003  1.00  0.00    -0.307 OA
HETATM    6  C14         0      15.924  24.430   4.259  1.00  0.00     0.107 C 
HETATM    7  C15         0      16.967  24.955   5.009  1.00  0.00     0.049 C 
HETATM    8  C16         0      16.868  25.088   6.389  1.00  0.00     0.093 C 
HETATM    9  C18         0      15.570  25.185   6.877  1.00  0.00     0.048 C 
HETATM   10  C19         0      14.499  24.713   6.132  1.00  0.00     0.096 C 
HETATM   11  C21         0      14.719  24.161   4.900  1.00  0.00     0.084 C 
ENDROOT
BRANCH  10  12
HETATM   12  O20         0      13.302  24.413   6.776  1.00  0.00    -0.359 OA
HETATM   13  H20         0      12.532  24.268   6.239  1.00  0.00     0.218 HD
ENDBRANCH  10  12
BRANCH   4  14
HETATM   14  C5          0      15.767  22.400   1.316  1.00  0.00     0.025 C 
HETATM   15  C6          0      15.540  22.673  -0.025  1.00  0.00     0.004 C 
HETATM   16  C7          0      16.579  22.428  -0.917  1.00  0.00     0.026 C 
HETATM   17  C8          0      17.756  21.807  -0.514  1.00  0.00     0.112 C 
HETATM   18  C10         0      17.638  21.027   0.629  1.00  0.00     0.112 C 
HETATM   19  C12         0      16.644  21.348   1.547  1.00  0.00     0.028 C 
BRANCH  17  20
HETATM   20  O9          0      18.966  22.131  -1.100  1.00  0.00    -0.357 OA
HETATM   21  H9          0      19.055  22.740  -1.825  1.00  0.00     0.218 HD
ENDBRANCH  17  20
BRANCH  18  22
HETATM   22  O11         0      18.727  20.238   0.967  1.00  0.00    -0.357 OA
HETATM   23  H11         0      18.757  19.364   0.595  1.00  0.00     0.218 HD
ENDBRANCH  18  22
ENDBRANCH   4  14
BRANCH   8  24
HETATM   24  O17         0      17.951  24.805   7.229  1.00  0.00    -0.359 OA
HETATM   25  H17         0      18.287  23.922   7.330  1.00  0.00     0.218 HD
ENDBRANCH   8  24
TORSDOF 5
ENDMDL
MODEL 8
REMARK VINA RESULT:      -3.5      3.328      5.471
REMARK  5 active torsions:
REMARK  status: ('A' for Active; 'I' for Inactive)
REMARK    1  A    between atoms: C4_4  and  C5_5 
REMARK    2  A    between atoms: C8_8  and  O9_9 
REMARK    3  A    between atoms: C10_11  and  O11_12 
REMARK    4  A    between atoms: C16_18  and  O17_19 
REMARK    5  A    between atoms: C19_22  and  O20_23 
ROOT
HETATM    1  O1          0      15.855  26.191   7.428  1.00  0.00    -0.286 OA
HETATM    2  C2          0      15.763  25.825   6.224  1.00  0.00     0.201 C 
HETATM    3  C3          0      15.120  26.580   5.258  1.00  0.00     0.067 C 
HETATM    4  C4          0      14.943  26.106   3.963  1.00  0.00     0.103 C 
HETATM    5  O13         0      15.422  24.915   3.651  1.00  0.00    -0.307 OA
HETATM    6  C14         0      16.008  24.143   4.540  1.00  0.00     0.107 C 
HETATM    7  C15         0      16.147  22.777   4.342  1.00  0.00     0.049 C 
HETATM    8  C16         0      16.530  21.933   5.378  1.00  0.00     0.093 C 
HETATM    9  C18         0      17.251  22.544   6.397  1.00  0.00     0.048 C 
HETATM   10  C19         0      17.171  23.916   6.593  1.00  0.00     0.096 C 
HETATM   11  C21         0      16.388  24.675   5.767  1.00  0.00     0.084 C 
ENDROOT
BRANCH  10  12
HETATM   12  O20         0      17.521  24.448   7.831  1.00  0.00    -0.359 OA
HETATM   13  H20         0      17.762  25.365   7.869  1.00  0.00     0.218 HD
ENDBRANCH  10  12
BRANCH   4  14
HETATM   14  C5          0      13.798  26.625   3.211  1.00  0.00     0.025 C 
HETATM   15  C6          0      13.359  27.936   3.320  1.00  0.00     0.004 C 
HETATM   16  C7          0      12.917  28.566   2.160  1.00  0.00     0.026 C 
HETATM   17  C8          0      12.788  27.877   0.959  1.00  0.00     0.112 C 
HETATM   18  C10         0      12.635  26.503   1.093  1.00  0.00     0.112 C 
HETATM   19  C12         0      13.162  25.886   2.221  1.00  0.00     0.028 C 
BRANCH  17  20
HETATM   20  O9          0      13.014  28.511  -0.249  1.00  0.00    -0.357 OA
HETATM   21  H9          0      12.940  29.450  -0.375  1.00  0.00     0.218 HD
ENDBRANCH  17  20
BRANCH  18  22
HETATM   22  O11         0      12.315  25.792  -0.055  1.00  0.00    -0.357 OA
HETATM   23  H11         0      13.005  25.682  -0.699  1.00  0.00     0.218 HD
ENDBRANCH  18  22
ENDBRANCH   4  14
BRANCH   8  24
HETATM   24  O17         0      15.948  20.671   5.543  1.00  0.00    -0.359 OA
HETATM   25  H17         0      15.706  20.341   6.400  1.00  0.00     0.218 HD
ENDBRANCH   8  24
TORSDOF 5
ENDMDL
MODEL 9
REMARK VINA RESULT:      -3.4      6.426      9.372
REMARK  5 active torsions:
REMARK  status: ('A' for Active; 'I' for Inactive)
REMARK    1  A    between atoms: C4_4  and  C5_5 
REMARK    2  A    between atoms: C8_8  and  O9_9 
REMARK    3  A    between atoms: C10_11  and  O11_12 
REMARK    4  A    between atoms: C16_18  and  O17_19 
REMARK    5  A    between atoms: C19_22  and  O20_23 
ROOT
HETATM    1  O1          0      18.525  30.943   4.133  1.00  0.00    -0.286 OA
HETATM    2  C2          0      18.888  30.758   5.328  1.00  0.00     0.201 C 
HETATM    3  C3          0      18.678  29.565   5.999  1.00  0.00     0.067 C 
HETATM    4  C4          0      18.994  29.421   7.345  1.00  0.00     0.103 C 
HETATM    5  O13         0      19.526  30.447   7.985  1.00  0.00    -0.307 OA
HETATM    6  C14         0      19.712  31.613   7.405  1.00  0.00     0.107 C 
HETATM    7  C15         0      19.883  32.776   8.142  1.00  0.00     0.049 C 
HETATM    8  C16         0      19.823  34.027   7.539  1.00  0.00     0.093 C 
HETATM    9  C18         0      20.119  34.039   6.181  1.00  0.00     0.048 C 
HETATM   10  C19         0      20.004  32.881   5.424  1.00  0.00     0.096 C 
HETATM   11  C21         0      19.612  31.715   6.022  1.00  0.00     0.084 C 
ENDROOT
BRANCH  10  12
HETATM   12  O20         0      19.871  32.982   4.042  1.00  0.00    -0.359 OA
HETATM   13  H20         0      19.286  32.375   3.606  1.00  0.00     0.218 HD
ENDBRANCH  10  12
BRANCH   4  14
HETATM   14  C5          0      18.233  28.431   8.109  1.00  0.00     0.025 C 
HETATM   15  C6          0      16.939  28.056   7.777  1.00  0.00     0.004 C 
HETATM   16  C7          0      16.597  26.717   7.929  1.00  0.00     0.026 C 
HETATM   17  C8          0      17.466  25.804   8.518  1.00  0.00     0.112 C 
HETATM   18  C10         0      18.415  26.368   9.360  1.00  0.00     0.112 C 
HETATM   19  C12         0      18.802  27.683   9.132  1.00  0.00     0.028 C 
BRANCH  17  20
HETATM   20  O9          0      17.489  24.482   8.110  1.00  0.00    -0.357 OA
HETATM   21  H9          0      17.765  24.202   7.246  1.00  0.00     0.218 HD
ENDBRANCH  17  20
BRANCH  18  22
HETATM   22  O11         0      19.182  25.494  10.117  1.00  0.00    -0.357 OA
HETATM   23  H11         0      20.113  25.468   9.932  1.00  0.00     0.218 HD
ENDBRANCH  18  22
ENDBRANCH   4  14
BRANCH   8  24
HETATM   24  O17         0      19.192  35.108   8.164  1.00  0.00    -0.359 OA
HETATM   25  H17         0      18.430  35.529   7.784  1.00  0.00     0.218 HD
ENDBRANCH   8  24
TORSDOF 5
ENDMDL
