MODEL 1
REMARK VINA RESULT:      -5.4      0.000      0.000
REMARK  5 active torsions:
REMARK  status: ('A' for Active; 'I' for Inactive)
REMARK    1  A    between atoms: C4_4  and  C5_5 
REMARK    2  A    between atoms: C8_8  and  O9_9 
REMARK    3  A    between atoms: C10_11  and  O11_12 
REMARK    4  A    between atoms: C16_18  and  O17_19 
REMARK    5  A    between atoms: C19_22  and  O20_23 
ROOT
HETATM    1  O1          0      11.393  58.237 -21.214  1.00  0.00    -0.286 OA
HETATM    2  C2          0      11.006  58.080 -22.404  1.00  0.00     0.201 C 
HETATM    3  C3          0      11.883  57.963 -23.469  1.00  0.00     0.067 C 
HETATM    4  C4          0      11.429  57.894 -24.782  1.00  0.00     0.103 C 
HETATM    5  O13         0      10.127  57.921 -25.006  1.00  0.00    -0.307 OA
HETATM    6  C14         0       9.254  58.068 -24.035  1.00  0.00     0.107 C 
HETATM    7  C15         0       7.955  58.492 -24.277  1.00  0.00     0.049 C 
HETATM    8  C16         0       7.120  58.889 -23.240  1.00  0.00     0.093 C 
HETATM    9  C18         0       7.432  58.352 -21.997  1.00  0.00     0.048 C 
HETATM   10  C19         0       8.709  57.875 -21.735  1.00  0.00     0.096 C 
HETATM   11  C21         0       9.664  57.918 -22.714  1.00  0.00     0.084 C 
ENDROOT
BRANCH  10  12
HETATM   12  O20         0       9.133  57.755 -20.415  1.00  0.00    -0.359 OA
HETATM   13  H20         0       8.548  57.334 -19.796  1.00  0.00     0.218 HD
ENDBRANCH  10  12
BRANCH   4  14
HETATM   14  C5          0      12.335  58.370 -25.829  1.00  0.00     0.025 C 
HETATM   15  C6          0      13.001  59.585 -25.752  1.00  0.00     0.004 C 
HETATM   16  C7          0      14.308  59.634 -26.226  1.00  0.00     0.026 C 
HETATM   17  C8          0      14.889  58.552 -26.878  1.00  0.00     0.112 C 
HETATM   18  C10         0      13.985  57.669 -27.453  1.00  0.00     0.112 C 
HETATM   19  C12         0      12.711  57.577 -26.905  1.00  0.00     0.028 C 
BRANCH  17  20
HETATM   20  O9          0      16.243  58.296 -26.759  1.00  0.00    -0.357 OA
HETATM   21  H9          0      16.771  58.577 -26.020  1.00  0.00     0.218 HD
ENDBRANCH  17  20
BRANCH  18  22
HETATM   22  O11         0      14.509  56.679 -28.273  1.00  0.00    -0.357 OA
HETATM   23  H11         0      14.459  55.785 -27.954  1.00  0.00     0.218 HD
ENDBRANCH  18  22
ENDBRANCH   4  14
BRANCH   8  24
HETATM   24  O17         0       6.263  59.988 -23.373  1.00  0.00    -0.359 OA
HETATM   25  H17         0       6.581  60.880 -23.300  1.00  0.00     0.218 HD
ENDBRANCH   8  24
TORSDOF 5
ENDMDL
MODEL 2
REMARK VINA RESULT:      -5.3      3.353      5.974
REMARK  5 active torsions:
REMARK  status: ('A' for Active; 'I' for Inactive)
REMARK    1  A    between atoms: C4_4  and  C5_5 
REMARK    2  A    between atoms: C8_8  and  O9_9 
REMARK    3  A    between atoms: C10_11  and  O11_12 
REMARK    4  A    between atoms: C16_18  and  O17_19 
REMARK    5  A    between atoms: C19_22  and  O20_23 
ROOT
HETATM    1  O1          0      13.214  58.242 -21.963  1.00  0.00    -0.286 OA
HETATM    2  C2          0      12.135  57.588 -21.959  1.00  0.00     0.201 C 
HETATM    3  C3          0      11.226  57.633 -23.002  1.00  0.00     0.067 C 
HETATM    4  C4          0       9.999  56.984 -22.928  1.00  0.00     0.103 C 
HETATM    5  O13         0       9.711  56.293 -21.839  1.00  0.00    -0.307 OA
HETATM    6  C14         0      10.522  56.248 -20.805  1.00  0.00     0.107 C 
HETATM    7  C15         0      10.078  55.880 -19.543  1.00  0.00     0.049 C 
HETATM    8  C16         0      10.865  56.078 -18.415  1.00  0.00     0.093 C 
HETATM    9  C18         0      12.232  56.140 -18.657  1.00  0.00     0.048 C 
HETATM   10  C19         0      12.711  56.460 -19.920  1.00  0.00     0.096 C 
HETATM   11  C21         0      11.831  56.699 -20.939  1.00  0.00     0.084 C 
ENDROOT
BRANCH  10  12
HETATM   12  O20         0      14.010  56.940 -20.053  1.00  0.00    -0.359 OA
HETATM   13  H20         0      14.552  56.982 -19.274  1.00  0.00     0.218 HD
ENDBRANCH  10  12
BRANCH   4  14
HETATM   14  C5          0       8.901  57.535 -23.724  1.00  0.00     0.025 C 
HETATM   15  C6          0       7.636  56.965 -23.757  1.00  0.00     0.004 C 
HETATM   16  C7          0       6.543  57.824 -23.794  1.00  0.00     0.026 C 
HETATM   17  C8          0       6.699  59.199 -23.929  1.00  0.00     0.112 C 
HETATM   18  C10         0       7.897  59.592 -24.510  1.00  0.00     0.112 C 
HETATM   19  C12         0       8.998  58.752 -24.385  1.00  0.00     0.028 C 
BRANCH  17  20
HETATM   20  O9          0       5.813  60.075 -23.329  1.00  0.00    -0.357 OA
HETATM   21  H9          0       5.794  61.009 -23.503  1.00  0.00     0.218 HD
ENDBRANCH  17  20
BRANCH  18  22
HETATM   22  O11         0       8.026  60.933 -24.840  1.00  0.00    -0.357 OA
HETATM   23  H11         0       7.251  61.369 -25.177  1.00  0.00     0.218 HD
ENDBRANCH  18  22
ENDBRANCH   4  14
BRANCH   8  24
HETATM   24  O17         0      10.311  56.514 -17.206  1.00  0.00    -0.359 OA
HETATM   25  H17         0      10.760  56.392 -16.378  1.00  0.00     0.218 HD
ENDBRANCH   8  24
TORSDOF 5
ENDMDL
MODEL 3
REMARK VINA RESULT:      -5.3      4.140      6.987
REMARK  5 active torsions:
REMARK  status: ('A' for Active; 'I' for Inactive)
REMARK    1  A    between atoms: C4_4  and  C5_5 
REMARK    2  A    between atoms: C8_8  and  O9_9 
REMARK    3  A    between atoms: C10_11  and  O11_12 
REMARK    4  A    between atoms: C16_18  and  O17_19 
REMARK    5  A    between atoms: C19_22  and  O20_23 
ROOT
HETATM    1  O1          0       4.897  55.698 -18.806  1.00  0.00    -0.286 OA
HETATM    2  C2          0       4.727  56.587 -19.685  1.00  0.00     0.201 C 
HETATM    3  C3          0       5.657  56.852 -20.675  1.00  0.00     0.067 C 
HETATM    4  C4          0       5.491  57.905 -21.568  1.00  0.00     0.103 C 
HETATM    5  O13         0       4.406  58.652 -21.474  1.00  0.00    -0.307 OA
HETATM    6  C14         0       3.509  58.467 -20.530  1.00  0.00     0.107 C 
HETATM    7  C15         0       2.604  59.457 -20.177  1.00  0.00     0.049 C 
HETATM    8  C16         0       1.837  59.356 -19.023  1.00  0.00     0.093 C 
HETATM    9  C18         0       1.629  58.059 -18.568  1.00  0.00     0.048 C 
HETATM   10  C19         0       2.489  57.035 -18.940  1.00  0.00     0.096 C 
HETATM   11  C21         0       3.541  57.300 -19.774  1.00  0.00     0.084 C 
ENDROOT
BRANCH  10  12
HETATM   12  O20         0       2.545  55.880 -18.166  1.00  0.00    -0.359 OA
HETATM   13  H20         0       3.262  55.791 -17.550  1.00  0.00     0.218 HD
ENDBRANCH  10  12
BRANCH   4  14
HETATM   14  C5          0       6.703  58.491 -22.145  1.00  0.00     0.025 C 
HETATM   15  C6          0       7.980  58.095 -21.775  1.00  0.00     0.004 C 
HETATM   16  C7          0       8.947  58.022 -22.772  1.00  0.00     0.026 C 
HETATM   17  C8          0       8.691  58.457 -24.068  1.00  0.00     0.112 C 
HETATM   18  C10         0       7.665  59.385 -24.177  1.00  0.00     0.112 C 
HETATM   19  C12         0       6.665  59.380 -23.212  1.00  0.00     0.028 C 
BRANCH  17  20
HETATM   20  O9          0       9.284  57.836 -25.154  1.00  0.00    -0.357 OA
HETATM   21  H9          0       9.101  58.065 -26.058  1.00  0.00     0.218 HD
ENDBRANCH  17  20
BRANCH  18  22
HETATM   22  O11         0       7.493  59.991 -25.413  1.00  0.00    -0.357 OA
HETATM   23  H11         0       6.814  60.653 -25.478  1.00  0.00     0.218 HD
ENDBRANCH  18  22
ENDBRANCH   4  14
BRANCH   8  24
HETATM   24  O17         0       1.592  60.469 -18.210  1.00  0.00    -0.359 OA
HETATM   25  H17         0       1.798  60.465 -17.283  1.00  0.00     0.218 HD
ENDBRANCH   8  24
TORSDOF 5
ENDMDL
MODEL 4
REMARK VINA RESULT:      -5.2      3.114      5.461
REMARK  5 active torsions:
REMARK  status: ('A' for Active; 'I' for Inactive)
REMARK    1  A    between atoms: C4_4  and  C5_5 
REMARK    2  A    between atoms: C8_8  and  O9_9 
REMARK    3  A    between atoms: C10_11  and  O11_12 
REMARK    4  A    between atoms: C16_18  and  O17_19 
REMARK    5  A    between atoms: C19_22  and  O20_23 
ROOT
HETATM    1  O1          0       5.051  58.847 -24.199  1.00  0.00    -0.286 OA
HETATM    2  C2          0       5.777  58.620 -23.192  1.00  0.00     0.201 C 
HETATM    3  C3          0       7.159  58.694 -23.232  1.00  0.00     0.067 C 
HETATM    4  C4          0       7.939  58.339 -22.137  1.00  0.00     0.103 C 
HETATM    5  O13         0       7.336  57.943 -21.030  1.00  0.00    -0.307 OA
HETATM    6  C14         0       6.029  57.819 -20.951  1.00  0.00     0.107 C 
HETATM    7  C15         0       5.426  57.045 -19.971  1.00  0.00     0.049 C 
HETATM    8  C16         0       4.079  56.711 -20.042  1.00  0.00     0.093 C 
HETATM    9  C18         0       3.296  57.585 -20.787  1.00  0.00     0.048 C 
HETATM   10  C19         0       3.874  58.408 -21.744  1.00  0.00     0.096 C 
HETATM   11  C21         0       5.227  58.371 -21.944  1.00  0.00     0.084 C 
ENDROOT
BRANCH  10  12
HETATM   12  O20         0       3.079  58.936 -22.756  1.00  0.00    -0.359 OA
HETATM   13  H20         0       2.141  58.971 -22.613  1.00  0.00     0.218 HD
ENDBRANCH  10  12
BRANCH   4  14
HETATM   14  C5          0       9.298  57.866 -22.408  1.00  0.00     0.025 C 
HETATM   15  C6          0       9.934  58.065 -23.624  1.00  0.00     0.004 C 
HETATM   16  C7          0      11.294  58.356 -23.600  1.00  0.00     0.026 C 
HETATM   17  C8          0      12.027  58.320 -22.419  1.00  0.00     0.112 C 
HETATM   18  C10         0      11.480  57.523 -21.422  1.00  0.00     0.112 C 
HETATM   19  C12         0      10.106  57.318 -21.421  1.00  0.00     0.028 C 
BRANCH  17  20
HETATM   20  O9          0      13.089  59.184 -22.216  1.00  0.00    -0.357 OA
HETATM   21  H9          0      13.969  58.897 -22.000  1.00  0.00     0.218 HD
ENDBRANCH  17  20
BRANCH  18  22
HETATM   22  O11         0      12.261  57.301 -20.296  1.00  0.00    -0.357 OA
HETATM   23  H11         0      11.806  57.048 -19.501  1.00  0.00     0.218 HD
ENDBRANCH  18  22
ENDBRANCH   4  14
BRANCH   8  24
HETATM   24  O17         0       3.623  55.437 -19.686  1.00  0.00    -0.359 OA
HETATM   25  H17         0       4.222  54.710 -19.559  1.00  0.00     0.218 HD
ENDBRANCH   8  24
TORSDOF 5
ENDMDL
MODEL 5
REMARK VINA RESULT:      -5.1      3.117      7.947
REMARK  5 active torsions:
REMARK  status: ('A' for Active; 'I' for Inactive)
REMARK    1  A    between atoms: C4_4  and  C5_5 
REMARK    2  A    between atoms: C8_8  and  O9_9 
REMARK    3  A    between atoms: C10_11  and  O11_12 
REMARK    4  A    between atoms: C16_18  and  O17_19 
REMARK    5  A    between atoms: C19_22  and  O20_23 
ROOT
HETATM    1  O1          0       8.443  60.293 -24.745  1.00  0.00    -0.286 OA
HETATM    2  C2          0       8.205  59.231 -24.108  1.00  0.00     0.201 C 
HETATM    3  C3          0       6.925  58.736 -23.924  1.00  0.00     0.067 C 
HETATM    4  C4          0       6.682  57.620 -23.131  1.00  0.00     0.103 C 
HETATM    5  O13         0       7.707  57.012 -22.560  1.00  0.00    -0.307 OA
HETATM    6  C14         0       8.937  57.463 -22.670  1.00  0.00     0.107 C 
HETATM    7  C15         0       9.934  57.092 -21.780  1.00  0.00     0.049 C 
HETATM    8  C16         0      11.154  57.757 -21.743  1.00  0.00     0.093 C 
HETATM    9  C18         0      11.509  58.396 -22.926  1.00  0.00     0.048 C 
HETATM   10  C19         0      10.542  58.739 -23.860  1.00  0.00     0.096 C 
HETATM   11  C21         0       9.230  58.432 -23.624  1.00  0.00     0.084 C 
ENDROOT
BRANCH  10  12
HETATM   12  O20         0      10.821  59.731 -24.796  1.00  0.00    -0.359 OA
HETATM   13  H20         0      10.928  60.621 -24.482  1.00  0.00     0.218 HD
ENDBRANCH  10  12
BRANCH   4  14
HETATM   14  C5          0       5.363  57.519 -22.505  1.00  0.00     0.025 C 
HETATM   15  C6          0       5.185  57.128 -21.185  1.00  0.00     0.004 C 
HETATM   16  C7          0       4.193  57.770 -20.451  1.00  0.00     0.026 C 
HETATM   17  C8          0       3.317  58.674 -21.043  1.00  0.00     0.112 C 
HETATM   18  C10         0       3.161  58.517 -22.413  1.00  0.00     0.112 C 
HETATM   19  C12         0       4.203  57.949 -23.136  1.00  0.00     0.028 C 
BRANCH  17  20
HETATM   20  O9          0       2.829  59.756 -20.332  1.00  0.00    -0.357 OA
HETATM   21  H9          0       1.988  59.761 -19.889  1.00  0.00     0.218 HD
ENDBRANCH  17  20
BRANCH  18  22
HETATM   22  O11         0       2.162  59.264 -23.021  1.00  0.00    -0.357 OA
HETATM   23  H11         0       1.521  58.787 -23.536  1.00  0.00     0.218 HD
ENDBRANCH  18  22
ENDBRANCH   4  14
BRANCH   8  24
HETATM   24  O17         0      11.793  58.043 -20.532  1.00  0.00    -0.359 OA
HETATM   25  H17         0      12.271  57.378 -20.051  1.00  0.00     0.218 HD
ENDBRANCH   8  24
TORSDOF 5
ENDMDL
MODEL 6
REMARK VINA RESULT:      -5.1      4.357      9.605
REMARK  5 active torsions:
REMARK  status: ('A' for Active; 'I' for Inactive)
REMARK    1  A    between atoms: C4_4  and  C5_5 
REMARK    2  A    between atoms: C8_8  and  O9_9 
REMARK    3  A    between atoms: C10_11  and  O11_12 
REMARK    4  A    between atoms: C16_18  and  O17_19 
REMARK    5  A    between atoms: C19_22  and  O20_23 
ROOT
HETATM    1  O1          0       7.412  55.699 -21.090  1.00  0.00    -0.286 OA
HETATM    2  C2          0       6.779  56.788 -21.161  1.00  0.00     0.201 C 
HETATM    3  C3          0       5.661  57.058 -20.390  1.00  0.00     0.067 C 
HETATM    4  C4          0       4.922  58.223 -20.561  1.00  0.00     0.103 C 
HETATM    5  O13         0       5.316  59.097 -21.471  1.00  0.00    -0.307 OA
HETATM    6  C14         0       6.348  58.873 -22.255  1.00  0.00     0.107 C 
HETATM    7  C15         0       6.526  59.564 -23.444  1.00  0.00     0.049 C 
HETATM    8  C16         0       7.463  59.154 -24.384  1.00  0.00     0.093 C 
HETATM    9  C18         0       8.519  58.409 -23.873  1.00  0.00     0.048 C 
HETATM   10  C19         0       8.391  57.742 -22.662  1.00  0.00     0.096 C 
HETATM   11  C21         0       7.222  57.833 -21.957  1.00  0.00     0.084 C 
ENDROOT
BRANCH  10  12
HETATM   12  O20         0       9.245  56.681 -22.376  1.00  0.00    -0.359 OA
HETATM   13  H20         0       9.494  56.541 -21.471  1.00  0.00     0.218 HD
ENDBRANCH  10  12
BRANCH   4  14
HETATM   14  C5          0       3.505  58.177 -20.195  1.00  0.00     0.025 C 
HETATM   15  C6          0       2.839  56.993 -19.915  1.00  0.00     0.004 C 
HETATM   16  C7          0       1.901  57.009 -18.887  1.00  0.00     0.026 C 
HETATM   17  C8          0       1.539  58.190 -18.248  1.00  0.00     0.112 C 
HETATM   18  C10         0       1.759  59.342 -18.991  1.00  0.00     0.112 C 
HETATM   19  C12         0       2.761  59.325 -19.955  1.00  0.00     0.028 C 
BRANCH  17  20
HETATM   20  O9          0       1.194  58.194 -16.909  1.00  0.00    -0.357 OA
HETATM   21  H9          0       0.579  57.582 -16.520  1.00  0.00     0.218 HD
ENDBRANCH  17  20
BRANCH  18  22
HETATM   22  O11         0       1.245  60.526 -18.483  1.00  0.00    -0.357 OA
HETATM   23  H11         0       1.341  61.303 -19.021  1.00  0.00     0.218 HD
ENDBRANCH  18  22
ENDBRANCH   4  14
BRANCH   8  24
HETATM   24  O17         0       7.187  59.195 -25.756  1.00  0.00    -0.359 OA
HETATM   25  H17         0       6.682  59.900 -26.142  1.00  0.00     0.218 HD
ENDBRANCH   8  24
TORSDOF 5
ENDMDL
MODEL 7
REMARK VINA RESULT:      -5.0      7.321     10.242
REMARK  5 active torsions:
REMARK  status: ('A' for Active; 'I' for Inactive)
REMARK    1  A    between atoms: C4_4  and  C5_5 
REMARK    2  A    between atoms: C8_8  and  O9_9 
REMARK    3  A    between atoms: C10_11  and  O11_12 
REMARK    4  A    between atoms: C16_18  and  O17_19 
REMARK    5  A    between atoms: C19_22  and  O20_23 
ROOT
HETATM    1  O1          0      10.278  56.489 -17.153  1.00  0.00    -0.286 OA
HETATM    2  C2          0      11.346  55.819 -17.181  1.00  0.00     0.201 C 
HETATM    3  C3          0      11.844  55.153 -16.074  1.00  0.00     0.067 C 
HETATM    4  C4          0      13.075  54.507 -16.105  1.00  0.00     0.103 C 
HETATM    5  O13         0      13.770  54.519 -17.229  1.00  0.00    -0.307 OA
HETATM    6  C14         0      13.361  55.168 -18.297  1.00  0.00     0.107 C 
HETATM    7  C15         0      14.233  55.521 -19.316  1.00  0.00     0.049 C 
HETATM    8  C16         0      13.858  56.418 -20.309  1.00  0.00     0.093 C 
HETATM    9  C18         0      12.489  56.507 -20.532  1.00  0.00     0.048 C 
HETATM   10  C19         0      11.588  56.119 -19.551  1.00  0.00     0.096 C 
HETATM   11  C21         0      12.050  55.628 -18.360  1.00  0.00     0.084 C 
ENDROOT
BRANCH  10  12
HETATM   12  O20         0      10.284  56.603 -19.595  1.00  0.00    -0.359 OA
HETATM   13  H20         0       9.594  56.002 -19.849  1.00  0.00     0.218 HD
ENDBRANCH  10  12
BRANCH   4  14
HETATM   14  C5          0      13.790  54.369 -14.835  1.00  0.00     0.025 C 
HETATM   15  C6          0      14.935  53.598 -14.697  1.00  0.00     0.004 C 
HETATM   16  C7          0      15.944  54.083 -13.871  1.00  0.00     0.026 C 
HETATM   17  C8          0      15.768  55.228 -13.102  1.00  0.00     0.112 C 
HETATM   18  C10         0      14.445  55.542 -12.823  1.00  0.00     0.112 C 
HETATM   19  C12         0      13.464  55.117 -13.711  1.00  0.00     0.028 C 
BRANCH  17  20
HETATM   20  O9          0      16.831  56.074 -12.837  1.00  0.00    -0.357 OA
HETATM   21  H9          0      16.734  56.942 -12.461  1.00  0.00     0.218 HD
ENDBRANCH  17  20
BRANCH  18  22
HETATM   22  O11         0      14.220  56.560 -11.907  1.00  0.00    -0.357 OA
HETATM   23  H11         0      13.848  56.310 -11.069  1.00  0.00     0.218 HD
ENDBRANCH  18  22
ENDBRANCH   4  14
BRANCH   8  24
HETATM   24  O17         0      14.747  57.383 -20.794  1.00  0.00    -0.359 OA
HETATM   25  H17         0      14.483  58.024 -21.443  1.00  0.00     0.218 HD
ENDBRANCH   8  24
TORSDOF 5
ENDMDL
MODEL 8
REMARK VINA RESULT:      -4.8      3.602      6.872
REMARK  5 active torsions:
REMARK  status: ('A' for Active; 'I' for Inactive)
REMARK    1  A    between atoms: C4_4  and  C5_5 
REMARK    2  A    between atoms: C8_8  and  O9_9 
REMARK    3  A    between atoms: C10_11  and  O11_12 
REMARK    4  A    between atoms: C16_18  and  O17_19 
REMARK    5  A    between atoms: C19_22  and  O20_23 
ROOT
HETATM    1  O1          0      13.039  57.596 -23.443  1.00  0.00    -0.286 OA
HETATM    2  C2          0      12.205  57.587 -22.497  1.00  0.00     0.201 C 
HETATM    3  C3          0      12.506  57.104 -21.235  1.00  0.00     0.067 C 
HETATM    4  C4          0      11.539  57.011 -20.240  1.00  0.00     0.103 C 
HETATM    5  O13         0      10.310  57.415 -20.510  1.00  0.00    -0.307 OA
HETATM    6  C14         0       9.962  57.847 -21.702  1.00  0.00     0.107 C 
HETATM    7  C15         0       8.635  57.889 -22.105  1.00  0.00     0.049 C 
HETATM    8  C16         0       8.292  58.100 -23.435  1.00  0.00     0.093 C 
HETATM    9  C18         0       9.247  58.771 -24.189  1.00  0.00     0.048 C 
HETATM   10  C19         0      10.576  58.788 -23.789  1.00  0.00     0.096 C 
HETATM   11  C21         0      10.947  58.154 -22.635  1.00  0.00     0.084 C 
ENDROOT
BRANCH  10  12
HETATM   12  O20         0      11.565  59.064 -24.728  1.00  0.00    -0.359 OA
HETATM   13  H20         0      12.464  59.114 -24.427  1.00  0.00     0.218 HD
ENDBRANCH  10  12
BRANCH   4  14
HETATM   14  C5          0      11.735  55.990 -19.209  1.00  0.00     0.025 C 
HETATM   15  C6          0      12.960  55.764 -18.598  1.00  0.00     0.004 C 
HETATM   16  C7          0      12.958  55.468 -17.239  1.00  0.00     0.026 C 
HETATM   17  C8          0      11.773  55.269 -16.538  1.00  0.00     0.112 C 
HETATM   18  C10         0      10.691  54.893 -17.322  1.00  0.00     0.112 C 
HETATM   19  C12         0      10.679  55.276 -18.658  1.00  0.00     0.028 C 
BRANCH  17  20
HETATM   20  O9          0      11.668  55.634 -15.207  1.00  0.00    -0.357 OA
HETATM   21  H9          0      12.403  55.924 -14.680  1.00  0.00     0.218 HD
ENDBRANCH  17  20
BRANCH  18  22
HETATM   22  O11         0       9.539  54.500 -16.657  1.00  0.00    -0.357 OA
HETATM   23  H11         0       9.006  53.834 -17.075  1.00  0.00     0.218 HD
ENDBRANCH  18  22
ENDBRANCH   4  14
BRANCH   8  24
HETATM   24  O17         0       7.238  57.402 -24.035  1.00  0.00    -0.359 OA
HETATM   25  H17         0       6.346  57.475 -23.718  1.00  0.00     0.218 HD
ENDBRANCH   8  24
TORSDOF 5
ENDMDL
MODEL 9
REMARK VINA RESULT:      -4.7      3.086      4.577
REMARK  5 active torsions:
REMARK  status: ('A' for Active; 'I' for Inactive)
REMARK    1  A    between atoms: C4_4  and  C5_5 
REMARK    2  A    between atoms: C8_8  and  O9_9 
REMARK    3  A    between atoms: C10_11  and  O11_12 
REMARK    4  A    between atoms: C16_18  and  O17_19 
REMARK    5  A    between atoms: C19_22  and  O20_23 
ROOT
HETATM    1  O1          0       5.715  56.577 -25.784  1.00  0.00    -0.286 OA
HETATM    2  C2          0       6.359  57.433 -25.118  1.00  0.00     0.201 C 
HETATM    3  C3          0       7.700  57.701 -25.337  1.00  0.00     0.067 C 
HETATM    4  C4          0       8.411  58.573 -24.521  1.00  0.00     0.103 C 
HETATM    5  O13         0       7.779  59.171 -23.527  1.00  0.00    -0.307 OA
HETATM    6  C14         0       6.516  58.924 -23.252  1.00  0.00     0.107 C 
HETATM    7  C15         0       5.967  59.220 -22.013  1.00  0.00     0.049 C 
HETATM    8  C16         0       4.720  58.731 -21.642  1.00  0.00     0.093 C 
HETATM    9  C18         0       3.872  58.420 -22.699  1.00  0.00     0.048 C 
HETATM   10  C19         0       4.386  58.165 -23.963  1.00  0.00     0.096 C 
HETATM   11  C21         0       5.736  58.236 -24.174  1.00  0.00     0.084 C 
ENDROOT
BRANCH  10  12
HETATM   12  O20         0       3.619  57.449 -24.876  1.00  0.00    -0.359 OA
HETATM   13  H20         0       2.725  57.732 -25.026  1.00  0.00     0.218 HD
ENDBRANCH  10  12
BRANCH   4  14
HETATM   14  C5          0       9.855  58.358 -24.409  1.00  0.00     0.025 C 
HETATM   15  C6          0      10.784  59.364 -24.630  1.00  0.00     0.004 C 
HETATM   16  C7          0      11.906  59.398 -23.807  1.00  0.00     0.026 C 
HETATM   17  C8          0      12.164  58.390 -22.885  1.00  0.00     0.112 C 
HETATM   18  C10         0      11.564  57.171 -23.174  1.00  0.00     0.112 C 
HETATM   19  C12         0      10.396  57.173 -23.928  1.00  0.00     0.028 C 
BRANCH  17  20
HETATM   20  O9          0      12.792  58.671 -21.684  1.00  0.00    -0.357 OA
HETATM   21  H9          0      12.448  58.416 -20.836  1.00  0.00     0.218 HD
ENDBRANCH  17  20
BRANCH  18  22
HETATM   22  O11         0      11.939  56.086 -22.395  1.00  0.00    -0.357 OA
HETATM   23  H11         0      11.375  55.321 -22.424  1.00  0.00     0.218 HD
ENDBRANCH  18  22
ENDBRANCH   4  14
BRANCH   8  24
HETATM   24  O17         0       4.473  58.274 -20.342  1.00  0.00    -0.359 OA
HETATM   25  H17         0       3.631  58.397 -19.921  1.00  0.00     0.218 HD
ENDBRANCH   8  24
TORSDOF 5
ENDMDL
