MODEL 1
REMARK VINA RESULT:      -1.2      0.000      0.000
REMARK  5 active torsions:
REMARK  status: ('A' for Active; 'I' for Inactive)
REMARK    1  A    between atoms: C4_4  and  C5_5 
REMARK    2  A    between atoms: C8_8  and  O9_9 
REMARK    3  A    between atoms: C10_11  and  O11_12 
REMARK    4  A    between atoms: C16_18  and  O17_19 
REMARK    5  A    between atoms: C19_22  and  O20_23 
ROOT
HETATM    1  O1          0      57.726  99.880 -33.535  1.00  0.00    -0.286 OA
HETATM    2  C2          0      56.654 100.437 -33.171  1.00  0.00     0.201 C 
HETATM    3  C3          0      56.334 100.652 -31.841  1.00  0.00     0.067 C 
HETATM    4  C4          0      55.102 101.174 -31.463  1.00  0.00     0.103 C 
HETATM    5  O13         0      54.230 101.488 -32.405  1.00  0.00    -0.307 OA
HETATM    6  C14         0      54.469 101.270 -33.680  1.00  0.00     0.107 C 
HETATM    7  C15         0      53.446 101.216 -34.616  1.00  0.00     0.049 C 
HETATM    8  C16         0      53.670 100.737 -35.902  1.00  0.00     0.093 C 
HETATM    9  C18         0      54.984 100.832 -36.343  1.00  0.00     0.048 C 
HETATM   10  C19         0      56.028 100.935 -35.434  1.00  0.00     0.096 C 
HETATM   11  C21         0      55.760 100.960 -34.093  1.00  0.00     0.084 C 
ENDROOT
BRANCH  10  12
HETATM   12  O20         0      57.316 100.595 -35.836  1.00  0.00    -0.359 OA
HETATM   13  H20         0      58.014 101.216 -35.665  1.00  0.00     0.218 HD
ENDBRANCH  10  12
BRANCH   4  14
HETATM   14  C5          0      54.605 100.822 -30.132  1.00  0.00     0.025 C 
HETATM   15  C6          0      55.169 101.314 -28.964  1.00  0.00     0.004 C 
HETATM   16  C7          0      54.309 101.638 -27.920  1.00  0.00     0.026 C 
HETATM   17  C8          0      52.948 101.358 -27.982  1.00  0.00     0.112 C 
HETATM   18  C10         0      52.606 100.337 -28.858  1.00  0.00     0.112 C 
HETATM   19  C12         0      53.440 100.090 -29.942  1.00  0.00     0.028 C 
BRANCH  17  20
HETATM   20  O9          0      52.025 102.188 -27.371  1.00  0.00    -0.357 OA
HETATM   21  H9          0      51.203 101.884 -27.004  1.00  0.00     0.218 HD
ENDBRANCH  17  20
BRANCH  18  22
HETATM   22  O11         0      51.293  99.890 -28.820  1.00  0.00    -0.357 OA
HETATM   23  H11         0      50.622 100.539 -28.643  1.00  0.00     0.218 HD
ENDBRANCH  18  22
ENDBRANCH   4  14
BRANCH   8  24
HETATM   24  O17         0      52.732  99.926 -36.551  1.00  0.00    -0.359 OA
HETATM   25  H17         0      51.909  99.688 -36.141  1.00  0.00     0.218 HD
ENDBRANCH   8  24
TORSDOF 5
ENDMDL
MODEL 2
REMARK VINA RESULT:      -1.0      2.127      2.964
REMARK  5 active torsions:
REMARK  status: ('A' for Active; 'I' for Inactive)
REMARK    1  A    between atoms: C4_4  and  C5_5 
REMARK    2  A    between atoms: C8_8  and  O9_9 
REMARK    3  A    between atoms: C10_11  and  O11_12 
REMARK    4  A    between atoms: C16_18  and  O17_19 
REMARK    5  A    between atoms: C19_22  and  O20_23 
ROOT
HETATM    1  O1          0      57.902 103.548 -32.481  1.00  0.00    -0.286 OA
HETATM    2  C2          0      57.003 102.842 -33.015  1.00  0.00     0.201 C 
HETATM    3  C3          0      55.931 102.329 -32.305  1.00  0.00     0.067 C 
HETATM    4  C4          0      55.011 101.470 -32.895  1.00  0.00     0.103 C 
HETATM    5  O13         0      55.161 101.158 -34.170  1.00  0.00    -0.307 OA
HETATM    6  C14         0      56.181 101.588 -34.880  1.00  0.00     0.107 C 
HETATM    7  C15         0      56.564 100.967 -36.060  1.00  0.00     0.049 C 
HETATM    8  C16         0      57.780 101.258 -36.667  1.00  0.00     0.093 C 
HETATM    9  C18         0      58.303 102.508 -36.363  1.00  0.00     0.048 C 
HETATM   10  C19         0      57.907 103.179 -35.213  1.00  0.00     0.096 C 
HETATM   11  C21         0      56.981 102.611 -34.382  1.00  0.00     0.084 C 
ENDROOT
BRANCH  10  12
HETATM   12  O20         0      58.722 104.181 -34.695  1.00  0.00    -0.359 OA
HETATM   13  H20         0      59.560 103.927 -34.327  1.00  0.00     0.218 HD
ENDBRANCH  10  12
BRANCH   4  14
HETATM   14  C5          0      54.315 100.529 -32.016  1.00  0.00     0.025 C 
HETATM   15  C6          0      54.865 100.055 -30.834  1.00  0.00     0.004 C 
HETATM   16  C7          0      54.013  99.891 -29.747  1.00  0.00     0.026 C 
HETATM   17  C8          0      52.638 100.061 -29.865  1.00  0.00     0.112 C 
HETATM   18  C10         0      52.143  99.903 -31.152  1.00  0.00     0.112 C 
HETATM   19  C12         0      52.993 100.156 -32.223  1.00  0.00     0.028 C 
BRANCH  17  20
HETATM   20  O9          0      51.892 100.557 -28.811  1.00  0.00    -0.357 OA
HETATM   21  H9          0      51.555 101.445 -28.773  1.00  0.00     0.218 HD
ENDBRANCH  17  20
BRANCH  18  22
HETATM   22  O11         0      50.763  99.875 -31.296  1.00  0.00    -0.357 OA
HETATM   23  H11         0      50.350 100.660 -31.637  1.00  0.00     0.218 HD
ENDBRANCH  18  22
ENDBRANCH   4  14
BRANCH   8  24
HETATM   24  O17         0      58.561 100.255 -37.251  1.00  0.00    -0.359 OA
HETATM   25  H17         0      58.362  99.334 -37.131  1.00  0.00     0.218 HD
ENDBRANCH   8  24
TORSDOF 5
ENDMDL
MODEL 3
REMARK VINA RESULT:      -1.0      2.373      5.632
REMARK  5 active torsions:
REMARK  status: ('A' for Active; 'I' for Inactive)
REMARK    1  A    between atoms: C4_4  and  C5_5 
REMARK    2  A    between atoms: C8_8  and  O9_9 
REMARK    3  A    between atoms: C10_11  and  O11_12 
REMARK    4  A    between atoms: C16_18  and  O17_19 
REMARK    5  A    between atoms: C19_22  and  O20_23 
ROOT
HETATM    1  O1          0      53.384 100.408 -28.822  1.00  0.00    -0.286 OA
HETATM    2  C2          0      53.597 100.183 -30.045  1.00  0.00     0.201 C 
HETATM    3  C3          0      54.869 100.021 -30.568  1.00  0.00     0.067 C 
HETATM    4  C4          0      55.082  99.877 -31.934  1.00  0.00     0.103 C 
HETATM    5  O13         0      54.036  99.875 -32.743  1.00  0.00    -0.307 OA
HETATM    6  C14         0      52.812 100.062 -32.302  1.00  0.00     0.107 C 
HETATM    7  C15         0      51.784 100.456 -33.146  1.00  0.00     0.049 C 
HETATM    8  C16         0      50.565 100.896 -32.643  1.00  0.00     0.093 C 
HETATM    9  C18         0      50.252 100.430 -31.372  1.00  0.00     0.048 C 
HETATM   10  C19         0      51.252  99.984 -30.518  1.00  0.00     0.096 C 
HETATM   11  C21         0      52.554  99.988 -30.937  1.00  0.00     0.084 C 
ENDROOT
BRANCH  10  12
HETATM   12  O20         0      51.007  99.939 -29.149  1.00  0.00    -0.359 OA
HETATM   13  H20         0      50.790 100.752 -28.709  1.00  0.00     0.218 HD
ENDBRANCH  10  12
BRANCH   4  14
HETATM   14  C5          0      56.378 100.309 -32.459  1.00  0.00     0.025 C 
HETATM   15  C6          0      56.510 101.029 -33.638  1.00  0.00     0.004 C 
HETATM   16  C7          0      57.474 102.031 -33.676  1.00  0.00     0.026 C 
HETATM   17  C8          0      58.369 102.224 -32.629  1.00  0.00     0.112 C 
HETATM   18  C10         0      58.574 101.107 -31.829  1.00  0.00     0.112 C 
HETATM   19  C12         0      57.558 100.162 -31.742  1.00  0.00     0.028 C 
BRANCH  17  20
HETATM   20  O9          0      58.830 103.489 -32.314  1.00  0.00    -0.357 OA
HETATM   21  H9          0      58.507 104.002 -31.581  1.00  0.00     0.218 HD
ENDBRANCH  17  20
BRANCH  18  22
HETATM   22  O11         0      59.592 101.185 -30.890  1.00  0.00    -0.357 OA
HETATM   23  H11         0      60.454 101.425 -31.210  1.00  0.00     0.218 HD
ENDBRANCH  18  22
ENDBRANCH   4  14
BRANCH   8  24
HETATM   24  O17         0      49.885 101.975 -33.219  1.00  0.00    -0.359 OA
HETATM   25  H17         0      49.837 102.821 -32.790  1.00  0.00     0.218 HD
ENDBRANCH   8  24
TORSDOF 5
ENDMDL
MODEL 4
REMARK VINA RESULT:      -1.0      2.392      4.128
REMARK  5 active torsions:
REMARK  status: ('A' for Active; 'I' for Inactive)
REMARK    1  A    between atoms: C4_4  and  C5_5 
REMARK    2  A    between atoms: C8_8  and  O9_9 
REMARK    3  A    between atoms: C10_11  and  O11_12 
REMARK    4  A    between atoms: C16_18  and  O17_19 
REMARK    5  A    between atoms: C19_22  and  O20_23 
ROOT
HETATM    1  O1          0      55.689 100.041 -34.023  1.00  0.00    -0.286 OA
HETATM    2  C2          0      55.366 100.109 -32.806  1.00  0.00     0.201 C 
HETATM    3  C3          0      54.078  99.876 -32.357  1.00  0.00     0.067 C 
HETATM    4  C4          0      53.726 100.058 -31.024  1.00  0.00     0.103 C 
HETATM    5  O13         0      54.656 100.444 -30.169  1.00  0.00    -0.307 OA
HETATM    6  C14         0      55.886 100.715 -30.549  1.00  0.00     0.107 C 
HETATM    7  C15         0      56.739 101.485 -29.771  1.00  0.00     0.049 C 
HETATM    8  C16         0      57.933 101.979 -30.282  1.00  0.00     0.093 C 
HETATM    9  C18         0      58.459 101.258 -31.347  1.00  0.00     0.048 C 
HETATM   10  C19         0      57.642 100.442 -32.118  1.00  0.00     0.096 C 
HETATM   11  C21         0      56.312 100.333 -31.817  1.00  0.00     0.084 C 
ENDROOT
BRANCH  10  12
HETATM   12  O20         0      58.053 100.084 -33.399  1.00  0.00    -0.359 OA
HETATM   13  H20         0      58.317 100.778 -33.991  1.00  0.00     0.218 HD
ENDBRANCH  10  12
BRANCH   4  14
HETATM   14  C5          0      52.327 100.385 -30.739  1.00  0.00     0.025 C 
HETATM   15  C6          0      51.658  99.914 -29.619  1.00  0.00     0.004 C 
HETATM   16  C7          0      50.771 100.779 -28.987  1.00  0.00     0.026 C 
HETATM   17  C8          0      50.457 102.023 -29.525  1.00  0.00     0.112 C 
HETATM   18  C10         0      50.658 102.129 -30.894  1.00  0.00     0.112 C 
HETATM   19  C12         0      51.612 101.311 -31.487  1.00  0.00     0.028 C 
BRANCH  17  20
HETATM   20  O9          0      50.176 103.100 -28.703  1.00  0.00    -0.357 OA
HETATM   21  H9          0      50.759 103.408 -28.019  1.00  0.00     0.218 HD
ENDBRANCH  17  20
BRANCH  18  22
HETATM   22  O11         0      50.185 103.279 -31.511  1.00  0.00    -0.357 OA
HETATM   23  H11         0      50.686 103.608 -32.249  1.00  0.00     0.218 HD
ENDBRANCH  18  22
ENDBRANCH   4  14
BRANCH   8  24
HETATM   24  O17         0      58.378 103.270 -29.976  1.00  0.00    -0.359 OA
HETATM   25  H17         0      58.500 103.556 -29.078  1.00  0.00     0.218 HD
ENDBRANCH   8  24
TORSDOF 5
ENDMDL
MODEL 5
REMARK VINA RESULT:      -1.0      2.133      6.477
REMARK  5 active torsions:
REMARK  status: ('A' for Active; 'I' for Inactive)
REMARK    1  A    between atoms: C4_4  and  C5_5 
REMARK    2  A    between atoms: C8_8  and  O9_9 
REMARK    3  A    between atoms: C10_11  and  O11_12 
REMARK    4  A    between atoms: C16_18  and  O17_19 
REMARK    5  A    between atoms: C19_22  and  O20_23 
ROOT
HETATM    1  O1          0      53.994 104.510 -28.833  1.00  0.00    -0.286 OA
HETATM    2  C2          0      54.416 103.413 -29.290  1.00  0.00     0.201 C 
HETATM    3  C3          0      55.592 103.303 -30.011  1.00  0.00     0.067 C 
HETATM    4  C4          0      55.982 102.101 -30.590  1.00  0.00     0.103 C 
HETATM    5  O13         0      55.214 101.038 -30.425  1.00  0.00    -0.307 OA
HETATM    6  C14         0      54.069 101.096 -29.781  1.00  0.00     0.107 C 
HETATM    7  C15         0      53.090 100.126 -29.941  1.00  0.00     0.049 C 
HETATM    8  C16         0      51.799 100.319 -29.466  1.00  0.00     0.093 C 
HETATM    9  C18         0      51.689 101.220 -28.414  1.00  0.00     0.048 C 
HETATM   10  C19         0      52.673 102.174 -28.197  1.00  0.00     0.096 C 
HETATM   11  C21         0      53.769 102.217 -29.015  1.00  0.00     0.084 C 
ENDROOT
BRANCH  10  12
HETATM   12  O20         0      52.366 103.312 -27.457  1.00  0.00    -0.359 OA
HETATM   13  H20         0      52.369 104.149 -27.906  1.00  0.00     0.218 HD
ENDBRANCH  10  12
BRANCH   4  14
HETATM   14  C5          0      56.837 102.175 -31.776  1.00  0.00     0.025 C 
HETATM   15  C6          0      58.172 102.549 -31.719  1.00  0.00     0.004 C 
HETATM   16  C7          0      59.064 101.884 -32.554  1.00  0.00     0.026 C 
HETATM   17  C8          0      58.629 100.972 -33.509  1.00  0.00     0.112 C 
HETATM   18  C10         0      57.311 101.140 -33.912  1.00  0.00     0.112 C 
HETATM   19  C12         0      56.419 101.731 -33.025  1.00  0.00     0.028 C 
BRANCH  17  20
HETATM   20  O9          0      59.401  99.875 -33.846  1.00  0.00    -0.357 OA
HETATM   21  H9          0      59.281  99.369 -34.641  1.00  0.00     0.218 HD
ENDBRANCH  17  20
BRANCH  18  22
HETATM   22  O11         0      56.883 100.383 -34.993  1.00  0.00    -0.357 OA
HETATM   23  H11         0      56.830 100.825 -35.833  1.00  0.00     0.218 HD
ENDBRANCH  18  22
ENDBRANCH   4  14
BRANCH   8  24
HETATM   24  O17         0      50.682  99.906 -30.202  1.00  0.00    -0.359 OA
HETATM   25  H17         0      50.058 100.530 -30.554  1.00  0.00     0.218 HD
ENDBRANCH   8  24
TORSDOF 5
ENDMDL
MODEL 6
REMARK VINA RESULT:      -1.0      2.147      3.084
REMARK  5 active torsions:
REMARK  status: ('A' for Active; 'I' for Inactive)
REMARK    1  A    between atoms: C4_4  and  C5_5 
REMARK    2  A    between atoms: C8_8  and  O9_9 
REMARK    3  A    between atoms: C10_11  and  O11_12 
REMARK    4  A    between atoms: C16_18  and  O17_19 
REMARK    5  A    between atoms: C19_22  and  O20_23 
ROOT
HETATM    1  O1          0      56.667 104.149 -31.320  1.00  0.00    -0.286 OA
HETATM    2  C2          0      55.997 103.290 -31.955  1.00  0.00     0.201 C 
HETATM    3  C3          0      54.890 102.655 -31.419  1.00  0.00     0.067 C 
HETATM    4  C4          0      54.231 101.639 -32.101  1.00  0.00     0.103 C 
HETATM    5  O13         0      54.668 101.291 -33.299  1.00  0.00    -0.307 OA
HETATM    6  C14         0      55.737 101.835 -33.838  1.00  0.00     0.107 C 
HETATM    7  C15         0      56.425 101.223 -34.875  1.00  0.00     0.049 C 
HETATM    8  C16         0      57.683 101.664 -35.267  1.00  0.00     0.093 C 
HETATM    9  C18         0      57.958 102.993 -34.968  1.00  0.00     0.048 C 
HETATM   10  C19         0      57.256 103.651 -33.967  1.00  0.00     0.096 C 
HETATM   11  C21         0      56.274 102.991 -33.281  1.00  0.00     0.084 C 
ENDROOT
BRANCH  10  12
HETATM   12  O20         0      57.806 104.790 -33.386  1.00  0.00    -0.359 OA
HETATM   13  H20         0      57.216 105.489 -33.132  1.00  0.00     0.218 HD
ENDBRANCH  10  12
BRANCH   4  14
HETATM   14  C5          0      53.515 100.647 -31.297  1.00  0.00     0.025 C 
HETATM   15  C6          0      54.028 100.121 -30.120  1.00  0.00     0.004 C 
HETATM   16  C7          0      53.139  99.893 -29.075  1.00  0.00     0.026 C 
HETATM   17  C8          0      51.767 100.054 -29.236  1.00  0.00     0.112 C 
HETATM   18  C10         0      51.322  99.954 -30.547  1.00  0.00     0.112 C 
HETATM   19  C12         0      52.207 100.270 -31.571  1.00  0.00     0.028 C 
BRANCH  17  20
HETATM   20  O9          0      50.977 100.487 -28.186  1.00  0.00    -0.357 OA
HETATM   21  H9          0      50.285 101.132 -28.278  1.00  0.00     0.218 HD
ENDBRANCH  17  20
BRANCH  18  22
HETATM   22  O11         0      49.949  99.917 -30.743  1.00  0.00    -0.357 OA
HETATM   23  H11         0      49.532 100.727 -31.016  1.00  0.00     0.218 HD
ENDBRANCH  18  22
ENDBRANCH   4  14
BRANCH   8  24
HETATM   24  O17         0      58.696 100.764 -35.616  1.00  0.00    -0.359 OA
HETATM   25  H17         0      59.615 100.980 -35.507  1.00  0.00     0.218 HD
ENDBRANCH   8  24
TORSDOF 5
ENDMDL
MODEL 7
REMARK VINA RESULT:      -1.0      2.177      6.432
REMARK  5 active torsions:
REMARK  status: ('A' for Active; 'I' for Inactive)
REMARK    1  A    between atoms: C4_4  and  C5_5 
REMARK    2  A    between atoms: C8_8  and  O9_9 
REMARK    3  A    between atoms: C10_11  and  O11_12 
REMARK    4  A    between atoms: C16_18  and  O17_19 
REMARK    5  A    between atoms: C19_22  and  O20_23 
ROOT
HETATM    1  O1          0      55.917 101.252 -30.698  1.00  0.00    -0.286 OA
HETATM    2  C2          0      55.374 100.803 -31.745  1.00  0.00     0.201 C 
HETATM    3  C3          0      55.998 100.822 -32.981  1.00  0.00     0.067 C 
HETATM    4  C4          0      55.339 100.415 -34.136  1.00  0.00     0.103 C 
HETATM    5  O13         0      54.094  99.984 -34.038  1.00  0.00    -0.307 OA
HETATM    6  C14         0      53.443  99.980 -32.895  1.00  0.00     0.107 C 
HETATM    7  C15         0      52.058  99.918 -32.843  1.00  0.00     0.049 C 
HETATM    8  C16         0      51.368 100.171 -31.663  1.00  0.00     0.093 C 
HETATM    9  C18         0      52.097  99.955 -30.500  1.00  0.00     0.048 C 
HETATM   10  C19         0      53.485  99.963 -30.525  1.00  0.00     0.096 C 
HETATM   11  C21         0      54.141 100.169 -31.707  1.00  0.00     0.084 C 
ENDROOT
BRANCH  10  12
HETATM   12  O20         0      54.185 100.184 -29.343  1.00  0.00    -0.359 OA
HETATM   13  H20         0      54.948  99.646 -29.170  1.00  0.00     0.218 HD
ENDBRANCH  10  12
BRANCH   4  14
HETATM   14  C5          0      55.784 101.000 -35.402  1.00  0.00     0.025 C 
HETATM   15  C6          0      54.934 101.196 -36.480  1.00  0.00     0.004 C 
HETATM   16  C7          0      55.102 102.354 -37.232  1.00  0.00     0.026 C 
HETATM   17  C8          0      56.163 103.224 -37.004  1.00  0.00     0.112 C 
HETATM   18  C10         0      57.261 102.648 -36.381  1.00  0.00     0.112 C 
HETATM   19  C12         0      57.053 101.541 -35.567  1.00  0.00     0.028 C 
BRANCH  17  20
HETATM   20  O9          0      56.017 104.586 -37.200  1.00  0.00    -0.357 OA
HETATM   21  H9          0      55.195 105.050 -37.094  1.00  0.00     0.218 HD
ENDBRANCH  17  20
BRANCH  18  22
HETATM   22  O11         0      58.413 103.417 -36.300  1.00  0.00    -0.357 OA
HETATM   23  H11         0      58.428 104.223 -36.803  1.00  0.00     0.218 HD
ENDBRANCH  18  22
ENDBRANCH   4  14
BRANCH   8  24
HETATM   24  O17         0      50.173 100.898 -31.658  1.00  0.00    -0.359 OA
HETATM   25  H17         0      49.453 100.680 -32.239  1.00  0.00     0.218 HD
ENDBRANCH   8  24
TORSDOF 5
ENDMDL
MODEL 8
REMARK VINA RESULT:      -1.0      2.600      6.452
REMARK  5 active torsions:
REMARK  status: ('A' for Active; 'I' for Inactive)
REMARK    1  A    between atoms: C4_4  and  C5_5 
REMARK    2  A    between atoms: C8_8  and  O9_9 
REMARK    3  A    between atoms: C10_11  and  O11_12 
REMARK    4  A    between atoms: C16_18  and  O17_19 
REMARK    5  A    between atoms: C19_22  and  O20_23 
ROOT
HETATM    1  O1          0      55.697 102.353 -28.665  1.00  0.00    -0.286 OA
HETATM    2  C2          0      55.897 101.672 -29.708  1.00  0.00     0.201 C 
HETATM    3  C3          0      57.089 101.710 -30.412  1.00  0.00     0.067 C 
HETATM    4  C4          0      57.247 101.029 -31.614  1.00  0.00     0.103 C 
HETATM    5  O13         0      56.236 100.314 -32.076  1.00  0.00    -0.307 OA
HETATM    6  C14         0      55.072 100.274 -31.466  1.00  0.00     0.107 C 
HETATM    7  C15         0      53.917  99.875 -32.122  1.00  0.00     0.049 C 
HETATM    8  C16         0      52.662 100.075 -31.560  1.00  0.00     0.093 C 
HETATM    9  C18         0      52.649 100.175 -30.174  1.00  0.00     0.048 C 
HETATM   10  C19         0      53.800 100.527 -29.482  1.00  0.00     0.096 C 
HETATM   11  C21         0      54.960 100.759 -30.168  1.00  0.00     0.084 C 
ENDROOT
BRANCH  10  12
HETATM   12  O20         0      53.688 101.042 -28.194  1.00  0.00    -0.359 OA
HETATM   13  H20         0      54.086 100.555 -27.483  1.00  0.00     0.218 HD
ENDBRANCH  10  12
BRANCH   4  14
HETATM   14  C5          0      58.224 101.565 -32.563  1.00  0.00     0.025 C 
HETATM   15  C6          0      59.122 102.569 -32.232  1.00  0.00     0.004 C 
HETATM   16  C7          0      60.409 102.480 -32.752  1.00  0.00     0.026 C 
HETATM   17  C8          0      60.757 101.500 -33.677  1.00  0.00     0.112 C 
HETATM   18  C10         0      59.690 100.979 -34.397  1.00  0.00     0.112 C 
HETATM   19  C12         0      58.427 101.004 -33.818  1.00  0.00     0.028 C 
BRANCH  17  20
HETATM   20  O9          0      62.032 100.965 -33.697  1.00  0.00    -0.357 OA
HETATM   21  H9          0      62.225 100.052 -33.518  1.00  0.00     0.218 HD
ENDBRANCH  17  20
BRANCH  18  22
HETATM   22  O11         0      59.999 100.141 -35.459  1.00  0.00    -0.357 OA
HETATM   23  H11         0      59.353  99.484 -35.690  1.00  0.00     0.218 HD
ENDBRANCH  18  22
ENDBRANCH   4  14
BRANCH   8  24
HETATM   24  O17         0      51.570 100.478 -32.337  1.00  0.00    -0.359 OA
HETATM   25  H17         0      51.408 101.393 -32.533  1.00  0.00     0.218 HD
ENDBRANCH   8  24
TORSDOF 5
ENDMDL
MODEL 9
REMARK VINA RESULT:      -1.0      2.697      6.094
REMARK  5 active torsions:
REMARK  status: ('A' for Active; 'I' for Inactive)
REMARK    1  A    between atoms: C4_4  and  C5_5 
REMARK    2  A    between atoms: C8_8  and  O9_9 
REMARK    3  A    between atoms: C10_11  and  O11_12 
REMARK    4  A    between atoms: C16_18  and  O17_19 
REMARK    5  A    between atoms: C19_22  and  O20_23 
ROOT
HETATM    1  O1          0      56.727 100.755 -36.284  1.00  0.00    -0.286 OA
HETATM    2  C2          0      55.758 100.459 -35.532  1.00  0.00     0.201 C 
HETATM    3  C3          0      54.514 100.096 -36.020  1.00  0.00     0.067 C 
HETATM    4  C4          0      53.435  99.875 -35.171  1.00  0.00     0.103 C 
HETATM    5  O13         0      53.617  99.997 -33.868  1.00  0.00    -0.307 OA
HETATM    6  C14         0      54.767 100.375 -33.355  1.00  0.00     0.107 C 
HETATM    7  C15         0      54.862 100.885 -32.069  1.00  0.00     0.049 C 
HETATM    8  C16         0      56.018 101.515 -31.625  1.00  0.00     0.093 C 
HETATM    9  C18         0      57.181 101.143 -32.289  1.00  0.00     0.048 C 
HETATM   10  C19         0      57.120 100.587 -33.560  1.00  0.00     0.096 C 
HETATM   11  C21         0      55.905 100.386 -34.156  1.00  0.00     0.084 C 
ENDROOT
BRANCH  10  12
HETATM   12  O20         0      58.247 100.625 -34.374  1.00  0.00    -0.359 OA
HETATM   13  H20         0      58.280 100.036 -35.118  1.00  0.00     0.218 HD
ENDBRANCH  10  12
BRANCH   4  14
HETATM   14  C5          0      52.095 100.096 -35.719  1.00  0.00     0.025 C 
HETATM   15  C6          0      51.059 100.640 -34.976  1.00  0.00     0.004 C 
HETATM   16  C7          0      50.196 101.520 -35.621  1.00  0.00     0.026 C 
HETATM   17  C8          0      50.277 101.749 -36.990  1.00  0.00     0.112 C 
HETATM   18  C10         0      50.880 100.729 -37.713  1.00  0.00     0.112 C 
HETATM   19  C12         0      51.803  99.917 -37.065  1.00  0.00     0.028 C 
BRANCH  17  20
HETATM   20  O9          0      49.967 102.988 -37.521  1.00  0.00    -0.357 OA
HETATM   21  H9          0      50.511 103.442 -38.155  1.00  0.00     0.218 HD
ENDBRANCH  17  20
BRANCH  18  22
HETATM   22  O11         0      50.818 100.818 -39.097  1.00  0.00    -0.357 OA
HETATM   23  H11         0      50.554 100.035 -39.567  1.00  0.00     0.218 HD
ENDBRANCH  18  22
ENDBRANCH   4  14
BRANCH   8  24
HETATM   24  O17         0      55.963 102.661 -30.823  1.00  0.00    -0.359 OA
HETATM   25  H17         0      56.258 102.652 -29.920  1.00  0.00     0.218 HD
ENDBRANCH   8  24
TORSDOF 5
ENDMDL
