MODEL 1
REMARK VINA RESULT:      -7.3      0.000      0.000
REMARK  5 active torsions:
REMARK  status: ('A' for Active; 'I' for Inactive)
REMARK    1  A    between atoms: C4_4  and  C5_5 
REMARK    2  A    between atoms: C8_8  and  O9_9 
REMARK    3  A    between atoms: C10_11  and  O11_12 
REMARK    4  A    between atoms: C16_18  and  O17_19 
REMARK    5  A    between atoms: C19_22  and  O20_23 
ROOT
HETATM    1  O1          0      43.684  88.526 -13.345  1.00  0.00    -0.286 OA
HETATM    2  C2          0      44.429  87.824 -12.607  1.00  0.00     0.201 C 
HETATM    3  C3          0      44.861  88.243 -11.361  1.00  0.00     0.067 C 
HETATM    4  C4          0      45.764  87.496 -10.613  1.00  0.00     0.103 C 
HETATM    5  O13         0      46.199  86.349 -11.104  1.00  0.00    -0.307 OA
HETATM    6  C14         0      45.850  85.923 -12.298  1.00  0.00     0.107 C 
HETATM    7  C15         0      46.585  84.960 -12.975  1.00  0.00     0.049 C 
HETATM    8  C16         0      46.366  84.700 -14.322  1.00  0.00     0.093 C 
HETATM    9  C18         0      45.097  85.027 -14.785  1.00  0.00     0.048 C 
HETATM   10  C19         0      44.315  85.952 -14.106  1.00  0.00     0.096 C 
HETATM   11  C21         0      44.791  86.534 -12.962  1.00  0.00     0.084 C 
ENDROOT
BRANCH  10  12
HETATM   12  O20         0      43.276  86.588 -14.777  1.00  0.00    -0.359 OA
HETATM   13  H20         0      42.576  86.965 -14.259  1.00  0.00     0.218 HD
ENDBRANCH  10  12
BRANCH   4  14
HETATM   14  C5          0      46.610  88.221  -9.663  1.00  0.00     0.025 C 
HETATM   15  C6          0      46.432  89.567  -9.374  1.00  0.00     0.004 C 
HETATM   16  C7          0      46.619  89.972  -8.056  1.00  0.00     0.026 C 
HETATM   17  C8          0      47.097  89.099  -7.085  1.00  0.00     0.112 C 
HETATM   18  C10         0      47.822  88.023  -7.579  1.00  0.00     0.112 C 
HETATM   19  C12         0      47.555  87.584  -8.870  1.00  0.00     0.028 C 
BRANCH  17  20
HETATM   20  O9          0      46.684  89.208  -5.769  1.00  0.00    -0.357 OA
HETATM   21  H9          0      47.080  89.798  -5.138  1.00  0.00     0.218 HD
ENDBRANCH  17  20
BRANCH  18  22
HETATM   22  O11         0      48.479  87.228  -6.650  1.00  0.00    -0.357 OA
HETATM   23  H11         0      48.379  87.464  -5.735  1.00  0.00     0.218 HD
ENDBRANCH  18  22
ENDBRANCH   4  14
BRANCH   8  24
HETATM   24  O17         0      47.428  84.455 -15.200  1.00  0.00    -0.359 OA
HETATM   25  H17         0      47.407  83.736 -15.820  1.00  0.00     0.218 HD
ENDBRANCH   8  24
TORSDOF 5
ENDMDL
MODEL 2
REMARK VINA RESULT:      -6.2      4.224      5.251
REMARK  5 active torsions:
REMARK  status: ('A' for Active; 'I' for Inactive)
REMARK    1  A    between atoms: C4_4  and  C5_5 
REMARK    2  A    between atoms: C8_8  and  O9_9 
REMARK    3  A    between atoms: C10_11  and  O11_12 
REMARK    4  A    between atoms: C16_18  and  O17_19 
REMARK    5  A    between atoms: C19_22  and  O20_23 
ROOT
HETATM    1  O1          0      45.760  85.709 -10.167  1.00  0.00    -0.286 OA
HETATM    2  C2          0      46.663  84.841 -10.019  1.00  0.00     0.201 C 
HETATM    3  C3          0      47.002  84.314  -8.784  1.00  0.00     0.067 C 
HETATM    4  C4          0      48.069  83.435  -8.635  1.00  0.00     0.103 C 
HETATM    5  O13         0      48.757  83.084  -9.708  1.00  0.00    -0.307 OA
HETATM    6  C14         0      48.500  83.583 -10.897  1.00  0.00     0.107 C 
HETATM    7  C15         0      49.433  83.543 -11.923  1.00  0.00     0.049 C 
HETATM    8  C16         0      49.261  84.287 -13.084  1.00  0.00     0.093 C 
HETATM    9  C18         0      47.943  84.612 -13.383  1.00  0.00     0.048 C 
HETATM   10  C19         0      46.975  84.617 -12.389  1.00  0.00     0.096 C 
HETATM   11  C21         0      47.316  84.282 -11.107  1.00  0.00     0.084 C 
ENDROOT
BRANCH  10  12
HETATM   12  O20         0      45.803  85.341 -12.584  1.00  0.00    -0.359 OA
HETATM   13  H20         0      45.104  84.933 -13.081  1.00  0.00     0.218 HD
ENDBRANCH  10  12
BRANCH   4  14
HETATM   14  C5          0      48.732  83.402  -7.331  1.00  0.00     0.025 C 
HETATM   15  C6          0      48.392  84.257  -6.292  1.00  0.00     0.004 C 
HETATM   16  C7          0      48.396  83.737  -5.002  1.00  0.00     0.026 C 
HETATM   17  C8          0      48.852  82.451  -4.735  1.00  0.00     0.112 C 
HETATM   18  C10         0      49.729  81.939  -5.682  1.00  0.00     0.112 C 
HETATM   19  C12         0      49.646  82.415  -6.985  1.00  0.00     0.028 C 
BRANCH  17  20
HETATM   20  O9          0      48.293  81.697  -3.719  1.00  0.00    -0.357 OA
HETATM   21  H9          0      47.373  81.730  -3.482  1.00  0.00     0.218 HD
ENDBRANCH  17  20
BRANCH  18  22
HETATM   22  O11         0      50.359  80.742  -5.373  1.00  0.00    -0.357 OA
HETATM   23  H11         0      49.804  79.978  -5.265  1.00  0.00     0.218 HD
ENDBRANCH  18  22
ENDBRANCH   4  14
BRANCH   8  24
HETATM   24  O17         0      50.337  84.935 -13.701  1.00  0.00    -0.359 OA
HETATM   25  H17         0      50.710  84.618 -14.515  1.00  0.00     0.218 HD
ENDBRANCH   8  24
TORSDOF 5
ENDMDL
MODEL 3
REMARK VINA RESULT:      -6.2      3.548      5.752
REMARK  5 active torsions:
REMARK  status: ('A' for Active; 'I' for Inactive)
REMARK    1  A    between atoms: C4_4  and  C5_5 
REMARK    2  A    between atoms: C8_8  and  O9_9 
REMARK    3  A    between atoms: C10_11  and  O11_12 
REMARK    4  A    between atoms: C16_18  and  O17_19 
REMARK    5  A    between atoms: C19_22  and  O20_23 
ROOT
HETATM    1  O1          0      45.870  84.125  -9.588  1.00  0.00    -0.286 OA
HETATM    2  C2          0      46.755  84.837  -9.038  1.00  0.00     0.201 C 
HETATM    3  C3          0      47.682  84.325  -8.146  1.00  0.00     0.067 C 
HETATM    4  C4          0      48.580  85.149  -7.476  1.00  0.00     0.103 C 
HETATM    5  O13         0      48.553  86.447  -7.719  1.00  0.00    -0.307 OA
HETATM    6  C14         0      47.669  86.989  -8.528  1.00  0.00     0.107 C 
HETATM    7  C15         0      47.372  88.343  -8.485  1.00  0.00     0.049 C 
HETATM    8  C16         0      46.270  88.862  -9.153  1.00  0.00     0.093 C 
HETATM    9  C18         0      45.835  88.111 -10.238  1.00  0.00     0.048 C 
HETATM   10  C19         0      46.154  86.764 -10.337  1.00  0.00     0.096 C 
HETATM   11  C21         0      46.917  86.174  -9.367  1.00  0.00     0.084 C 
ENDROOT
BRANCH  10  12
HETATM   12  O20         0      45.382  85.940 -11.151  1.00  0.00    -0.359 OA
HETATM   13  H20         0      45.582  85.012 -11.162  1.00  0.00     0.218 HD
ENDBRANCH  10  12
BRANCH   4  14
HETATM   14  C5          0      49.075  84.685  -6.179  1.00  0.00     0.025 C 
HETATM   15  C6          0      49.598  85.543  -5.223  1.00  0.00     0.004 C 
HETATM   16  C7          0      49.300  85.282  -3.889  1.00  0.00     0.026 C 
HETATM   17  C8          0      48.618  84.132  -3.506  1.00  0.00     0.112 C 
HETATM   18  C10         0      48.705  83.079  -4.407  1.00  0.00     0.112 C 
HETATM   19  C12         0      48.919  83.373  -5.748  1.00  0.00     0.028 C 
BRANCH  17  20
HETATM   20  O9          0      47.761  84.145  -2.420  1.00  0.00    -0.357 OA
HETATM   21  H9          0      47.086  84.800  -2.287  1.00  0.00     0.218 HD
ENDBRANCH  17  20
BRANCH  18  22
HETATM   22  O11         0      48.205  81.853  -3.991  1.00  0.00    -0.357 OA
HETATM   23  H11         0      48.833  81.226  -3.651  1.00  0.00     0.218 HD
ENDBRANCH  18  22
ENDBRANCH   4  14
BRANCH   8  24
HETATM   24  O17         0      45.471  89.858  -8.579  1.00  0.00    -0.359 OA
HETATM   25  H17         0      45.785  90.747  -8.467  1.00  0.00     0.218 HD
ENDBRANCH   8  24
TORSDOF 5
ENDMDL
MODEL 4
REMARK VINA RESULT:      -6.1     11.556     14.725
REMARK  5 active torsions:
REMARK  status: ('A' for Active; 'I' for Inactive)
REMARK    1  A    between atoms: C4_4  and  C5_5 
REMARK    2  A    between atoms: C8_8  and  O9_9 
REMARK    3  A    between atoms: C10_11  and  O11_12 
REMARK    4  A    between atoms: C16_18  and  O17_19 
REMARK    5  A    between atoms: C19_22  and  O20_23 
ROOT
HETATM    1  O1          0      44.146  72.609 -14.084  1.00  0.00    -0.286 OA
HETATM    2  C2          0      45.131  72.634 -14.873  1.00  0.00     0.201 C 
HETATM    3  C3          0      46.305  73.309 -14.586  1.00  0.00     0.067 C 
HETATM    4  C4          0      47.335  73.406 -15.514  1.00  0.00     0.103 C 
HETATM    5  O13         0      47.188  72.819 -16.689  1.00  0.00    -0.307 OA
HETATM    6  C14         0      46.079  72.197 -17.026  1.00  0.00     0.107 C 
HETATM    7  C15         0      45.761  71.937 -18.351  1.00  0.00     0.049 C 
HETATM    8  C16         0      44.489  71.517 -18.719  1.00  0.00     0.093 C 
HETATM    9  C18         0      43.768  70.881 -17.715  1.00  0.00     0.048 C 
HETATM   10  C19         0      44.090  71.082 -16.380  1.00  0.00     0.096 C 
HETATM   11  C21         0      45.135  71.900 -16.049  1.00  0.00     0.084 C 
ENDROOT
BRANCH  10  12
HETATM   12  O20         0      43.135  70.816 -15.403  1.00  0.00    -0.359 OA
HETATM   13  H20         0      42.274  71.202 -15.505  1.00  0.00     0.218 HD
ENDBRANCH  10  12
BRANCH   4  14
HETATM   14  C5          0      48.222  74.566 -15.412  1.00  0.00     0.025 C 
HETATM   15  C6          0      48.980  75.029 -16.477  1.00  0.00     0.004 C 
HETATM   16  C7          0      49.116  76.406 -16.622  1.00  0.00     0.026 C 
HETATM   17  C8          0      48.629  77.291 -15.667  1.00  0.00     0.112 C 
HETATM   18  C10         0      48.475  76.748 -14.398  1.00  0.00     0.112 C 
HETATM   19  C12         0      48.256  75.381 -14.287  1.00  0.00     0.028 C 
BRANCH  17  20
HETATM   20  O9          0      48.147  78.535 -16.034  1.00  0.00    -0.357 OA
HETATM   21  H9          0      47.223  78.738 -16.123  1.00  0.00     0.218 HD
ENDBRANCH  17  20
BRANCH  18  22
HETATM   22  O11         0      48.174  77.630 -13.370  1.00  0.00    -0.357 OA
HETATM   23  H11         0      48.811  77.707 -12.669  1.00  0.00     0.218 HD
ENDBRANCH  18  22
ENDBRANCH   4  14
BRANCH   8  24
HETATM   24  O17         0      43.870  71.994 -19.879  1.00  0.00    -0.359 OA
HETATM   25  H17         0      44.142  72.806 -20.292  1.00  0.00     0.218 HD
ENDBRANCH   8  24
TORSDOF 5
ENDMDL
MODEL 5
REMARK VINA RESULT:      -6.0      3.204      6.051
REMARK  5 active torsions:
REMARK  status: ('A' for Active; 'I' for Inactive)
REMARK    1  A    between atoms: C4_4  and  C5_5 
REMARK    2  A    between atoms: C8_8  and  O9_9 
REMARK    3  A    between atoms: C10_11  and  O11_12 
REMARK    4  A    between atoms: C16_18  and  O17_19 
REMARK    5  A    between atoms: C19_22  and  O20_23 
ROOT
HETATM    1  O1          0      48.425  88.367  -8.866  1.00  0.00    -0.286 OA
HETATM    2  C2          0      48.066  87.362  -9.538  1.00  0.00     0.201 C 
HETATM    3  C3          0      48.907  86.292  -9.795  1.00  0.00     0.067 C 
HETATM    4  C4          0      48.521  85.245 -10.624  1.00  0.00     0.103 C 
HETATM    5  O13         0      47.312  85.270 -11.159  1.00  0.00    -0.307 OA
HETATM    6  C14         0      46.489  86.280 -10.977  1.00  0.00     0.107 C 
HETATM    7  C15         0      45.416  86.509 -11.826  1.00  0.00     0.049 C 
HETATM    8  C16         0      44.708  87.705 -11.788  1.00  0.00     0.093 C 
HETATM    9  C18         0      44.765  88.382 -10.576  1.00  0.00     0.048 C 
HETATM   10  C19         0      45.800  88.142  -9.682  1.00  0.00     0.096 C 
HETATM   11  C21         0      46.763  87.219  -9.989  1.00  0.00     0.084 C 
ENDROOT
BRANCH  10  12
HETATM   12  O20         0      46.096  89.095  -8.712  1.00  0.00    -0.359 OA
HETATM   13  H20         0      46.016  90.011  -8.949  1.00  0.00     0.218 HD
ENDBRANCH  10  12
BRANCH   4  14
HETATM   14  C5          0      49.582  84.512 -11.317  1.00  0.00     0.025 C 
HETATM   15  C6          0      49.333  83.645 -12.370  1.00  0.00     0.004 C 
HETATM   16  C7          0      50.242  83.632 -13.424  1.00  0.00     0.026 C 
HETATM   17  C8          0      51.428  84.357 -13.373  1.00  0.00     0.112 C 
HETATM   18  C10         0      51.870  84.656 -12.091  1.00  0.00     0.112 C 
HETATM   19  C12         0      50.929  84.746 -11.072  1.00  0.00     0.028 C 
BRANCH  17  20
HETATM   20  O9          0      51.976  84.901 -14.521  1.00  0.00    -0.357 OA
HETATM   21  H9          0      52.878  85.193 -14.588  1.00  0.00     0.218 HD
ENDBRANCH  17  20
BRANCH  18  22
HETATM   22  O11         0      53.138  85.209 -11.976  1.00  0.00    -0.357 OA
HETATM   23  H11         0      53.827  84.642 -11.649  1.00  0.00     0.218 HD
ENDBRANCH  18  22
ENDBRANCH   4  14
BRANCH   8  24
HETATM   24  O17         0      44.268  88.330 -12.960  1.00  0.00    -0.359 OA
HETATM   25  H17         0      43.556  88.958 -12.953  1.00  0.00     0.218 HD
ENDBRANCH   8  24
TORSDOF 5
ENDMDL
MODEL 6
REMARK VINA RESULT:      -5.8      3.846      6.092
REMARK  5 active torsions:
REMARK  status: ('A' for Active; 'I' for Inactive)
REMARK    1  A    between atoms: C4_4  and  C5_5 
REMARK    2  A    between atoms: C8_8  and  O9_9 
REMARK    3  A    between atoms: C10_11  and  O11_12 
REMARK    4  A    between atoms: C16_18  and  O17_19 
REMARK    5  A    between atoms: C19_22  and  O20_23 
ROOT
HETATM    1  O1          0      49.431  88.085  -9.571  1.00  0.00    -0.286 OA
HETATM    2  C2          0      48.570  87.163  -9.586  1.00  0.00     0.201 C 
HETATM    3  C3          0      48.887  85.836  -9.355  1.00  0.00     0.067 C 
HETATM    4  C4          0      47.938  84.828  -9.479  1.00  0.00     0.103 C 
HETATM    5  O13         0      46.701  85.157  -9.805  1.00  0.00    -0.307 OA
HETATM    6  C14         0      46.355  86.397 -10.071  1.00  0.00     0.107 C 
HETATM    7  C15         0      45.204  86.698 -10.785  1.00  0.00     0.049 C 
HETATM    8  C16         0      44.976  87.976 -11.282  1.00  0.00     0.093 C 
HETATM    9  C18         0      45.634  88.995 -10.604  1.00  0.00     0.048 C 
HETATM   10  C19         0      46.762  88.722  -9.842  1.00  0.00     0.096 C 
HETATM   11  C21         0      47.219  87.436  -9.744  1.00  0.00     0.084 C 
ENDROOT
BRANCH  10  12
HETATM   12  O20         0      47.645  89.754  -9.540  1.00  0.00    -0.359 OA
HETATM   13  H20         0      48.405  89.548  -9.009  1.00  0.00     0.218 HD
ENDBRANCH  10  12
BRANCH   4  14
HETATM   14  C5          0      48.423  83.488  -9.817  1.00  0.00     0.025 C 
HETATM   15  C6          0      49.618  83.269 -10.488  1.00  0.00     0.004 C 
HETATM   16  C7          0      50.385  82.176 -10.098  1.00  0.00     0.026 C 
HETATM   17  C8          0      49.920  81.254  -9.166  1.00  0.00     0.112 C 
HETATM   18  C10         0      48.538  81.198  -9.046  1.00  0.00     0.112 C 
HETATM   19  C12         0      47.801  82.334  -9.361  1.00  0.00     0.028 C 
BRANCH  17  20
HETATM   20  O9          0      50.793  80.620  -8.300  1.00  0.00    -0.357 OA
HETATM   21  H9          0      51.609  80.218  -8.574  1.00  0.00     0.218 HD
ENDBRANCH  17  20
BRANCH  18  22
HETATM   22  O11         0      48.015  80.170  -8.274  1.00  0.00    -0.357 OA
HETATM   23  H11         0      47.149  79.856  -8.505  1.00  0.00     0.218 HD
ENDBRANCH  18  22
ENDBRANCH   4  14
BRANCH   8  24
HETATM   24  O17         0      44.414  88.177 -12.548  1.00  0.00    -0.359 OA
HETATM   25  H17         0      43.538  87.878 -12.758  1.00  0.00     0.218 HD
ENDBRANCH   8  24
TORSDOF 5
ENDMDL
MODEL 7
REMARK VINA RESULT:      -5.7      2.405      3.163
REMARK  5 active torsions:
REMARK  status: ('A' for Active; 'I' for Inactive)
REMARK    1  A    between atoms: C4_4  and  C5_5 
REMARK    2  A    between atoms: C8_8  and  O9_9 
REMARK    3  A    between atoms: C10_11  and  O11_12 
REMARK    4  A    between atoms: C16_18  and  O17_19 
REMARK    5  A    between atoms: C19_22  and  O20_23 
ROOT
HETATM    1  O1          0      45.387  87.015 -11.313  1.00  0.00    -0.286 OA
HETATM    2  C2          0      46.286  86.320 -10.764  1.00  0.00     0.201 C 
HETATM    3  C3          0      46.606  86.432  -9.422  1.00  0.00     0.067 C 
HETATM    4  C4          0      47.668  85.729  -8.865  1.00  0.00     0.103 C 
HETATM    5  O13         0      48.370  84.920  -9.640  1.00  0.00    -0.307 OA
HETATM    6  C14         0      48.131  84.805 -10.928  1.00  0.00     0.107 C 
HETATM    7  C15         0      49.078  84.293 -11.804  1.00  0.00     0.049 C 
HETATM    8  C16         0      48.924  84.408 -13.180  1.00  0.00     0.093 C 
HETATM    9  C18         0      47.612  84.551 -13.614  1.00  0.00     0.048 C 
HETATM   10  C19         0      46.629  85.016 -12.750  1.00  0.00     0.096 C 
HETATM   11  C21         0      46.952  85.320 -11.456  1.00  0.00     0.084 C 
ENDROOT
BRANCH  10  12
HETATM   12  O20         0      45.463  85.561 -13.277  1.00  0.00    -0.359 OA
HETATM   13  H20         0      45.514  85.991 -14.123  1.00  0.00     0.218 HD
ENDBRANCH  10  12
BRANCH   4  14
HETATM   14  C5          0      48.313  86.311  -7.687  1.00  0.00     0.025 C 
HETATM   15  C6          0      47.847  87.461  -7.066  1.00  0.00     0.004 C 
HETATM   16  C7          0      47.906  87.512  -5.677  1.00  0.00     0.026 C 
HETATM   17  C8          0      48.529  86.513  -4.936  1.00  0.00     0.112 C 
HETATM   18  C10         0      49.479  85.780  -5.634  1.00  0.00     0.112 C 
HETATM   19  C12         0      49.348  85.675  -7.014  1.00  0.00     0.028 C 
BRANCH  17  20
HETATM   20  O9          0      48.064  86.168  -3.679  1.00  0.00    -0.357 OA
HETATM   21  H9          0      47.166  85.910  -3.501  1.00  0.00     0.218 HD
ENDBRANCH  17  20
BRANCH  18  22
HETATM   22  O11         0      50.261  84.902  -4.898  1.00  0.00    -0.357 OA
HETATM   23  H11         0      51.102  85.226  -4.595  1.00  0.00     0.218 HD
ENDBRANCH  18  22
ENDBRANCH   4  14
BRANCH   8  24
HETATM   24  O17         0      50.010  84.697 -14.014  1.00  0.00    -0.359 OA
HETATM   25  H17         0      50.752  85.207 -13.709  1.00  0.00     0.218 HD
ENDBRANCH   8  24
TORSDOF 5
ENDMDL
MODEL 8
REMARK VINA RESULT:      -5.7     14.005     16.012
REMARK  5 active torsions:
REMARK  status: ('A' for Active; 'I' for Inactive)
REMARK    1  A    between atoms: C4_4  and  C5_5 
REMARK    2  A    between atoms: C8_8  and  O9_9 
REMARK    3  A    between atoms: C10_11  and  O11_12 
REMARK    4  A    between atoms: C16_18  and  O17_19 
REMARK    5  A    between atoms: C19_22  and  O20_23 
ROOT
HETATM    1  O1          0      43.986  72.451 -13.903  1.00  0.00    -0.286 OA
HETATM    2  C2          0      44.932  72.062 -14.642  1.00  0.00     0.201 C 
HETATM    3  C3          0      46.262  72.313 -14.354  1.00  0.00     0.067 C 
HETATM    4  C4          0      47.278  71.964 -15.237  1.00  0.00     0.103 C 
HETATM    5  O13         0      46.956  71.360 -16.367  1.00  0.00    -0.307 OA
HETATM    6  C14         0      45.706  71.132 -16.707  1.00  0.00     0.107 C 
HETATM    7  C15         0      45.341  70.879 -18.021  1.00  0.00     0.049 C 
HETATM    8  C16         0      44.008  70.893 -18.415  1.00  0.00     0.093 C 
HETATM    9  C18         0      43.093  70.638 -17.400  1.00  0.00     0.048 C 
HETATM   10  C19         0      43.442  70.836 -16.071  1.00  0.00     0.096 C 
HETATM   11  C21         0      44.701  71.269 -15.756  1.00  0.00     0.084 C 
ENDROOT
BRANCH  10  12
HETATM   12  O20         0      42.438  71.005 -15.122  1.00  0.00    -0.359 OA
HETATM   13  H20         0      42.697  71.162 -14.223  1.00  0.00     0.218 HD
ENDBRANCH  10  12
BRANCH   4  14
HETATM   14  C5          0      48.511  72.751 -15.184  1.00  0.00     0.025 C 
HETATM   15  C6          0      48.517  74.129 -15.022  1.00  0.00     0.004 C 
HETATM   16  C7          0      49.514  74.679 -14.221  1.00  0.00     0.026 C 
HETATM   17  C8          0      50.548  73.904 -13.709  1.00  0.00     0.112 C 
HETATM   18  C10         0      50.806  72.738 -14.418  1.00  0.00     0.112 C 
HETATM   19  C12         0      49.768  72.162 -15.142  1.00  0.00     0.028 C 
BRANCH  17  20
HETATM   20  O9          0      51.106  74.192 -12.476  1.00  0.00    -0.357 OA
HETATM   21  H9          0      51.274  73.538 -11.806  1.00  0.00     0.218 HD
ENDBRANCH  17  20
BRANCH  18  22
HETATM   22  O11         0      51.944  72.026 -14.065  1.00  0.00    -0.357 OA
HETATM   23  H11         0      51.813  71.218 -13.582  1.00  0.00     0.218 HD
ENDBRANCH  18  22
ENDBRANCH   4  14
BRANCH   8  24
HETATM   24  O17         0      43.614  71.448 -19.638  1.00  0.00    -0.359 OA
HETATM   25  H17         0      42.918  71.065 -20.158  1.00  0.00     0.218 HD
ENDBRANCH   8  24
TORSDOF 5
ENDMDL
MODEL 9
REMARK VINA RESULT:      -5.6      5.635      8.050
REMARK  5 active torsions:
REMARK  status: ('A' for Active; 'I' for Inactive)
REMARK    1  A    between atoms: C4_4  and  C5_5 
REMARK    2  A    between atoms: C8_8  and  O9_9 
REMARK    3  A    between atoms: C10_11  and  O11_12 
REMARK    4  A    between atoms: C16_18  and  O17_19 
REMARK    5  A    between atoms: C19_22  and  O20_23 
ROOT
HETATM    1  O1          0      49.090  79.928  -9.106  1.00  0.00    -0.286 OA
HETATM    2  C2          0      49.612  80.597 -10.039  1.00  0.00     0.201 C 
HETATM    3  C3          0      49.333  81.937 -10.249  1.00  0.00     0.067 C 
HETATM    4  C4          0      49.841  82.625 -11.345  1.00  0.00     0.103 C 
HETATM    5  O13         0      50.625  81.980 -12.191  1.00  0.00    -0.307 OA
HETATM    6  C14         0      50.891  80.699 -12.059  1.00  0.00     0.107 C 
HETATM    7  C15         0      51.360  79.937 -13.120  1.00  0.00     0.049 C 
HETATM    8  C16         0      51.397  78.549 -13.051  1.00  0.00     0.093 C 
HETATM    9  C18         0      51.462  78.027 -11.765  1.00  0.00     0.048 C 
HETATM   10  C19         0      51.044  78.779 -10.676  1.00  0.00     0.096 C 
HETATM   11  C21         0      50.580  80.052 -10.868  1.00  0.00     0.084 C 
ENDROOT
BRANCH  10  12
HETATM   12  O20         0      50.702  78.132  -9.493  1.00  0.00    -0.359 OA
HETATM   13  H20         0      49.868  78.345  -9.094  1.00  0.00     0.218 HD
ENDBRANCH  10  12
BRANCH   4  14
HETATM   14  C5          0      49.073  83.772 -11.831  1.00  0.00     0.025 C 
HETATM   15  C6          0      49.090  84.181 -13.157  1.00  0.00     0.004 C 
HETATM   16  C7          0      47.894  84.633 -13.707  1.00  0.00     0.026 C 
HETATM   17  C8          0      46.752  84.800 -12.932  1.00  0.00     0.112 C 
HETATM   18  C10         0      46.992  84.980 -11.576  1.00  0.00     0.112 C 
HETATM   19  C12         0      48.154  84.444 -11.035  1.00  0.00     0.028 C 
BRANCH  17  20
HETATM   20  O9          0      45.494  84.585 -13.468  1.00  0.00    -0.357 OA
HETATM   21  H9          0      45.196  84.967 -14.285  1.00  0.00     0.218 HD
ENDBRANCH  17  20
BRANCH  18  22
HETATM   22  O11         0      45.907  85.338 -10.788  1.00  0.00    -0.357 OA
HETATM   23  H11         0      45.686  84.755 -10.071  1.00  0.00     0.218 HD
ENDBRANCH  18  22
ENDBRANCH   4  14
BRANCH   8  24
HETATM   24  O17         0      51.054  77.756 -14.152  1.00  0.00    -0.359 OA
HETATM   25  H17         0      51.471  77.868 -14.998  1.00  0.00     0.218 HD
ENDBRANCH   8  24
TORSDOF 5
ENDMDL
