MODEL 1
REMARK VINA RESULT:      -5.0      0.000      0.000
REMARK  5 active torsions:
REMARK  status: ('A' for Active; 'I' for Inactive)
REMARK    1  A    between atoms: C4_4  and  C5_5 
REMARK    2  A    between atoms: C8_8  and  O9_9 
REMARK    3  A    between atoms: C10_11  and  O11_12 
REMARK    4  A    between atoms: C16_18  and  O17_19 
REMARK    5  A    between atoms: C19_22  and  O20_23 
ROOT
HETATM    1  O1          0      61.302   2.525 -19.601  1.00  0.00    -0.286 OA
HETATM    2  C2          0      61.681   3.241 -20.568  1.00  0.00     0.201 C 
HETATM    3  C3          0      62.545   4.311 -20.416  1.00  0.00     0.067 C 
HETATM    4  C4          0      62.866   5.146 -21.480  1.00  0.00     0.103 C 
HETATM    5  O13         0      62.344   4.891 -22.667  1.00  0.00    -0.307 OA
HETATM    6  C14         0      61.489   3.910 -22.858  1.00  0.00     0.107 C 
HETATM    7  C15         0      60.649   3.878 -23.961  1.00  0.00     0.049 C 
HETATM    8  C16         0      59.582   2.989 -24.030  1.00  0.00     0.093 C 
HETATM    9  C18         0      59.722   1.844 -23.256  1.00  0.00     0.048 C 
HETATM   10  C19         0      60.590   1.826 -22.172  1.00  0.00     0.096 C 
HETATM   11  C21         0      61.327   2.940 -21.875  1.00  0.00     0.084 C 
ENDROOT
BRANCH  10  12
HETATM   12  O20         0      60.409   0.877 -21.171  1.00  0.00    -0.359 OA
HETATM   13  H20         0      61.141   0.693 -20.595  1.00  0.00     0.218 HD
ENDBRANCH  10  12
BRANCH   4  14
HETATM   14  C5          0      63.249   6.522 -21.160  1.00  0.00     0.025 C 
HETATM   15  C6          0      62.431   7.611 -21.423  1.00  0.00     0.004 C 
HETATM   16  C7          0      62.404   8.638 -20.485  1.00  0.00     0.026 C 
HETATM   17  C8          0      63.261   8.649 -19.390  1.00  0.00     0.112 C 
HETATM   18  C10         0      64.419   7.901 -19.553  1.00  0.00     0.112 C 
HETATM   19  C12         0      64.393   6.827 -20.434  1.00  0.00     0.028 C 
BRANCH  17  20
HETATM   20  O9          0      62.860   9.191 -18.182  1.00  0.00    -0.357 OA
HETATM   21  H9          0      63.186  10.015 -17.839  1.00  0.00     0.218 HD
ENDBRANCH  17  20
BRANCH  18  22
HETATM   22  O11         0      65.392   8.028 -18.572  1.00  0.00    -0.357 OA
HETATM   23  H11         0      65.257   8.703 -17.917  1.00  0.00     0.218 HD
ENDBRANCH  18  22
ENDBRANCH   4  14
BRANCH   8  24
HETATM   24  O17         0      58.345   3.374 -24.558  1.00  0.00    -0.359 OA
HETATM   25  H17         0      57.864   2.818 -25.159  1.00  0.00     0.218 HD
ENDBRANCH   8  24
TORSDOF 5
ENDMDL
MODEL 2
REMARK VINA RESULT:      -4.9      1.729      6.561
REMARK  5 active torsions:
REMARK  status: ('A' for Active; 'I' for Inactive)
REMARK    1  A    between atoms: C4_4  and  C5_5 
REMARK    2  A    between atoms: C8_8  and  O9_9 
REMARK    3  A    between atoms: C10_11  and  O11_12 
REMARK    4  A    between atoms: C16_18  and  O17_19 
REMARK    5  A    between atoms: C19_22  and  O20_23 
ROOT
HETATM    1  O1          0      60.072   7.259 -22.764  1.00  0.00    -0.286 OA
HETATM    2  C2          0      61.105   6.746 -22.252  1.00  0.00     0.201 C 
HETATM    3  C3          0      61.404   5.398 -22.357  1.00  0.00     0.067 C 
HETATM    4  C4          0      62.493   4.840 -21.697  1.00  0.00     0.103 C 
HETATM    5  O13         0      63.267   5.627 -20.971  1.00  0.00    -0.307 OA
HETATM    6  C14         0      63.007   6.906 -20.808  1.00  0.00     0.107 C 
HETATM    7  C15         0      63.552   7.635 -19.761  1.00  0.00     0.049 C 
HETATM    8  C16         0      63.082   8.904 -19.444  1.00  0.00     0.093 C 
HETATM    9  C18         0      62.470   9.582 -20.491  1.00  0.00     0.048 C 
HETATM   10  C19         0      61.955   8.887 -21.576  1.00  0.00     0.096 C 
HETATM   11  C21         0      62.065   7.524 -21.624  1.00  0.00     0.084 C 
ENDROOT
BRANCH  10  12
HETATM   12  O20         0      60.989   9.491 -22.375  1.00  0.00    -0.359 OA
HETATM   13  H20         0      60.110   9.132 -22.360  1.00  0.00     0.218 HD
ENDBRANCH  10  12
BRANCH   4  14
HETATM   14  C5          0      62.411   3.419 -21.352  1.00  0.00     0.025 C 
HETATM   15  C6          0      62.960   2.895 -20.191  1.00  0.00     0.004 C 
HETATM   16  C7          0      62.248   1.896 -19.535  1.00  0.00     0.026 C 
HETATM   17  C8          0      61.096   1.341 -20.083  1.00  0.00     0.112 C 
HETATM   18  C10         0      60.995   1.460 -21.462  1.00  0.00     0.112 C 
HETATM   19  C12         0      61.648   2.518 -22.084  1.00  0.00     0.028 C 
BRANCH  17  20
HETATM   20  O9          0      60.062   0.909 -19.271  1.00  0.00    -0.357 OA
HETATM   21  H9          0      59.364   1.473 -18.960  1.00  0.00     0.218 HD
ENDBRANCH  17  20
BRANCH  18  22
HETATM   22  O11         0      59.966   0.763 -22.080  1.00  0.00    -0.357 OA
HETATM   23  H11         0      59.151   0.684 -21.598  1.00  0.00     0.218 HD
ENDBRANCH  18  22
ENDBRANCH   4  14
BRANCH   8  24
HETATM   24  O17         0      62.934   9.315 -18.114  1.00  0.00    -0.359 OA
HETATM   25  H17         0      62.278   9.953 -17.859  1.00  0.00     0.218 HD
ENDBRANCH   8  24
TORSDOF 5
ENDMDL
MODEL 3
REMARK VINA RESULT:      -4.9     11.214     14.559
REMARK  5 active torsions:
REMARK  status: ('A' for Active; 'I' for Inactive)
REMARK    1  A    between atoms: C4_4  and  C5_5 
REMARK    2  A    between atoms: C8_8  and  O9_9 
REMARK    3  A    between atoms: C10_11  and  O11_12 
REMARK    4  A    between atoms: C16_18  and  O17_19 
REMARK    5  A    between atoms: C19_22  and  O20_23 
ROOT
HETATM    1  O1          0      52.807  15.329 -13.414  1.00  0.00    -0.286 OA
HETATM    2  C2          0      53.353  15.033 -14.512  1.00  0.00     0.201 C 
HETATM    3  C3          0      52.819  14.106 -15.390  1.00  0.00     0.067 C 
HETATM    4  C4          0      53.493  13.723 -16.544  1.00  0.00     0.103 C 
HETATM    5  O13         0      54.662  14.278 -16.810  1.00  0.00    -0.307 OA
HETATM    6  C14         0      55.231  15.135 -15.991  1.00  0.00     0.107 C 
HETATM    7  C15         0      56.590  15.409 -16.049  1.00  0.00     0.049 C 
HETATM    8  C16         0      57.229  16.110 -15.033  1.00  0.00     0.093 C 
HETATM    9  C18         0      56.405  16.943 -14.287  1.00  0.00     0.048 C 
HETATM   10  C19         0      55.034  16.726 -14.245  1.00  0.00     0.096 C 
HETATM   11  C21         0      54.488  15.693 -14.957  1.00  0.00     0.084 C 
ENDROOT
BRANCH  10  12
HETATM   12  O20         0      54.293  17.257 -13.194  1.00  0.00    -0.359 OA
HETATM   13  H20         0      54.689  17.267 -12.330  1.00  0.00     0.218 HD
ENDBRANCH  10  12
BRANCH   4  14
HETATM   14  C5          0      53.210  12.387 -17.073  1.00  0.00     0.025 C 
HETATM   15  C6          0      52.241  11.554 -16.533  1.00  0.00     0.004 C 
HETATM   16  C7          0      51.486  10.788 -17.415  1.00  0.00     0.026 C 
HETATM   17  C8          0      51.773  10.746 -18.775  1.00  0.00     0.112 C 
HETATM   18  C10         0      53.082  11.075 -19.102  1.00  0.00     0.112 C 
HETATM   19  C12         0      53.786  11.913 -18.245  1.00  0.00     0.028 C 
BRANCH  17  20
HETATM   20  O9          0      50.763  10.596 -19.709  1.00  0.00    -0.357 OA
HETATM   21  H9          0      50.498   9.758 -20.070  1.00  0.00     0.218 HD
ENDBRANCH  17  20
BRANCH  18  22
HETATM   22  O11         0      53.472  10.869 -20.417  1.00  0.00    -0.357 OA
HETATM   23  H11         0      54.305  11.242 -20.682  1.00  0.00     0.218 HD
ENDBRANCH  18  22
ENDBRANCH   4  14
BRANCH   8  24
HETATM   24  O17         0      58.506  15.748 -14.589  1.00  0.00    -0.359 OA
HETATM   25  H17         0      59.175  15.441 -15.189  1.00  0.00     0.218 HD
ENDBRANCH   8  24
TORSDOF 5
ENDMDL
MODEL 4
REMARK VINA RESULT:      -4.8     10.904     12.141
REMARK  5 active torsions:
REMARK  status: ('A' for Active; 'I' for Inactive)
REMARK    1  A    between atoms: C4_4  and  C5_5 
REMARK    2  A    between atoms: C8_8  and  O9_9 
REMARK    3  A    between atoms: C10_11  and  O11_12 
REMARK    4  A    between atoms: C16_18  and  O17_19 
REMARK    5  A    between atoms: C19_22  and  O20_23 
ROOT
HETATM    1  O1          0      54.713  11.462 -20.234  1.00  0.00    -0.286 OA
HETATM    2  C2          0      54.203  11.942 -19.185  1.00  0.00     0.201 C 
HETATM    3  C3          0      54.785  12.977 -18.473  1.00  0.00     0.067 C 
HETATM    4  C4          0      54.256  13.418 -17.266  1.00  0.00     0.103 C 
HETATM    5  O13         0      53.160  12.842 -16.805  1.00  0.00    -0.307 OA
HETATM    6  C14         0      52.589  11.831 -17.422  1.00  0.00     0.107 C 
HETATM    7  C15         0      51.708  10.980 -16.770  1.00  0.00     0.049 C 
HETATM    8  C16         0      51.309   9.778 -17.342  1.00  0.00     0.093 C 
HETATM    9  C18         0      51.387   9.734 -18.729  1.00  0.00     0.048 C 
HETATM   10  C19         0      52.224  10.603 -19.416  1.00  0.00     0.096 C 
HETATM   11  C21         0      52.964  11.522 -18.725  1.00  0.00     0.084 C 
ENDROOT
BRANCH  10  12
HETATM   12  O20         0      52.627  10.280 -20.708  1.00  0.00    -0.359 OA
HETATM   13  H20         0      51.970   9.949 -21.310  1.00  0.00     0.218 HD
ENDBRANCH  10  12
BRANCH   4  14
HETATM   14  C5          0      55.183  14.033 -16.314  1.00  0.00     0.025 C 
HETATM   15  C6          0      56.552  13.811 -16.347  1.00  0.00     0.004 C 
HETATM   16  C7          0      57.386  14.888 -16.065  1.00  0.00     0.026 C 
HETATM   17  C8          0      56.880  16.110 -15.634  1.00  0.00     0.112 C 
HETATM   18  C10         0      55.628  16.041 -15.039  1.00  0.00     0.112 C 
HETATM   19  C12         0      54.780  15.001 -15.402  1.00  0.00     0.028 C 
BRANCH  17  20
HETATM   20  O9          0      57.503  17.296 -15.978  1.00  0.00    -0.357 OA
HETATM   21  H9          0      57.374  17.739 -16.809  1.00  0.00     0.218 HD
ENDBRANCH  17  20
BRANCH  18  22
HETATM   22  O11         0      55.160  17.194 -14.424  1.00  0.00    -0.357 OA
HETATM   23  H11         0      54.569  17.741 -14.928  1.00  0.00     0.218 HD
ENDBRANCH  18  22
ENDBRANCH   4  14
BRANCH   8  24
HETATM   24  O17         0      51.171   8.616 -16.575  1.00  0.00    -0.359 OA
HETATM   25  H17         0      50.614   7.898 -16.853  1.00  0.00     0.218 HD
ENDBRANCH   8  24
TORSDOF 5
ENDMDL
MODEL 5
REMARK VINA RESULT:      -4.6      2.466      3.399
REMARK  5 active torsions:
REMARK  status: ('A' for Active; 'I' for Inactive)
REMARK    1  A    between atoms: C4_4  and  C5_5 
REMARK    2  A    between atoms: C8_8  and  O9_9 
REMARK    3  A    between atoms: C10_11  and  O11_12 
REMARK    4  A    between atoms: C16_18  and  O17_19 
REMARK    5  A    between atoms: C19_22  and  O20_23 
ROOT
HETATM    1  O1          0      64.657   2.275 -22.754  1.00  0.00    -0.286 OA
HETATM    2  C2          0      63.890   2.946 -22.010  1.00  0.00     0.201 C 
HETATM    3  C3          0      63.774   4.323 -22.099  1.00  0.00     0.067 C 
HETATM    4  C4          0      63.000   5.048 -21.200  1.00  0.00     0.103 C 
HETATM    5  O13         0      62.348   4.396 -20.254  1.00  0.00    -0.307 OA
HETATM    6  C14         0      62.453   3.094 -20.102  1.00  0.00     0.107 C 
HETATM    7  C15         0      62.114   2.467 -18.912  1.00  0.00     0.049 C 
HETATM    8  C16         0      62.462   1.144 -18.668  1.00  0.00     0.093 C 
HETATM    9  C18         0      62.659   0.370 -19.806  1.00  0.00     0.048 C 
HETATM   10  C19         0      62.954   0.968 -21.024  1.00  0.00     0.096 C 
HETATM   11  C21         0      63.035   2.331 -21.109  1.00  0.00     0.084 C 
ENDROOT
BRANCH  10  12
HETATM   12  O20         0      63.565   0.214 -22.021  1.00  0.00    -0.359 OA
HETATM   13  H20         0      63.294   0.361 -22.919  1.00  0.00     0.218 HD
ENDBRANCH  10  12
BRANCH   4  14
HETATM   14  C5          0      63.380   6.442 -20.962  1.00  0.00     0.025 C 
HETATM   15  C6          0      62.570   7.512 -21.311  1.00  0.00     0.004 C 
HETATM   16  C7          0      62.526   8.598 -20.443  1.00  0.00     0.026 C 
HETATM   17  C8          0      63.360   8.678 -19.333  1.00  0.00     0.112 C 
HETATM   18  C10         0      64.520   7.921 -19.423  1.00  0.00     0.112 C 
HETATM   19  C12         0      64.510   6.791 -20.233  1.00  0.00     0.028 C 
BRANCH  17  20
HETATM   20  O9          0      62.936   9.298 -18.171  1.00  0.00    -0.357 OA
HETATM   21  H9          0      63.348   9.171 -17.324  1.00  0.00     0.218 HD
ENDBRANCH  17  20
BRANCH  18  22
HETATM   22  O11         0      65.473   8.109 -18.432  1.00  0.00    -0.357 OA
HETATM   23  H11         0      66.134   7.433 -18.336  1.00  0.00     0.218 HD
ENDBRANCH  18  22
ENDBRANCH   4  14
BRANCH   8  24
HETATM   24  O17         0      62.906   0.727 -17.409  1.00  0.00    -0.359 OA
HETATM   25  H17         0      62.704  -0.137 -17.069  1.00  0.00     0.218 HD
ENDBRANCH   8  24
TORSDOF 5
ENDMDL
MODEL 6
REMARK VINA RESULT:      -4.6     11.730     14.252
REMARK  5 active torsions:
REMARK  status: ('A' for Active; 'I' for Inactive)
REMARK    1  A    between atoms: C4_4  and  C5_5 
REMARK    2  A    between atoms: C8_8  and  O9_9 
REMARK    3  A    between atoms: C10_11  and  O11_12 
REMARK    4  A    between atoms: C16_18  and  O17_19 
REMARK    5  A    between atoms: C19_22  and  O20_23 
ROOT
HETATM    1  O1          0      54.850  13.712 -18.647  1.00  0.00    -0.286 OA
HETATM    2  C2          0      54.234  13.183 -17.682  1.00  0.00     0.201 C 
HETATM    3  C3          0      53.475  12.033 -17.816  1.00  0.00     0.067 C 
HETATM    4  C4          0      52.724  11.528 -16.761  1.00  0.00     0.103 C 
HETATM    5  O13         0      52.758  12.158 -15.599  1.00  0.00    -0.307 OA
HETATM    6  C14         0      53.432  13.274 -15.429  1.00  0.00     0.107 C 
HETATM    7  C15         0      53.163  14.137 -14.376  1.00  0.00     0.049 C 
HETATM    8  C16         0      53.692  15.421 -14.343  1.00  0.00     0.093 C 
HETATM    9  C18         0      54.862  15.593 -15.073  1.00  0.00     0.048 C 
HETATM   10  C19         0      55.186  14.720 -16.102  1.00  0.00     0.096 C 
HETATM   11  C21         0      54.355  13.671 -16.390  1.00  0.00     0.084 C 
ENDROOT
BRANCH  10  12
HETATM   12  O20         0      56.085  15.127 -17.083  1.00  0.00    -0.359 OA
HETATM   13  H20         0      56.470  15.992 -17.002  1.00  0.00     0.218 HD
ENDBRANCH  10  12
BRANCH   4  14
HETATM   14  C5          0      51.539  10.738 -17.100  1.00  0.00     0.025 C 
HETATM   15  C6          0      50.559  11.189 -17.972  1.00  0.00     0.004 C 
HETATM   16  C7          0      49.987  10.260 -18.835  1.00  0.00     0.026 C 
HETATM   17  C8          0      50.281   8.903 -18.746  1.00  0.00     0.112 C 
HETATM   18  C10         0      50.738   8.490 -17.501  1.00  0.00     0.112 C 
HETATM   19  C12         0      51.381   9.420 -16.692  1.00  0.00     0.028 C 
BRANCH  17  20
HETATM   20  O9          0      50.309   8.108 -19.877  1.00  0.00    -0.357 OA
HETATM   21  H9          0      51.104   7.885 -20.347  1.00  0.00     0.218 HD
ENDBRANCH  17  20
BRANCH  18  22
HETATM   22  O11         0      50.865   7.123 -17.300  1.00  0.00    -0.357 OA
HETATM   23  H11         0      51.748   6.783 -17.208  1.00  0.00     0.218 HD
ENDBRANCH  18  22
ENDBRANCH   4  14
BRANCH   8  24
HETATM   24  O17         0      52.934  16.511 -13.900  1.00  0.00    -0.359 OA
HETATM   25  H17         0      52.196  16.841 -14.399  1.00  0.00     0.218 HD
ENDBRANCH   8  24
TORSDOF 5
ENDMDL
MODEL 7
REMARK VINA RESULT:      -4.5     10.961     12.162
REMARK  5 active torsions:
REMARK  status: ('A' for Active; 'I' for Inactive)
REMARK    1  A    between atoms: C4_4  and  C5_5 
REMARK    2  A    between atoms: C8_8  and  O9_9 
REMARK    3  A    between atoms: C10_11  and  O11_12 
REMARK    4  A    between atoms: C16_18  and  O17_19 
REMARK    5  A    between atoms: C19_22  and  O20_23 
ROOT
HETATM    1  O1          0      51.516  12.623 -15.862  1.00  0.00    -0.286 OA
HETATM    2  C2          0      52.635  12.593 -16.444  1.00  0.00     0.201 C 
HETATM    3  C3          0      53.710  13.369 -16.044  1.00  0.00     0.067 C 
HETATM    4  C4          0      54.899  13.393 -16.765  1.00  0.00     0.103 C 
HETATM    5  O13         0      55.003  12.637 -17.844  1.00  0.00    -0.307 OA
HETATM    6  C14         0      54.000  11.911 -18.287  1.00  0.00     0.107 C 
HETATM    7  C15         0      53.956  11.447 -19.594  1.00  0.00     0.049 C 
HETATM    8  C16         0      52.794  10.905 -20.129  1.00  0.00     0.093 C 
HETATM    9  C18         0      51.909  10.377 -19.196  1.00  0.00     0.048 C 
HETATM   10  C19         0      51.956  10.784 -17.870  1.00  0.00     0.096 C 
HETATM   11  C21         0      52.892  11.701 -17.474  1.00  0.00     0.084 C 
ENDROOT
BRANCH  10  12
HETATM   12  O20         0      50.837  10.604 -17.063  1.00  0.00    -0.359 OA
HETATM   13  H20         0      50.903  10.854 -16.149  1.00  0.00     0.218 HD
ENDBRANCH  10  12
BRANCH   4  14
HETATM   14  C5          0      55.713  14.606 -16.672  1.00  0.00     0.025 C 
HETATM   15  C6          0      55.229  15.863 -17.002  1.00  0.00     0.004 C 
HETATM   16  C7          0      55.634  16.936 -16.214  1.00  0.00     0.026 C 
HETATM   17  C8          0      56.591  16.789 -15.216  1.00  0.00     0.112 C 
HETATM   18  C10         0      57.443  15.705 -15.386  1.00  0.00     0.112 C 
HETATM   19  C12         0      56.982  14.610 -16.106  1.00  0.00     0.028 C 
BRANCH  17  20
HETATM   20  O9          0      56.534  17.547 -14.061  1.00  0.00    -0.357 OA
HETATM   21  H9          0      55.886  18.225 -13.906  1.00  0.00     0.218 HD
ENDBRANCH  17  20
BRANCH  18  22
HETATM   22  O11         0      58.530  15.620 -14.528  1.00  0.00    -0.357 OA
HETATM   23  H11         0      58.922  14.762 -14.414  1.00  0.00     0.218 HD
ENDBRANCH  18  22
ENDBRANCH   4  14
BRANCH   8  24
HETATM   24  O17         0      52.401  11.176 -21.444  1.00  0.00    -0.359 OA
HETATM   25  H17         0      51.866  10.567 -21.941  1.00  0.00     0.218 HD
ENDBRANCH   8  24
TORSDOF 5
ENDMDL
MODEL 8
REMARK VINA RESULT:      -4.2     11.843     13.581
REMARK  5 active torsions:
REMARK  status: ('A' for Active; 'I' for Inactive)
REMARK    1  A    between atoms: C4_4  and  C5_5 
REMARK    2  A    between atoms: C8_8  and  O9_9 
REMARK    3  A    between atoms: C10_11  and  O11_12 
REMARK    4  A    between atoms: C16_18  and  O17_19 
REMARK    5  A    between atoms: C19_22  and  O20_23 
ROOT
HETATM    1  O1          0      50.020  11.022 -18.419  1.00  0.00    -0.286 OA
HETATM    2  C2          0      51.109  11.394 -17.901  1.00  0.00     0.201 C 
HETATM    3  C3          0      51.207  11.832 -16.592  1.00  0.00     0.067 C 
HETATM    4  C4          0      52.398  12.332 -16.078  1.00  0.00     0.103 C 
HETATM    5  O13         0      53.462  12.367 -16.861  1.00  0.00    -0.307 OA
HETATM    6  C14         0      53.414  11.998 -18.122  1.00  0.00     0.107 C 
HETATM    7  C15         0      54.379  12.395 -19.037  1.00  0.00     0.049 C 
HETATM    8  C16         0      54.193  12.221 -20.403  1.00  0.00     0.093 C 
HETATM    9  C18         0      53.313  11.204 -20.750  1.00  0.00     0.048 C 
HETATM   10  C19         0      52.366  10.750 -19.843  1.00  0.00     0.096 C 
HETATM   11  C21         0      52.309  11.297 -18.590  1.00  0.00     0.084 C 
ENDROOT
BRANCH  10  12
HETATM   12  O20         0      51.243  10.075 -20.312  1.00  0.00    -0.359 OA
HETATM   13  H20         0      50.765   9.527 -19.701  1.00  0.00     0.218 HD
ENDBRANCH  10  12
BRANCH   4  14
HETATM   14  C5          0      52.301  13.292 -14.977  1.00  0.00     0.025 C 
HETATM   15  C6          0      53.411  13.763 -14.290  1.00  0.00     0.004 C 
HETATM   16  C7          0      53.414  15.101 -13.909  1.00  0.00     0.026 C 
HETATM   17  C8          0      52.298  15.911 -14.084  1.00  0.00     0.112 C 
HETATM   18  C10         0      51.093  15.228 -14.172  1.00  0.00     0.112 C 
HETATM   19  C12         0      51.109  13.918 -14.637  1.00  0.00     0.028 C 
BRANCH  17  20
HETATM   20  O9          0      52.437  17.260 -14.358  1.00  0.00    -0.357 OA
HETATM   21  H9          0      52.535  17.614 -15.235  1.00  0.00     0.218 HD
ENDBRANCH  17  20
BRANCH  18  22
HETATM   22  O11         0      49.934  15.991 -14.157  1.00  0.00    -0.357 OA
HETATM   23  H11         0      49.571  16.238 -15.000  1.00  0.00     0.218 HD
ENDBRANCH  18  22
ENDBRANCH   4  14
BRANCH   8  24
HETATM   24  O17         0      54.588  13.199 -21.323  1.00  0.00    -0.359 OA
HETATM   25  H17         0      53.957  13.767 -21.749  1.00  0.00     0.218 HD
ENDBRANCH   8  24
TORSDOF 5
ENDMDL
MODEL 9
REMARK VINA RESULT:      -4.2     12.108     14.072
REMARK  5 active torsions:
REMARK  status: ('A' for Active; 'I' for Inactive)
REMARK    1  A    between atoms: C4_4  and  C5_5 
REMARK    2  A    between atoms: C8_8  and  O9_9 
REMARK    3  A    between atoms: C10_11  and  O11_12 
REMARK    4  A    between atoms: C16_18  and  O17_19 
REMARK    5  A    between atoms: C19_22  and  O20_23 
ROOT
HETATM    1  O1          0      50.212  13.127 -16.042  1.00  0.00    -0.286 OA
HETATM    2  C2          0      51.441  13.409 -16.014  1.00  0.00     0.201 C 
HETATM    3  C3          0      51.935  14.553 -15.412  1.00  0.00     0.067 C 
HETATM    4  C4          0      53.282  14.891 -15.484  1.00  0.00     0.103 C 
HETATM    5  O13         0      54.105  14.084 -16.129  1.00  0.00    -0.307 OA
HETATM    6  C14         0      53.682  13.005 -16.750  1.00  0.00     0.107 C 
HETATM    7  C15         0      54.436  12.387 -17.738  1.00  0.00     0.049 C 
HETATM    8  C16         0      53.886  11.412 -18.562  1.00  0.00     0.093 C 
HETATM    9  C18         0      52.795  10.739 -18.026  1.00  0.00     0.048 C 
HETATM   10  C19         0      52.047  11.307 -17.005  1.00  0.00     0.096 C 
HETATM   11  C21         0      52.396  12.534 -16.509  1.00  0.00     0.084 C 
ENDROOT
BRANCH  10  12
HETATM   12  O20         0      50.748  10.860 -16.782  1.00  0.00    -0.359 OA
HETATM   13  H20         0      50.094  11.500 -16.529  1.00  0.00     0.218 HD
ENDBRANCH  10  12
BRANCH   4  14
HETATM   14  C5          0      53.622  16.312 -15.385  1.00  0.00     0.025 C 
HETATM   15  C6          0      52.670  17.301 -15.184  1.00  0.00     0.004 C 
HETATM   16  C7          0      53.008  18.361 -14.349  1.00  0.00     0.026 C 
HETATM   17  C8          0      54.293  18.505 -13.837  1.00  0.00     0.112 C 
HETATM   18  C10         0      55.285  17.871 -14.573  1.00  0.00     0.112 C 
HETATM   19  C12         0      54.935  16.761 -15.333  1.00  0.00     0.028 C 
BRANCH  17  20
HETATM   20  O9          0      54.499  19.058 -12.585  1.00  0.00    -0.357 OA
HETATM   21  H9          0      54.282  19.956 -12.362  1.00  0.00     0.218 HD
ENDBRANCH  17  20
BRANCH  18  22
HETATM   22  O11         0      56.599  18.137 -14.216  1.00  0.00    -0.357 OA
HETATM   23  H11         0      56.735  18.716 -13.474  1.00  0.00     0.218 HD
ENDBRANCH  18  22
ENDBRANCH   4  14
BRANCH   8  24
HETATM   24  O17         0      54.188  11.356 -19.927  1.00  0.00    -0.359 OA
HETATM   25  H17         0      53.529  11.520 -20.591  1.00  0.00     0.218 HD
ENDBRANCH   8  24
TORSDOF 5
ENDMDL
