MODEL 1
REMARK VINA RESULT:      -8.1      0.000      0.000
REMARK  5 active torsions:
REMARK  status: ('A' for Active; 'I' for Inactive)
REMARK    1  A    between atoms: C4_4  and  C5_5 
REMARK    2  A    between atoms: C8_8  and  O9_9 
REMARK    3  A    between atoms: C10_11  and  O11_12 
REMARK    4  A    between atoms: C16_18  and  O17_19 
REMARK    5  A    between atoms: C19_22  and  O20_23 
ROOT
HETATM    1  O1          0      27.414  65.275 -10.541  1.00  0.00    -0.286 OA
HETATM    2  C2          0      26.781  64.274 -10.975  1.00  0.00     0.201 C 
HETATM    3  C3          0      25.399  64.189 -10.944  1.00  0.00     0.067 C 
HETATM    4  C4          0      24.731  63.033 -11.333  1.00  0.00     0.103 C 
HETATM    5  O13         0      25.441  62.003 -11.759  1.00  0.00    -0.307 OA
HETATM    6  C14         0      26.756  62.017 -11.772  1.00  0.00     0.107 C 
HETATM    7  C15         0      27.499  60.847 -11.827  1.00  0.00     0.049 C 
HETATM    8  C16         0      28.868  60.849 -11.586  1.00  0.00     0.093 C 
HETATM    9  C18         0      29.503  62.063 -11.820  1.00  0.00     0.048 C 
HETATM   10  C19         0      28.781  63.249 -11.819  1.00  0.00     0.096 C 
HETATM   11  C21         0      27.430  63.221 -11.602  1.00  0.00     0.084 C 
ENDROOT
BRANCH  10  12
HETATM   12  O20         0      29.450  64.452 -11.616  1.00  0.00    -0.359 OA
HETATM   13  H20         0      30.337  64.417 -11.280  1.00  0.00     0.218 HD
ENDBRANCH  10  12
BRANCH   4  14
HETATM   14  C5          0      23.418  62.785 -10.735  1.00  0.00     0.025 C 
HETATM   15  C6          0      23.225  61.903  -9.682  1.00  0.00     0.004 C 
HETATM   16  C7          0      22.307  62.262  -8.700  1.00  0.00     0.026 C 
HETATM   17  C8          0      21.509  63.393  -8.827  1.00  0.00     0.112 C 
HETATM   18  C10         0      21.318  63.825 -10.133  1.00  0.00     0.112 C 
HETATM   19  C12         0      22.293  63.525 -11.076  1.00  0.00     0.028 C 
BRANCH  17  20
HETATM   20  O9          0      21.132  64.123  -7.714  1.00  0.00    -0.357 OA
HETATM   21  H9          0      21.382  65.028  -7.566  1.00  0.00     0.218 HD
ENDBRANCH  17  20
BRANCH  18  22
HETATM   22  O11         0      20.382  64.830 -10.332  1.00  0.00    -0.357 OA
HETATM   23  H11         0      20.012  65.233  -9.555  1.00  0.00     0.218 HD
ENDBRANCH  18  22
ENDBRANCH   4  14
BRANCH   8  24
HETATM   24  O17         0      29.480  59.828 -10.852  1.00  0.00    -0.359 OA
HETATM   25  H17         0      29.434  58.920 -11.126  1.00  0.00     0.218 HD
ENDBRANCH   8  24
TORSDOF 5
ENDMDL
MODEL 2
REMARK VINA RESULT:      -7.8      1.771      3.082
REMARK  5 active torsions:
REMARK  status: ('A' for Active; 'I' for Inactive)
REMARK    1  A    between atoms: C4_4  and  C5_5 
REMARK    2  A    between atoms: C8_8  and  O9_9 
REMARK    3  A    between atoms: C10_11  and  O11_12 
REMARK    4  A    between atoms: C16_18  and  O17_19 
REMARK    5  A    between atoms: C19_22  and  O20_23 
ROOT
HETATM    1  O1          0      25.951  61.738 -12.440  1.00  0.00    -0.286 OA
HETATM    2  C2          0      25.711  62.408 -11.399  1.00  0.00     0.201 C 
HETATM    3  C3          0      24.493  62.363 -10.741  1.00  0.00     0.067 C 
HETATM    4  C4          0      24.220  63.188  -9.657  1.00  0.00     0.103 C 
HETATM    5  O13         0      25.159  64.018  -9.238  1.00  0.00    -0.307 OA
HETATM    6  C14         0      26.318  64.127  -9.849  1.00  0.00     0.107 C 
HETATM    7  C15         0      27.130  65.240  -9.681  1.00  0.00     0.049 C 
HETATM    8  C16         0      28.220  65.470 -10.513  1.00  0.00     0.093 C 
HETATM    9  C18         0      28.747  64.334 -11.116  1.00  0.00     0.048 C 
HETATM   10  C19         0      27.977  63.188 -11.258  1.00  0.00     0.096 C 
HETATM   11  C21         0      26.693  63.170 -10.785  1.00  0.00     0.084 C 
ENDROOT
BRANCH  10  12
HETATM   12  O20         0      28.332  62.244 -12.217  1.00  0.00    -0.359 OA
HETATM   13  H20         0      27.910  62.292 -13.066  1.00  0.00     0.218 HD
ENDBRANCH  10  12
BRANCH   4  14
HETATM   14  C5          0      22.817  63.529  -9.411  1.00  0.00     0.025 C 
HETATM   15  C6          0      22.387  64.153  -8.249  1.00  0.00     0.004 C 
HETATM   16  C7          0      21.385  65.111  -8.364  1.00  0.00     0.026 C 
HETATM   17  C8          0      20.737  65.346  -9.572  1.00  0.00     0.112 C 
HETATM   18  C10         0      20.776  64.286 -10.468  1.00  0.00     0.112 C 
HETATM   19  C12         0      21.836  63.391 -10.384  1.00  0.00     0.028 C 
BRANCH  17  20
HETATM   20  O9          0      20.289  66.614  -9.901  1.00  0.00    -0.357 OA
HETATM   21  H9          0      19.490  66.997  -9.556  1.00  0.00     0.218 HD
ENDBRANCH  17  20
BRANCH  18  22
HETATM   22  O11         0      19.990  64.395 -11.606  1.00  0.00    -0.357 OA
HETATM   23  H11         0      19.351  65.098 -11.621  1.00  0.00     0.218 HD
ENDBRANCH  18  22
ENDBRANCH   4  14
BRANCH   8  24
HETATM   24  O17         0      28.534  66.756 -10.964  1.00  0.00    -0.359 OA
HETATM   25  H17         0      29.023  67.368 -10.426  1.00  0.00     0.218 HD
ENDBRANCH   8  24
TORSDOF 5
ENDMDL
MODEL 3
REMARK VINA RESULT:      -7.5      1.847      6.759
REMARK  5 active torsions:
REMARK  status: ('A' for Active; 'I' for Inactive)
REMARK    1  A    between atoms: C4_4  and  C5_5 
REMARK    2  A    between atoms: C8_8  and  O9_9 
REMARK    3  A    between atoms: C10_11  and  O11_12 
REMARK    4  A    between atoms: C16_18  and  O17_19 
REMARK    5  A    between atoms: C19_22  and  O20_23 
ROOT
HETATM    1  O1          0      24.244  64.544  -6.994  1.00  0.00    -0.286 OA
HETATM    2  C2          0      24.126  63.887  -8.064  1.00  0.00     0.201 C 
HETATM    3  C3          0      25.184  63.218  -8.654  1.00  0.00     0.067 C 
HETATM    4  C4          0      25.052  62.588  -9.887  1.00  0.00     0.103 C 
HETATM    5  O13         0      23.877  62.617 -10.491  1.00  0.00    -0.307 OA
HETATM    6  C14         0      22.851  63.270  -9.993  1.00  0.00     0.107 C 
HETATM    7  C15         0      21.769  63.642 -10.779  1.00  0.00     0.049 C 
HETATM    8  C16         0      20.817  64.542 -10.317  1.00  0.00     0.093 C 
HETATM    9  C18         0      20.702  64.617  -8.934  1.00  0.00     0.048 C 
HETATM   10  C19         0      21.747  64.209  -8.116  1.00  0.00     0.096 C 
HETATM   11  C21         0      22.894  63.714  -8.676  1.00  0.00     0.084 C 
ENDROOT
BRANCH  10  12
HETATM   12  O20         0      21.810  64.678  -6.808  1.00  0.00    -0.359 OA
HETATM   13  H20         0      22.666  64.861  -6.441  1.00  0.00     0.218 HD
ENDBRANCH  10  12
BRANCH   4  14
HETATM   14  C5          0      26.261  62.447 -10.701  1.00  0.00     0.025 C 
HETATM   15  C6          0      27.496  62.939 -10.304  1.00  0.00     0.004 C 
HETATM   16  C7          0      28.619  62.173 -10.597  1.00  0.00     0.026 C 
HETATM   17  C8          0      28.535  61.023 -11.375  1.00  0.00     0.112 C 
HETATM   18  C10         0      27.434  60.973 -12.219  1.00  0.00     0.112 C 
HETATM   19  C12         0      26.293  61.682 -11.859  1.00  0.00     0.028 C 
BRANCH  17  20
HETATM   20  O9          0      29.376  59.948 -11.145  1.00  0.00    -0.357 OA
HETATM   21  H9          0      29.292  59.109 -11.583  1.00  0.00     0.218 HD
ENDBRANCH  17  20
BRANCH  18  22
HETATM   22  O11         0      27.400  59.944 -13.149  1.00  0.00    -0.357 OA
HETATM   23  H11         0      28.233  59.554 -13.388  1.00  0.00     0.218 HD
ENDBRANCH  18  22
ENDBRANCH   4  14
BRANCH   8  24
HETATM   24  O17         0      20.273  65.522 -11.154  1.00  0.00    -0.359 OA
HETATM   25  H17         0      19.799  66.269 -10.807  1.00  0.00     0.218 HD
ENDBRANCH   8  24
TORSDOF 5
ENDMDL
MODEL 4
REMARK VINA RESULT:      -7.5      3.896      6.765
REMARK  5 active torsions:
REMARK  status: ('A' for Active; 'I' for Inactive)
REMARK    1  A    between atoms: C4_4  and  C5_5 
REMARK    2  A    between atoms: C8_8  and  O9_9 
REMARK    3  A    between atoms: C10_11  and  O11_12 
REMARK    4  A    between atoms: C16_18  and  O17_19 
REMARK    5  A    between atoms: C19_22  and  O20_23 
ROOT
HETATM    1  O1          0      20.295  66.582  -9.273  1.00  0.00    -0.286 OA
HETATM    2  C2          0      20.945  65.761  -8.570  1.00  0.00     0.201 C 
HETATM    3  C3          0      21.212  65.969  -7.227  1.00  0.00     0.067 C 
HETATM    4  C4          0      22.017  65.099  -6.501  1.00  0.00     0.103 C 
HETATM    5  O13         0      22.519  64.040  -7.111  1.00  0.00    -0.307 OA
HETATM    6  C14         0      22.328  63.815  -8.393  1.00  0.00     0.107 C 
HETATM    7  C15         0      23.150  62.964  -9.116  1.00  0.00     0.049 C 
HETATM    8  C16         0      23.107  62.926 -10.505  1.00  0.00     0.093 C 
HETATM    9  C18         0      21.905  63.340 -11.066  1.00  0.00     0.048 C 
HETATM   10  C19         0      21.037  64.155 -10.352  1.00  0.00     0.096 C 
HETATM   11  C21         0      21.359  64.539  -9.079  1.00  0.00     0.084 C 
ENDROOT
BRANCH  10  12
HETATM   12  O20         0      20.087  64.904 -11.039  1.00  0.00    -0.359 OA
HETATM   13  H20         0      20.137  65.850 -10.978  1.00  0.00     0.218 HD
ENDBRANCH  10  12
BRANCH   4  14
HETATM   14  C5          0      22.730  65.651  -5.347  1.00  0.00     0.025 C 
HETATM   15  C6          0      23.005  64.909  -4.208  1.00  0.00     0.004 C 
HETATM   16  C7          0      24.233  65.113  -3.587  1.00  0.00     0.026 C 
HETATM   17  C8          0      25.104  66.115  -4.004  1.00  0.00     0.112 C 
HETATM   18  C10         0      24.498  67.163  -4.684  1.00  0.00     0.112 C 
HETATM   19  C12         0      23.314  66.911  -5.367  1.00  0.00     0.028 C 
BRANCH  17  20
HETATM   20  O9          0      26.474  65.944  -3.919  1.00  0.00    -0.357 OA
HETATM   21  H9          0      26.896  65.363  -3.296  1.00  0.00     0.218 HD
ENDBRANCH  17  20
BRANCH  18  22
HETATM   22  O11         0      25.285  68.274  -4.955  1.00  0.00    -0.357 OA
HETATM   23  H11         0      26.167  68.273  -4.601  1.00  0.00     0.218 HD
ENDBRANCH  18  22
ENDBRANCH   4  14
BRANCH   8  24
HETATM   24  O17         0      24.274  62.810 -11.268  1.00  0.00    -0.359 OA
HETATM   25  H17         0      25.121  63.077 -10.929  1.00  0.00     0.218 HD
ENDBRANCH   8  24
TORSDOF 5
ENDMDL
MODEL 5
REMARK VINA RESULT:      -7.4      6.235      7.710
REMARK  5 active torsions:
REMARK  status: ('A' for Active; 'I' for Inactive)
REMARK    1  A    between atoms: C4_4  and  C5_5 
REMARK    2  A    between atoms: C8_8  and  O9_9 
REMARK    3  A    between atoms: C10_11  and  O11_12 
REMARK    4  A    between atoms: C16_18  and  O17_19 
REMARK    5  A    between atoms: C19_22  and  O20_23 
ROOT
HETATM    1  O1          0      24.966  68.470  -4.822  1.00  0.00    -0.286 OA
HETATM    2  C2          0      24.606  67.260  -4.829  1.00  0.00     0.201 C 
HETATM    3  C3          0      23.783  66.728  -5.806  1.00  0.00     0.067 C 
HETATM    4  C4          0      23.319  65.419  -5.735  1.00  0.00     0.103 C 
HETATM    5  O13         0      23.695  64.667  -4.715  1.00  0.00    -0.307 OA
HETATM    6  C14         0      24.444  65.135  -3.741  1.00  0.00     0.107 C 
HETATM    7  C15         0      24.510  64.508  -2.505  1.00  0.00     0.049 C 
HETATM    8  C16         0      25.092  65.134  -1.409  1.00  0.00     0.093 C 
HETATM    9  C18         0      26.030  66.111  -1.720  1.00  0.00     0.048 C 
HETATM   10  C19         0      26.022  66.725  -2.965  1.00  0.00     0.096 C 
HETATM   11  C21         0      25.094  66.354  -3.899  1.00  0.00     0.084 C 
ENDROOT
BRANCH  10  12
HETATM   12  O20         0      26.644  67.960  -3.118  1.00  0.00    -0.359 OA
HETATM   13  H20         0      26.534  68.415  -3.945  1.00  0.00     0.218 HD
ENDBRANCH  10  12
BRANCH   4  14
HETATM   14  C5          0      22.049  65.122  -6.399  1.00  0.00     0.025 C 
HETATM   15  C6          0      20.858  64.960  -5.707  1.00  0.00     0.004 C 
HETATM   16  C7          0      19.700  65.470  -6.287  1.00  0.00     0.026 C 
HETATM   17  C8          0      19.702  66.003  -7.571  1.00  0.00     0.112 C 
HETATM   18  C10         0      20.734  65.553  -8.384  1.00  0.00     0.112 C 
HETATM   19  C12         0      21.912  65.129  -7.782  1.00  0.00     0.028 C 
BRANCH  17  20
HETATM   20  O9          0      18.861  67.049  -7.906  1.00  0.00    -0.357 OA
HETATM   21  H9          0      18.191  66.994  -8.578  1.00  0.00     0.218 HD
ENDBRANCH  17  20
BRANCH  18  22
HETATM   22  O11         0      20.676  65.904  -9.726  1.00  0.00    -0.357 OA
HETATM   23  H11         0      20.195  66.694  -9.943  1.00  0.00     0.218 HD
ENDBRANCH  18  22
ENDBRANCH   4  14
BRANCH   8  24
HETATM   24  O17         0      24.536  65.030  -0.129  1.00  0.00    -0.359 OA
HETATM   25  H17         0      25.056  65.168   0.654  1.00  0.00     0.218 HD
ENDBRANCH   8  24
TORSDOF 5
ENDMDL
MODEL 6
REMARK VINA RESULT:      -7.3      5.096      8.045
REMARK  5 active torsions:
REMARK  status: ('A' for Active; 'I' for Inactive)
REMARK    1  A    between atoms: C4_4  and  C5_5 
REMARK    2  A    between atoms: C8_8  and  O9_9 
REMARK    3  A    between atoms: C10_11  and  O11_12 
REMARK    4  A    between atoms: C16_18  and  O17_19 
REMARK    5  A    between atoms: C19_22  and  O20_23 
ROOT
HETATM    1  O1          0      23.219  61.877  -7.521  1.00  0.00    -0.286 OA
HETATM    2  C2          0      23.308  63.086  -7.170  1.00  0.00     0.201 C 
HETATM    3  C3          0      24.143  63.512  -6.151  1.00  0.00     0.067 C 
HETATM    4  C4          0      24.147  64.832  -5.716  1.00  0.00     0.103 C 
HETATM    5  O13         0      23.344  65.698  -6.309  1.00  0.00    -0.307 OA
HETATM    6  C14         0      22.505  65.339  -7.256  1.00  0.00     0.107 C 
HETATM    7  C15         0      21.408  66.118  -7.595  1.00  0.00     0.049 C 
HETATM    8  C16         0      20.393  65.622  -8.405  1.00  0.00     0.093 C 
HETATM    9  C18         0      20.770  64.585  -9.249  1.00  0.00     0.048 C 
HETATM   10  C19         0      21.889  63.815  -8.964  1.00  0.00     0.096 C 
HETATM   11  C21         0      22.638  64.090  -7.852  1.00  0.00     0.084 C 
ENDROOT
BRANCH  10  12
HETATM   12  O20         0      22.009  62.551  -9.535  1.00  0.00    -0.359 OA
HETATM   13  H20         0      22.878  62.173  -9.600  1.00  0.00     0.218 HD
ENDBRANCH  10  12
BRANCH   4  14
HETATM   14  C5          0      24.550  65.080  -4.330  1.00  0.00     0.025 C 
HETATM   15  C6          0      24.632  64.073  -3.380  1.00  0.00     0.004 C 
HETATM   16  C7          0      25.679  64.133  -2.466  1.00  0.00     0.026 C 
HETATM   17  C8          0      26.537  65.227  -2.411  1.00  0.00     0.112 C 
HETATM   18  C10         0      26.011  66.403  -2.927  1.00  0.00     0.112 C 
HETATM   19  C12         0      25.024  66.313  -3.902  1.00  0.00     0.028 C 
BRANCH  17  20
HETATM   20  O9          0      27.866  65.068  -2.062  1.00  0.00    -0.357 OA
HETATM   21  H9          0      28.580  65.541  -2.474  1.00  0.00     0.218 HD
ENDBRANCH  17  20
BRANCH  18  22
HETATM   22  O11         0      26.747  67.562  -2.727  1.00  0.00    -0.357 OA
HETATM   23  H11         0      26.677  68.237  -3.393  1.00  0.00     0.218 HD
ENDBRANCH  18  22
ENDBRANCH   4  14
BRANCH   8  24
HETATM   24  O17         0      19.048  65.909  -8.146  1.00  0.00    -0.359 OA
HETATM   25  H17         0      18.469  65.269  -7.747  1.00  0.00     0.218 HD
ENDBRANCH   8  24
TORSDOF 5
ENDMDL
MODEL 7
REMARK VINA RESULT:      -7.1      6.228      7.704
REMARK  5 active torsions:
REMARK  status: ('A' for Active; 'I' for Inactive)
REMARK    1  A    between atoms: C4_4  and  C5_5 
REMARK    2  A    between atoms: C8_8  and  O9_9 
REMARK    3  A    between atoms: C10_11  and  O11_12 
REMARK    4  A    between atoms: C16_18  and  O17_19 
REMARK    5  A    between atoms: C19_22  and  O20_23 
ROOT
HETATM    1  O1          0      19.578  60.680  -4.300  1.00  0.00    -0.286 OA
HETATM    2  C2          0      20.120  61.180  -5.323  1.00  0.00     0.201 C 
HETATM    3  C3          0      20.314  62.542  -5.480  1.00  0.00     0.067 C 
HETATM    4  C4          0      20.820  63.075  -6.660  1.00  0.00     0.103 C 
HETATM    5  O13         0      21.139  62.251  -7.643  1.00  0.00    -0.307 OA
HETATM    6  C14         0      20.941  60.954  -7.560  1.00  0.00     0.107 C 
HETATM    7  C15         0      20.890  60.148  -8.688  1.00  0.00     0.049 C 
HETATM    8  C16         0      20.431  58.838  -8.620  1.00  0.00     0.093 C 
HETATM    9  C18         0      20.544  58.241  -7.371  1.00  0.00     0.048 C 
HETATM   10  C19         0      20.644  59.018  -6.224  1.00  0.00     0.096 C 
HETATM   11  C21         0      20.648  60.382  -6.326  1.00  0.00     0.084 C 
ENDROOT
BRANCH  10  12
HETATM   12  O20         0      20.321  58.457  -4.992  1.00  0.00    -0.359 OA
HETATM   13  H20         0      20.359  57.511  -4.910  1.00  0.00     0.218 HD
ENDBRANCH  10  12
BRANCH   4  14
HETATM   14  C5          0      20.445  64.452  -6.989  1.00  0.00     0.025 C 
HETATM   15  C6          0      20.432  65.472  -6.049  1.00  0.00     0.004 C 
HETATM   16  C7          0      20.864  66.730  -6.456  1.00  0.00     0.026 C 
HETATM   17  C8          0      21.172  67.000  -7.785  1.00  0.00     0.112 C 
HETATM   18  C10         0      20.566  66.153  -8.704  1.00  0.00     0.112 C 
HETATM   19  C12         0      20.221  64.871  -8.294  1.00  0.00     0.028 C 
BRANCH  17  20
HETATM   20  O9          0      22.167  67.904  -8.113  1.00  0.00    -0.357 OA
HETATM   21  H9          0      22.043  68.846  -8.119  1.00  0.00     0.218 HD
ENDBRANCH  17  20
BRANCH  18  22
HETATM   22  O11         0      20.686  66.492 -10.045  1.00  0.00    -0.357 OA
HETATM   23  H11         0      21.409  66.103 -10.523  1.00  0.00     0.218 HD
ENDBRANCH  18  22
ENDBRANCH   4  14
BRANCH   8  24
HETATM   24  O17         0      19.621  58.297  -9.624  1.00  0.00    -0.359 OA
HETATM   25  H17         0      18.936  58.806 -10.042  1.00  0.00     0.218 HD
ENDBRANCH   8  24
TORSDOF 5
ENDMDL
MODEL 8
REMARK VINA RESULT:      -7.1      4.764      7.100
REMARK  5 active torsions:
REMARK  status: ('A' for Active; 'I' for Inactive)
REMARK    1  A    between atoms: C4_4  and  C5_5 
REMARK    2  A    between atoms: C8_8  and  O9_9 
REMARK    3  A    between atoms: C10_11  and  O11_12 
REMARK    4  A    between atoms: C16_18  and  O17_19 
REMARK    5  A    between atoms: C19_22  and  O20_23 
ROOT
HETATM    1  O1          0      26.278  65.231  -6.374  1.00  0.00    -0.286 OA
HETATM    2  C2          0      25.109  64.907  -6.026  1.00  0.00     0.201 C 
HETATM    3  C3          0      24.206  64.313  -6.892  1.00  0.00     0.067 C 
HETATM    4  C4          0      22.893  64.061  -6.513  1.00  0.00     0.103 C 
HETATM    5  O13         0      22.512  64.380  -5.289  1.00  0.00    -0.307 OA
HETATM    6  C14         0      23.318  64.980  -4.440  1.00  0.00     0.107 C 
HETATM    7  C15         0      22.837  65.666  -3.335  1.00  0.00     0.049 C 
HETATM    8  C16         0      23.659  66.504  -2.591  1.00  0.00     0.093 C 
HETATM    9  C18         0      25.016  66.211  -2.665  1.00  0.00     0.048 C 
HETATM   10  C19         0      25.524  65.486  -3.734  1.00  0.00     0.096 C 
HETATM   11  C21         0      24.680  65.041  -4.715  1.00  0.00     0.084 C 
ENDROOT
BRANCH  10  12
HETATM   12  O20         0      26.881  65.571  -4.029  1.00  0.00    -0.359 OA
HETATM   13  H20         0      27.281  66.433  -4.042  1.00  0.00     0.218 HD
ENDBRANCH  10  12
BRANCH   4  14
HETATM   14  C5          0      21.886  64.018  -7.575  1.00  0.00     0.025 C 
HETATM   15  C6          0      20.643  64.622  -7.458  1.00  0.00     0.004 C 
HETATM   16  C7          0      20.117  65.239  -8.588  1.00  0.00     0.026 C 
HETATM   17  C8          0      20.740  65.145  -9.828  1.00  0.00     0.112 C 
HETATM   18  C10         0      21.575  64.045  -9.975  1.00  0.00     0.112 C 
HETATM   19  C12         0      22.155  63.500  -8.836  1.00  0.00     0.028 C 
BRANCH  17  20
HETATM   20  O9          0      20.679  66.189 -10.734  1.00  0.00    -0.357 OA
HETATM   21  H9          0      21.389  66.420 -11.322  1.00  0.00     0.218 HD
ENDBRANCH  17  20
BRANCH  18  22
HETATM   22  O11         0      22.072  63.798 -11.247  1.00  0.00    -0.357 OA
HETATM   23  H11         0      22.642  63.045 -11.347  1.00  0.00     0.218 HD
ENDBRANCH  18  22
ENDBRANCH   4  14
BRANCH   8  24
HETATM   24  O17         0      23.196  67.728  -2.096  1.00  0.00    -0.359 OA
HETATM   25  H17         0      22.278  67.872  -1.900  1.00  0.00     0.218 HD
ENDBRANCH   8  24
TORSDOF 5
ENDMDL
MODEL 9
REMARK VINA RESULT:      -7.1      4.977      7.909
REMARK  5 active torsions:
REMARK  status: ('A' for Active; 'I' for Inactive)
REMARK    1  A    between atoms: C4_4  and  C5_5 
REMARK    2  A    between atoms: C8_8  and  O9_9 
REMARK    3  A    between atoms: C10_11  and  O11_12 
REMARK    4  A    between atoms: C16_18  and  O17_19 
REMARK    5  A    between atoms: C19_22  and  O20_23 
ROOT
HETATM    1  O1          0      20.176  60.140  -4.981  1.00  0.00    -0.286 OA
HETATM    2  C2          0      20.549  60.104  -6.185  1.00  0.00     0.201 C 
HETATM    3  C3          0      21.277  61.123  -6.776  1.00  0.00     0.067 C 
HETATM    4  C4          0      21.587  61.105  -8.132  1.00  0.00     0.103 C 
HETATM    5  O13         0      21.189  60.078  -8.861  1.00  0.00    -0.307 OA
HETATM    6  C14         0      20.463  59.103  -8.358  1.00  0.00     0.107 C 
HETATM    7  C15         0      19.718  58.255  -9.164  1.00  0.00     0.049 C 
HETATM    8  C16         0      18.763  57.401  -8.626  1.00  0.00     0.093 C 
HETATM    9  C18         0      18.966  57.059  -7.294  1.00  0.00     0.048 C 
HETATM   10  C19         0      19.745  57.860  -6.471  1.00  0.00     0.096 C 
HETATM   11  C21         0      20.331  58.988  -6.978  1.00  0.00     0.084 C 
ENDROOT
BRANCH  10  12
HETATM   12  O20         0      19.592  57.769  -5.091  1.00  0.00    -0.359 OA
HETATM   13  H20         0      19.955  57.009  -4.652  1.00  0.00     0.218 HD
ENDBRANCH  10  12
BRANCH   4  14
HETATM   14  C5          0      21.792  62.398  -8.788  1.00  0.00     0.025 C 
HETATM   15  C6          0      22.501  62.535  -9.973  1.00  0.00     0.004 C 
HETATM   16  C7          0      22.029  63.456 -10.903  1.00  0.00     0.026 C 
HETATM   17  C8          0      20.969  64.308 -10.613  1.00  0.00     0.112 C 
HETATM   18  C10         0      20.762  64.536  -9.259  1.00  0.00     0.112 C 
HETATM   19  C12         0      21.167  63.560  -8.356  1.00  0.00     0.028 C 
BRANCH  17  20
HETATM   20  O9          0      20.086  64.703 -11.603  1.00  0.00    -0.357 OA
HETATM   21  H9          0      19.423  65.373 -11.481  1.00  0.00     0.218 HD
ENDBRANCH  17  20
BRANCH  18  22
HETATM   22  O11         0      19.844  65.520  -8.921  1.00  0.00    -0.357 OA
HETATM   23  H11         0      18.961  65.419  -9.257  1.00  0.00     0.218 HD
ENDBRANCH  18  22
ENDBRANCH   4  14
BRANCH   8  24
HETATM   24  O17         0      17.536  57.186  -9.262  1.00  0.00    -0.359 OA
HETATM   25  H17         0      17.485  56.826 -10.140  1.00  0.00     0.218 HD
ENDBRANCH   8  24
TORSDOF 5
ENDMDL
