MODEL 1
REMARK VINA RESULT:      -4.6      0.000      0.000
REMARK  5 active torsions:
REMARK  status: ('A' for Active; 'I' for Inactive)
REMARK    1  A    between atoms: C4_4  and  C5_5 
REMARK    2  A    between atoms: C8_8  and  O9_9 
REMARK    3  A    between atoms: C10_11  and  O11_12 
REMARK    4  A    between atoms: C16_18  and  O17_19 
REMARK    5  A    between atoms: C19_22  and  O20_23 
ROOT
HETATM    1  O1          0      37.212 115.841  -0.900  1.00  0.00    -0.286 OA
HETATM    2  C2          0      36.272 115.001  -0.951  1.00  0.00     0.201 C 
HETATM    3  C3          0      36.478 113.660  -1.226  1.00  0.00     0.067 C 
HETATM    4  C4          0      35.416 112.776  -1.378  1.00  0.00     0.103 C 
HETATM    5  O13         0      34.184 113.233  -1.233  1.00  0.00    -0.307 OA
HETATM    6  C14         0      33.932 114.504  -1.009  1.00  0.00     0.107 C 
HETATM    7  C15         0      32.682 115.055  -1.251  1.00  0.00     0.049 C 
HETATM    8  C16         0      32.489 116.431  -1.257  1.00  0.00     0.093 C 
HETATM    9  C18         0      33.413 117.157  -0.516  1.00  0.00     0.048 C 
HETATM   10  C19         0      34.656 116.617  -0.215  1.00  0.00     0.096 C 
HETATM   11  C21         0      34.968 115.354  -0.638  1.00  0.00     0.084 C 
ENDROOT
BRANCH  10  12
HETATM   12  O20         0      35.703 117.468   0.125  1.00  0.00    -0.359 OA
HETATM   13  H20         0      36.469 117.089   0.539  1.00  0.00     0.218 HD
ENDBRANCH  10  12
BRANCH   4  14
HETATM   14  C5          0      35.637 111.602  -2.223  1.00  0.00     0.025 C 
HETATM   15  C6          0      34.752 111.214  -3.218  1.00  0.00     0.004 C 
HETATM   16  C7          0      35.289 110.716  -4.401  1.00  0.00     0.026 C 
HETATM   17  C8          0      36.653 110.484  -4.542  1.00  0.00     0.112 C 
HETATM   18  C10         0      37.335 110.295  -3.347  1.00  0.00     0.112 C 
HETATM   19  C12         0      36.821 110.876  -2.194  1.00  0.00     0.028 C 
BRANCH  17  20
HETATM   20  O9          0      37.278 110.649  -5.765  1.00  0.00    -0.357 OA
HETATM   21  H9          0      38.203 110.491  -5.911  1.00  0.00     0.218 HD
ENDBRANCH  17  20
BRANCH  18  22
HETATM   22  O11         0      38.655 109.875  -3.437  1.00  0.00    -0.357 OA
HETATM   23  H11         0      39.286 110.506  -3.764  1.00  0.00     0.218 HD
ENDBRANCH  18  22
ENDBRANCH   4  14
BRANCH   8  24
HETATM   24  O17         0      31.653 117.046  -2.197  1.00  0.00    -0.359 OA
HETATM   25  H17         0      31.905 117.848  -2.639  1.00  0.00     0.218 HD
ENDBRANCH   8  24
TORSDOF 5
ENDMDL
MODEL 2
REMARK VINA RESULT:      -4.1      3.894      6.122
REMARK  5 active torsions:
REMARK  status: ('A' for Active; 'I' for Inactive)
REMARK    1  A    between atoms: C4_4  and  C5_5 
REMARK    2  A    between atoms: C8_8  and  O9_9 
REMARK    3  A    between atoms: C10_11  and  O11_12 
REMARK    4  A    between atoms: C16_18  and  O17_19 
REMARK    5  A    between atoms: C19_22  and  O20_23 
ROOT
HETATM    1  O1          0      32.482 115.188  -1.011  1.00  0.00    -0.286 OA
HETATM    2  C2          0      32.669 114.478  -2.038  1.00  0.00     0.201 C 
HETATM    3  C3          0      31.647 114.126  -2.903  1.00  0.00     0.067 C 
HETATM    4  C4          0      31.860 113.259  -3.969  1.00  0.00     0.103 C 
HETATM    5  O13         0      33.077 112.782  -4.164  1.00  0.00    -0.307 OA
HETATM    6  C14         0      34.074 113.055  -3.352  1.00  0.00     0.107 C 
HETATM    7  C15         0      35.216 112.268  -3.307  1.00  0.00     0.049 C 
HETATM    8  C16         0      36.146 112.404  -2.283  1.00  0.00     0.093 C 
HETATM    9  C18         0      36.159 113.648  -1.663  1.00  0.00     0.048 C 
HETATM   10  C19         0      35.049 114.480  -1.727  1.00  0.00     0.096 C 
HETATM   11  C21         0      33.940 114.079  -2.421  1.00  0.00     0.084 C 
ENDROOT
BRANCH  10  12
HETATM   12  O20         0      34.897 115.486  -0.778  1.00  0.00    -0.359 OA
HETATM   13  H20         0      34.347 115.308  -0.025  1.00  0.00     0.218 HD
ENDBRANCH  10  12
BRANCH   4  14
HETATM   14  C5          0      30.713 112.481  -4.439  1.00  0.00     0.025 C 
HETATM   15  C6          0      30.788 111.123  -4.715  1.00  0.00     0.004 C 
HETATM   16  C7          0      29.696 110.334  -4.367  1.00  0.00     0.026 C 
HETATM   17  C8          0      28.517 110.891  -3.887  1.00  0.00     0.112 C 
HETATM   18  C10         0      28.316 112.219  -4.241  1.00  0.00     0.112 C 
HETATM   19  C12         0      29.430 113.008  -4.500  1.00  0.00     0.028 C 
BRANCH  17  20
HETATM   20  O9          0      27.740 110.218  -2.960  1.00  0.00    -0.357 OA
HETATM   21  H9          0      27.842 110.309  -2.020  1.00  0.00     0.218 HD
ENDBRANCH  17  20
BRANCH  18  22
HETATM   22  O11         0      27.075 112.766  -3.950  1.00  0.00    -0.357 OA
HETATM   23  H11         0      26.929 113.051  -3.055  1.00  0.00     0.218 HD
ENDBRANCH  18  22
ENDBRANCH   4  14
BRANCH   8  24
HETATM   24  O17         0      36.766 111.289  -1.708  1.00  0.00    -0.359 OA
HETATM   25  H17         0      36.704 111.108  -0.778  1.00  0.00     0.218 HD
ENDBRANCH   8  24
TORSDOF 5
ENDMDL
MODEL 3
REMARK VINA RESULT:      -4.0      2.895      5.202
REMARK  5 active torsions:
REMARK  status: ('A' for Active; 'I' for Inactive)
REMARK    1  A    between atoms: C4_4  and  C5_5 
REMARK    2  A    between atoms: C8_8  and  O9_9 
REMARK    3  A    between atoms: C10_11  and  O11_12 
REMARK    4  A    between atoms: C16_18  and  O17_19 
REMARK    5  A    between atoms: C19_22  and  O20_23 
ROOT
HETATM    1  O1          0      30.640 117.998  -1.767  1.00  0.00    -0.286 OA
HETATM    2  C2          0      31.134 116.837  -1.738  1.00  0.00     0.201 C 
HETATM    3  C3          0      32.198 116.494  -0.921  1.00  0.00     0.067 C 
HETATM    4  C4          0      32.788 115.237  -0.983  1.00  0.00     0.103 C 
HETATM    5  O13         0      32.302 114.349  -1.831  1.00  0.00    -0.307 OA
HETATM    6  C14         0      31.318 114.634  -2.655  1.00  0.00     0.107 C 
HETATM    7  C15         0      31.073 113.877  -3.792  1.00  0.00     0.049 C 
HETATM    8  C16         0      30.208 114.323  -4.784  1.00  0.00     0.093 C 
HETATM    9  C18         0      29.245 115.231  -4.358  1.00  0.00     0.048 C 
HETATM   10  C19         0      29.437 115.972  -3.200  1.00  0.00     0.096 C 
HETATM   11  C21         0      30.575 115.794  -2.461  1.00  0.00     0.084 C 
ENDROOT
BRANCH  10  12
HETATM   12  O20         0      28.719 117.149  -3.018  1.00  0.00    -0.359 OA
HETATM   13  H20         0      29.207 117.955  -2.901  1.00  0.00     0.218 HD
ENDBRANCH  10  12
BRANCH   4  14
HETATM   14  C5          0      34.194 115.138  -0.587  1.00  0.00     0.025 C 
HETATM   15  C6          0      34.700 114.060   0.125  1.00  0.00     0.004 C 
HETATM   16  C7          0      35.974 113.609  -0.207  1.00  0.00     0.026 C 
HETATM   17  C8          0      36.772 114.287  -1.122  1.00  0.00     0.112 C 
HETATM   18  C10         0      36.459 115.630  -1.280  1.00  0.00     0.112 C 
HETATM   19  C12         0      35.156 116.040  -1.023  1.00  0.00     0.028 C 
BRANCH  17  20
HETATM   20  O9          0      37.651 113.601  -1.941  1.00  0.00    -0.357 OA
HETATM   21  H9          0      37.582 112.672  -2.130  1.00  0.00     0.218 HD
ENDBRANCH  17  20
BRANCH  18  22
HETATM   22  O11         0      37.338 116.396  -2.033  1.00  0.00    -0.357 OA
HETATM   23  H11         0      37.813 117.081  -1.576  1.00  0.00     0.218 HD
ENDBRANCH  18  22
ENDBRANCH   4  14
BRANCH   8  24
HETATM   24  O17         0      30.497 114.139  -6.140  1.00  0.00    -0.359 OA
HETATM   25  H17         0      31.388 114.031  -6.451  1.00  0.00     0.218 HD
ENDBRANCH   8  24
TORSDOF 5
ENDMDL
MODEL 4
REMARK VINA RESULT:      -3.9      2.957      7.762
REMARK  5 active torsions:
REMARK  status: ('A' for Active; 'I' for Inactive)
REMARK    1  A    between atoms: C4_4  and  C5_5 
REMARK    2  A    between atoms: C8_8  and  O9_9 
REMARK    3  A    between atoms: C10_11  and  O11_12 
REMARK    4  A    between atoms: C16_18  and  O17_19 
REMARK    5  A    between atoms: C19_22  and  O20_23 
ROOT
HETATM    1  O1          0      32.759 113.372  -3.353  1.00  0.00    -0.286 OA
HETATM    2  C2          0      32.460 114.297  -2.549  1.00  0.00     0.201 C 
HETATM    3  C3          0      31.327 115.080  -2.693  1.00  0.00     0.067 C 
HETATM    4  C4          0      31.075 116.159  -1.853  1.00  0.00     0.103 C 
HETATM    5  O13         0      31.934 116.423  -0.884  1.00  0.00    -0.307 OA
HETATM    6  C14         0      33.043 115.735  -0.727  1.00  0.00     0.107 C 
HETATM    7  C15         0      34.115 116.233  -0.000  1.00  0.00     0.049 C 
HETATM    8  C16         0      35.364 115.625  -0.048  1.00  0.00     0.093 C 
HETATM    9  C18         0      35.349 114.278  -0.389  1.00  0.00     0.048 C 
HETATM   10  C19         0      34.271 113.737  -1.076  1.00  0.00     0.096 C 
HETATM   11  C21         0      33.206 114.531  -1.404  1.00  0.00     0.084 C 
ENDROOT
BRANCH  10  12
HETATM   12  O20         0      34.440 112.549  -1.781  1.00  0.00    -0.359 OA
HETATM   13  H20         0      33.755 112.287  -2.383  1.00  0.00     0.218 HD
ENDBRANCH  10  12
BRANCH   4  14
HETATM   14  C5          0      30.262 117.251  -2.391  1.00  0.00     0.025 C 
HETATM   15  C6          0      29.175 117.038  -3.227  1.00  0.00     0.004 C 
HETATM   16  C7          0      28.060 117.852  -3.055  1.00  0.00     0.026 C 
HETATM   17  C8          0      28.073 118.929  -2.175  1.00  0.00     0.112 C 
HETATM   18  C10         0      29.336 119.429  -1.888  1.00  0.00     0.112 C 
HETATM   19  C12         0      30.424 118.569  -1.986  1.00  0.00     0.028 C 
BRANCH  17  20
HETATM   20  O9          0      26.926 119.305  -1.498  1.00  0.00    -0.357 OA
HETATM   21  H9          0      26.390 120.051  -1.742  1.00  0.00     0.218 HD
ENDBRANCH  17  20
BRANCH  18  22
HETATM   22  O11         0      29.395 120.615  -1.170  1.00  0.00    -0.357 OA
HETATM   23  H11         0      29.453 121.419  -1.673  1.00  0.00     0.218 HD
ENDBRANCH  18  22
ENDBRANCH   4  14
BRANCH   8  24
HETATM   24  O17         0      36.541 116.381  -0.086  1.00  0.00    -0.359 OA
HETATM   25  H17         0      36.899 116.708  -0.903  1.00  0.00     0.218 HD
ENDBRANCH   8  24
TORSDOF 5
ENDMDL
MODEL 5
REMARK VINA RESULT:      -3.7      2.419      7.265
REMARK  5 active torsions:
REMARK  status: ('A' for Active; 'I' for Inactive)
REMARK    1  A    between atoms: C4_4  and  C5_5 
REMARK    2  A    between atoms: C8_8  and  O9_9 
REMARK    3  A    between atoms: C10_11  and  O11_12 
REMARK    4  A    between atoms: C16_18  and  O17_19 
REMARK    5  A    between atoms: C19_22  and  O20_23 
ROOT
HETATM    1  O1          0      33.712 114.296  -4.255  1.00  0.00    -0.286 OA
HETATM    2  C2          0      33.475 114.584  -3.050  1.00  0.00     0.201 C 
HETATM    3  C3          0      32.478 115.467  -2.672  1.00  0.00     0.067 C 
HETATM    4  C4          0      32.305 115.846  -1.346  1.00  0.00     0.103 C 
HETATM    5  O13         0      33.105 115.331  -0.429  1.00  0.00    -0.307 OA
HETATM    6  C14         0      34.091 114.519  -0.738  1.00  0.00     0.107 C 
HETATM    7  C15         0      35.155 114.298   0.125  1.00  0.00     0.049 C 
HETATM    8  C16         0      36.308 113.649  -0.301  1.00  0.00     0.093 C 
HETATM    9  C18         0      36.137 112.803  -1.390  1.00  0.00     0.048 C 
HETATM   10  C19         0      35.057 112.967  -2.248  1.00  0.00     0.096 C 
HETATM   11  C21         0      34.145 113.958  -2.010  1.00  0.00     0.084 C 
ENDROOT
BRANCH  10  12
HETATM   12  O20         0      35.122 112.434  -3.532  1.00  0.00    -0.359 OA
HETATM   13  H20         0      35.919 111.986  -3.788  1.00  0.00     0.218 HD
ENDBRANCH  10  12
BRANCH   4  14
HETATM   14  C5          0      31.699 117.156  -1.098  1.00  0.00     0.025 C 
HETATM   15  C6          0      31.970 117.907   0.037  1.00  0.00     0.004 C 
HETATM   16  C7          0      32.076 119.286  -0.113  1.00  0.00     0.026 C 
HETATM   17  C8          0      31.791 119.912  -1.321  1.00  0.00     0.112 C 
HETATM   18  C10         0      30.950 119.195  -2.162  1.00  0.00     0.112 C 
HETATM   19  C12         0      30.926 117.810  -2.048  1.00  0.00     0.028 C 
BRANCH  17  20
HETATM   20  O9          0      32.476 121.050  -1.709  1.00  0.00    -0.357 OA
HETATM   21  H9          0      33.362 121.042  -2.053  1.00  0.00     0.218 HD
ENDBRANCH  17  20
BRANCH  18  22
HETATM   22  O11         0      30.483 119.851  -3.292  1.00  0.00    -0.357 OA
HETATM   23  H11         0      29.718 119.482  -3.718  1.00  0.00     0.218 HD
ENDBRANCH  18  22
ENDBRANCH   4  14
BRANCH   8  24
HETATM   24  O17         0      37.576 114.073   0.110  1.00  0.00    -0.359 OA
HETATM   25  H17         0      38.001 113.705   0.876  1.00  0.00     0.218 HD
ENDBRANCH   8  24
TORSDOF 5
ENDMDL
MODEL 6
REMARK VINA RESULT:      -3.4      3.094      5.510
REMARK  5 active torsions:
REMARK  status: ('A' for Active; 'I' for Inactive)
REMARK    1  A    between atoms: C4_4  and  C5_5 
REMARK    2  A    between atoms: C8_8  and  O9_9 
REMARK    3  A    between atoms: C10_11  and  O11_12 
REMARK    4  A    between atoms: C16_18  and  O17_19 
REMARK    5  A    between atoms: C19_22  and  O20_23 
ROOT
HETATM    1  O1          0      32.609 117.005  -5.048  1.00  0.00    -0.286 OA
HETATM    2  C2          0      32.348 116.191  -4.120  1.00  0.00     0.201 C 
HETATM    3  C3          0      33.049 116.163  -2.927  1.00  0.00     0.067 C 
HETATM    4  C4          0      32.809 115.190  -1.964  1.00  0.00     0.103 C 
HETATM    5  O13         0      31.872 114.287  -2.194  1.00  0.00    -0.307 OA
HETATM    6  C14         0      31.203 114.246  -3.325  1.00  0.00     0.107 C 
HETATM    7  C15         0      30.530 113.104  -3.735  1.00  0.00     0.049 C 
HETATM    8  C16         0      30.044 112.979  -5.031  1.00  0.00     0.093 C 
HETATM    9  C18         0      29.792 114.181  -5.682  1.00  0.00     0.048 C 
HETATM   10  C19         0      30.414 115.351  -5.268  1.00  0.00     0.096 C 
HETATM   11  C21         0      31.268 115.325  -4.200  1.00  0.00     0.084 C 
ENDROOT
BRANCH  10  12
HETATM   12  O20         0      30.508 116.421  -6.153  1.00  0.00    -0.359 OA
HETATM   13  H20         0      29.838 116.507  -6.820  1.00  0.00     0.218 HD
ENDBRANCH  10  12
BRANCH   4  14
HETATM   14  C5          0      33.915 114.845  -1.069  1.00  0.00     0.025 C 
HETATM   15  C6          0      34.327 113.539  -0.851  1.00  0.00     0.004 C 
HETATM   16  C7          0      35.693 113.306  -0.725  1.00  0.00     0.026 C 
HETATM   17  C8          0      36.610 114.350  -0.683  1.00  0.00     0.112 C 
HETATM   18  C10         0      36.084 115.568  -0.275  1.00  0.00     0.112 C 
HETATM   19  C12         0      34.732 115.808  -0.490  1.00  0.00     0.028 C 
BRANCH  17  20
HETATM   20  O9          0      37.879 114.201  -1.215  1.00  0.00    -0.357 OA
HETATM   21  H9          0      38.528 113.599  -0.871  1.00  0.00     0.218 HD
ENDBRANCH  17  20
BRANCH  18  22
HETATM   22  O11         0      36.986 116.594  -0.034  1.00  0.00    -0.357 OA
HETATM   23  H11         0      37.224 117.141  -0.774  1.00  0.00     0.218 HD
ENDBRANCH  18  22
ENDBRANCH   4  14
BRANCH   8  24
HETATM   24  O17         0      30.129 111.769  -5.728  1.00  0.00    -0.359 OA
HETATM   25  H17         0      30.137 110.933  -5.277  1.00  0.00     0.218 HD
ENDBRANCH   8  24
TORSDOF 5
ENDMDL
MODEL 7
REMARK VINA RESULT:      -3.4      3.330      5.803
REMARK  5 active torsions:
REMARK  status: ('A' for Active; 'I' for Inactive)
REMARK    1  A    between atoms: C4_4  and  C5_5 
REMARK    2  A    between atoms: C8_8  and  O9_9 
REMARK    3  A    between atoms: C10_11  and  O11_12 
REMARK    4  A    between atoms: C16_18  and  O17_19 
REMARK    5  A    between atoms: C19_22  and  O20_23 
ROOT
HETATM    1  O1          0      33.547 116.165   0.125  1.00  0.00    -0.286 OA
HETATM    2  C2          0      33.424 115.539  -0.964  1.00  0.00     0.201 C 
HETATM    3  C3          0      32.261 115.564  -1.716  1.00  0.00     0.067 C 
HETATM    4  C4          0      32.116 114.785  -2.858  1.00  0.00     0.103 C 
HETATM    5  O13         0      33.125 114.021  -3.238  1.00  0.00    -0.307 OA
HETATM    6  C14         0      34.236 113.932  -2.540  1.00  0.00     0.107 C 
HETATM    7  C15         0      35.113 112.868  -2.694  1.00  0.00     0.049 C 
HETATM    8  C16         0      36.143 112.644  -1.788  1.00  0.00     0.093 C 
HETATM    9  C18         0      36.564 113.769  -1.089  1.00  0.00     0.048 C 
HETATM   10  C19         0      35.729 114.871  -0.955  1.00  0.00     0.096 C 
HETATM   11  C21         0      34.488 114.855  -1.531  1.00  0.00     0.084 C 
ENDROOT
BRANCH  10  12
HETATM   12  O20         0      35.960 115.779   0.073  1.00  0.00    -0.359 OA
HETATM   13  H20         0      35.212 116.229   0.446  1.00  0.00     0.218 HD
ENDBRANCH  10  12
BRANCH   4  14
HETATM   14  C5          0      30.756 114.394  -3.233  1.00  0.00     0.025 C 
HETATM   15  C6          0      29.722 115.309  -3.372  1.00  0.00     0.004 C 
HETATM   16  C7          0      28.814 115.103  -4.406  1.00  0.00     0.026 C 
HETATM   17  C8          0      28.851 113.956  -5.192  1.00  0.00     0.112 C 
HETATM   18  C10         0      29.468 112.865  -4.596  1.00  0.00     0.112 C 
HETATM   19  C12         0      30.434 113.101  -3.625  1.00  0.00     0.028 C 
BRANCH  17  20
HETATM   20  O9          0      28.487 114.000  -6.526  1.00  0.00    -0.357 OA
HETATM   21  H9          0      27.759 114.512  -6.858  1.00  0.00     0.218 HD
ENDBRANCH  17  20
BRANCH  18  22
HETATM   22  O11         0      29.367 111.648  -5.256  1.00  0.00    -0.357 OA
HETATM   23  H11         0      30.180 111.222  -5.500  1.00  0.00     0.218 HD
ENDBRANCH  18  22
ENDBRANCH   4  14
BRANCH   8  24
HETATM   24  O17         0      36.483 111.352  -1.375  1.00  0.00    -0.359 OA
HETATM   25  H17         0      36.561 110.635  -1.993  1.00  0.00     0.218 HD
ENDBRANCH   8  24
TORSDOF 5
ENDMDL
MODEL 8
REMARK VINA RESULT:      -3.4      2.849      6.646
REMARK  5 active torsions:
REMARK  status: ('A' for Active; 'I' for Inactive)
REMARK    1  A    between atoms: C4_4  and  C5_5 
REMARK    2  A    between atoms: C8_8  and  O9_9 
REMARK    3  A    between atoms: C10_11  and  O11_12 
REMARK    4  A    between atoms: C16_18  and  O17_19 
REMARK    5  A    between atoms: C19_22  and  O20_23 
ROOT
HETATM    1  O1          0      34.045 115.344  -6.527  1.00  0.00    -0.286 OA
HETATM    2  C2          0      34.072 114.318  -5.794  1.00  0.00     0.201 C 
HETATM    3  C3          0      33.799 114.358  -4.437  1.00  0.00     0.067 C 
HETATM    4  C4          0      33.935 113.231  -3.633  1.00  0.00     0.103 C 
HETATM    5  O13         0      34.316 112.096  -4.191  1.00  0.00    -0.307 OA
HETATM    6  C14         0      34.624 112.012  -5.467  1.00  0.00     0.107 C 
HETATM    7  C15         0      35.389 110.968  -5.967  1.00  0.00     0.049 C 
HETATM    8  C16         0      35.923 111.015  -7.249  1.00  0.00     0.093 C 
HETATM    9  C18         0      35.244 111.840  -8.138  1.00  0.00     0.048 C 
HETATM   10  C19         0      34.433 112.865  -7.670  1.00  0.00     0.096 C 
HETATM   11  C21         0      34.288 113.055  -6.323  1.00  0.00     0.084 C 
ENDROOT
BRANCH  10  12
HETATM   12  O20         0      34.121 113.925  -8.516  1.00  0.00    -0.359 OA
HETATM   13  H20         0      34.235 113.798  -9.450  1.00  0.00     0.218 HD
ENDBRANCH  10  12
BRANCH   4  14
HETATM   14  C5          0      34.224 113.452  -2.215  1.00  0.00     0.025 C 
HETATM   15  C6          0      35.330 112.907  -1.579  1.00  0.00     0.004 C 
HETATM   16  C7          0      35.982 113.691  -0.633  1.00  0.00     0.026 C 
HETATM   17  C8          0      35.475 114.922  -0.232  1.00  0.00     0.112 C 
HETATM   18  C10         0      34.109 115.078  -0.427  1.00  0.00     0.112 C 
HETATM   19  C12         0      33.498 114.344  -1.437  1.00  0.00     0.028 C 
BRANCH  17  20
HETATM   20  O9          0      36.323 115.956   0.125  1.00  0.00    -0.357 OA
HETATM   21  H9          0      36.190 116.508   0.887  1.00  0.00     0.218 HD
ENDBRANCH  17  20
BRANCH  18  22
HETATM   22  O11         0      33.520 116.207   0.125  1.00  0.00    -0.357 OA
HETATM   23  H11         0      32.797 116.594  -0.356  1.00  0.00     0.218 HD
ENDBRANCH  18  22
ENDBRANCH   4  14
BRANCH   8  24
HETATM   24  O17         0      37.214 110.547  -7.519  1.00  0.00    -0.359 OA
HETATM   25  H17         0      37.367 109.818  -8.108  1.00  0.00     0.218 HD
ENDBRANCH   8  24
TORSDOF 5
ENDMDL
MODEL 9
REMARK VINA RESULT:      -3.2      2.419      6.998
REMARK  5 active torsions:
REMARK  status: ('A' for Active; 'I' for Inactive)
REMARK    1  A    between atoms: C4_4  and  C5_5 
REMARK    2  A    between atoms: C8_8  and  O9_9 
REMARK    3  A    between atoms: C10_11  and  O11_12 
REMARK    4  A    between atoms: C16_18  and  O17_19 
REMARK    5  A    between atoms: C19_22  and  O20_23 
ROOT
HETATM    1  O1          0      30.847 114.328  -4.414  1.00  0.00    -0.286 OA
HETATM    2  C2          0      31.822 114.140  -3.635  1.00  0.00     0.201 C 
HETATM    3  C3          0      31.906 114.725  -2.384  1.00  0.00     0.067 C 
HETATM    4  C4          0      33.038 114.584  -1.588  1.00  0.00     0.103 C 
HETATM    5  O13         0      34.043 113.854  -2.038  1.00  0.00    -0.307 OA
HETATM    6  C14         0      34.030 113.308  -3.234  1.00  0.00     0.107 C 
HETATM    7  C15         0      35.196 112.896  -3.863  1.00  0.00     0.049 C 
HETATM    8  C16         0      35.209 112.560  -5.211  1.00  0.00     0.093 C 
HETATM    9  C18         0      33.985 112.150  -5.726  1.00  0.00     0.048 C 
HETATM   10  C19         0      32.800 112.505  -5.096  1.00  0.00     0.096 C 
HETATM   11  C21         0      32.838 113.250  -3.949  1.00  0.00     0.084 C 
ENDROOT
BRANCH  10  12
HETATM   12  O20         0      31.611 112.478  -5.818  1.00  0.00    -0.359 OA
HETATM   13  H20         0      31.631 112.777  -6.719  1.00  0.00     0.218 HD
ENDBRANCH  10  12
BRANCH   4  14
HETATM   14  C5          0      33.317 115.650  -0.625  1.00  0.00     0.025 C 
HETATM   15  C6          0      34.574 115.860  -0.078  1.00  0.00     0.004 C 
HETATM   16  C7          0      34.982 117.176   0.115  1.00  0.00     0.026 C 
HETATM   17  C8          0      34.121 118.246  -0.101  1.00  0.00     0.112 C 
HETATM   18  C10         0      32.771 117.929  -0.020  1.00  0.00     0.112 C 
HETATM   19  C12         0      32.381 116.625  -0.302  1.00  0.00     0.028 C 
BRANCH  17  20
HETATM   20  O9          0      34.599 119.458  -0.565  1.00  0.00    -0.357 OA
HETATM   21  H9          0      34.399 120.294  -0.161  1.00  0.00     0.218 HD
ENDBRANCH  17  20
BRANCH  18  22
HETATM   22  O11         0      31.875 118.988  -0.040  1.00  0.00    -0.357 OA
HETATM   23  H11         0      31.612 119.313  -0.893  1.00  0.00     0.218 HD
ENDBRANCH  18  22
ENDBRANCH   4  14
BRANCH   8  24
HETATM   24  O17         0      36.271 112.929  -6.045  1.00  0.00    -0.359 OA
HETATM   25  H17         0      37.104 113.220  -5.693  1.00  0.00     0.218 HD
ENDBRANCH   8  24
TORSDOF 5
ENDMDL
