MODEL 1
REMARK VINA RESULT:      -4.9      0.000      0.000
REMARK  5 active torsions:
REMARK  status: ('A' for Active; 'I' for Inactive)
REMARK    1  A    between atoms: C4_4  and  C5_5 
REMARK    2  A    between atoms: C8_8  and  O9_9 
REMARK    3  A    between atoms: C10_11  and  O11_12 
REMARK    4  A    between atoms: C16_18  and  O17_19 
REMARK    5  A    between atoms: C19_22  and  O20_23 
ROOT
HETATM    1  O1          0      42.316 107.227  -4.083  1.00  0.00    -0.286 OA
HETATM    2  C2          0      43.513 107.625  -4.119  1.00  0.00     0.201 C 
HETATM    3  C3          0      44.511 106.941  -4.791  1.00  0.00     0.067 C 
HETATM    4  C4          0      45.840 107.346  -4.729  1.00  0.00     0.103 C 
HETATM    5  O13         0      46.144 108.422  -4.025  1.00  0.00    -0.307 OA
HETATM    6  C14         0      45.240 109.086  -3.338  1.00  0.00     0.107 C 
HETATM    7  C15         0      45.591 109.943  -2.305  1.00  0.00     0.049 C 
HETATM    8  C16         0      44.639 110.440  -1.423  1.00  0.00     0.093 C 
HETATM    9  C18         0      43.343 110.482  -1.923  1.00  0.00     0.048 C 
HETATM   10  C19         0      42.970 109.672  -2.987  1.00  0.00     0.096 C 
HETATM   11  C21         0      43.890 108.836  -3.559  1.00  0.00     0.084 C 
ENDROOT
BRANCH  10  12
HETATM   12  O20         0      41.622 109.395  -3.191  1.00  0.00    -0.359 OA
HETATM   13  H20         0      41.265 109.535  -4.060  1.00  0.00     0.218 HD
ENDBRANCH  10  12
BRANCH   4  14
HETATM   14  C5          0      46.863 106.316  -4.918  1.00  0.00     0.025 C 
HETATM   15  C6          0      48.084 106.338  -4.259  1.00  0.00     0.004 C 
HETATM   16  C7          0      48.605 105.122  -3.828  1.00  0.00     0.026 C 
HETATM   17  C8          0      48.003 103.912  -4.156  1.00  0.00     0.112 C 
HETATM   18  C10         0      47.208 103.950  -5.294  1.00  0.00     0.112 C 
HETATM   19  C12         0      46.630 105.162  -5.655  1.00  0.00     0.028 C 
BRANCH  17  20
HETATM   20  O9          0      48.043 102.840  -3.283  1.00  0.00    -0.357 OA
HETATM   21  H9          0      48.007 102.928  -2.337  1.00  0.00     0.218 HD
ENDBRANCH  17  20
BRANCH  18  22
HETATM   22  O11         0      46.738 102.736  -5.774  1.00  0.00    -0.357 OA
HETATM   23  H11         0      47.286 101.974  -5.624  1.00  0.00     0.218 HD
ENDBRANCH  18  22
ENDBRANCH   4  14
BRANCH   8  24
HETATM   24  O17         0      44.904 110.560  -0.055  1.00  0.00    -0.359 OA
HETATM   25  H17         0      44.715 111.360   0.421  1.00  0.00     0.218 HD
ENDBRANCH   8  24
TORSDOF 5
ENDMDL
MODEL 2
REMARK VINA RESULT:      -4.6      2.224      3.485
REMARK  5 active torsions:
REMARK  status: ('A' for Active; 'I' for Inactive)
REMARK    1  A    between atoms: C4_4  and  C5_5 
REMARK    2  A    between atoms: C8_8  and  O9_9 
REMARK    3  A    between atoms: C10_11  and  O11_12 
REMARK    4  A    between atoms: C16_18  and  O17_19 
REMARK    5  A    between atoms: C19_22  and  O20_23 
ROOT
HETATM    1  O1          0      45.889 108.141  -7.290  1.00  0.00    -0.286 OA
HETATM    2  C2          0      45.750 108.101  -6.037  1.00  0.00     0.201 C 
HETATM    3  C3          0      46.796 107.820  -5.174  1.00  0.00     0.067 C 
HETATM    4  C4          0      46.595 107.681  -3.805  1.00  0.00     0.103 C 
HETATM    5  O13         0      45.375 107.842  -3.324  1.00  0.00    -0.307 OA
HETATM    6  C14         0      44.341 108.073  -4.103  1.00  0.00     0.107 C 
HETATM    7  C15         0      43.040 107.848  -3.676  1.00  0.00     0.049 C 
HETATM    8  C16         0      41.977 107.847  -4.571  1.00  0.00     0.093 C 
HETATM    9  C18         0      42.188 108.577  -5.734  1.00  0.00     0.048 C 
HETATM   10  C19         0      43.476 108.860  -6.165  1.00  0.00     0.096 C 
HETATM   11  C21         0      44.548 108.431  -5.430  1.00  0.00     0.084 C 
ENDROOT
BRANCH  10  12
HETATM   12  O20         0      43.691 109.188  -7.500  1.00  0.00    -0.359 OA
HETATM   13  H20         0      43.029 108.935  -8.133  1.00  0.00     0.218 HD
ENDBRANCH  10  12
BRANCH   4  14
HETATM   14  C5          0      47.535 106.830  -3.073  1.00  0.00     0.025 C 
HETATM   15  C6          0      48.125 107.217  -1.879  1.00  0.00     0.004 C 
HETATM   16  C7          0      48.293 106.244  -0.898  1.00  0.00     0.026 C 
HETATM   17  C8          0      48.010 104.905  -1.144  1.00  0.00     0.112 C 
HETATM   18  C10         0      48.046 104.540  -2.483  1.00  0.00     0.112 C 
HETATM   19  C12         0      47.790 105.515  -3.440  1.00  0.00     0.028 C 
BRANCH  17  20
HETATM   20  O9          0      47.528 104.087  -0.138  1.00  0.00    -0.357 OA
HETATM   21  H9          0      47.082 103.262  -0.296  1.00  0.00     0.218 HD
ENDBRANCH  17  20
BRANCH  18  22
HETATM   22  O11         0      47.958 103.185  -2.768  1.00  0.00    -0.357 OA
HETATM   23  H11         0      47.381 102.667  -2.219  1.00  0.00     0.218 HD
ENDBRANCH  18  22
ENDBRANCH   4  14
BRANCH   8  24
HETATM   24  O17         0      40.934 106.919  -4.463  1.00  0.00    -0.359 OA
HETATM   25  H17         0      41.101 105.996  -4.314  1.00  0.00     0.218 HD
ENDBRANCH   8  24
TORSDOF 5
ENDMDL
MODEL 3
REMARK VINA RESULT:      -4.4      1.714      7.247
REMARK  5 active torsions:
REMARK  status: ('A' for Active; 'I' for Inactive)
REMARK    1  A    between atoms: C4_4  and  C5_5 
REMARK    2  A    between atoms: C8_8  and  O9_9 
REMARK    3  A    between atoms: C10_11  and  O11_12 
REMARK    4  A    between atoms: C16_18  and  O17_19 
REMARK    5  A    between atoms: C19_22  and  O20_23 
ROOT
HETATM    1  O1          0      48.517 103.236  -2.819  1.00  0.00    -0.286 OA
HETATM    2  C2          0      48.104 103.854  -3.838  1.00  0.00     0.201 C 
HETATM    3  C3          0      47.845 105.214  -3.837  1.00  0.00     0.067 C 
HETATM    4  C4          0      47.294 105.852  -4.944  1.00  0.00     0.103 C 
HETATM    5  O13         0      47.034 105.137  -6.024  1.00  0.00    -0.307 OA
HETATM    6  C14         0      47.227 103.836  -6.065  1.00  0.00     0.107 C 
HETATM    7  C15         0      46.603 103.034  -7.009  1.00  0.00     0.049 C 
HETATM    8  C16         0      46.604 101.649  -6.894  1.00  0.00     0.093 C 
HETATM    9  C18         0      47.653 101.123  -6.151  1.00  0.00     0.048 C 
HETATM   10  C19         0      48.330 101.911  -5.230  1.00  0.00     0.096 C 
HETATM   11  C21         0      47.973 103.222  -5.065  1.00  0.00     0.084 C 
ENDROOT
BRANCH  10  12
HETATM   12  O20         0      49.051 101.298  -4.210  1.00  0.00    -0.359 OA
HETATM   13  H20         0      48.742 101.407  -3.319  1.00  0.00     0.218 HD
ENDBRANCH  10  12
BRANCH   4  14
HETATM   14  C5          0      46.513 107.065  -4.697  1.00  0.00     0.025 C 
HETATM   15  C6          0      45.568 107.546  -5.592  1.00  0.00     0.004 C 
HETATM   16  C7          0      44.402 108.093  -5.066  1.00  0.00     0.026 C 
HETATM   17  C8          0      44.237 108.280  -3.698  1.00  0.00     0.112 C 
HETATM   18  C10         0      45.421 108.371  -2.978  1.00  0.00     0.112 C 
HETATM   19  C12         0      46.552 107.742  -3.485  1.00  0.00     0.028 C 
BRANCH  17  20
HETATM   20  O9          0      42.989 108.165  -3.112  1.00  0.00    -0.357 OA
HETATM   21  H9          0      42.851 107.897  -2.211  1.00  0.00     0.218 HD
ENDBRANCH  17  20
BRANCH  18  22
HETATM   22  O11         0      45.319 108.744  -1.645  1.00  0.00    -0.357 OA
HETATM   23  H11         0      45.448 109.664  -1.445  1.00  0.00     0.218 HD
ENDBRANCH  18  22
ENDBRANCH   4  14
BRANCH   8  24
HETATM   24  O17         0      45.470 100.891  -7.207  1.00  0.00    -0.359 OA
HETATM   25  H17         0      45.536  99.981  -7.472  1.00  0.00     0.218 HD
ENDBRANCH   8  24
TORSDOF 5
ENDMDL
MODEL 4
REMARK VINA RESULT:      -4.4      1.774      6.754
REMARK  5 active torsions:
REMARK  status: ('A' for Active; 'I' for Inactive)
REMARK    1  A    between atoms: C4_4  and  C5_5 
REMARK    2  A    between atoms: C8_8  and  O9_9 
REMARK    3  A    between atoms: C10_11  and  O11_12 
REMARK    4  A    between atoms: C16_18  and  O17_19 
REMARK    5  A    between atoms: C19_22  and  O20_23 
ROOT
HETATM    1  O1          0      48.371 106.171  -0.790  1.00  0.00    -0.286 OA
HETATM    2  C2          0      47.957 106.335  -1.970  1.00  0.00     0.201 C 
HETATM    3  C3          0      47.151 107.398  -2.342  1.00  0.00     0.067 C 
HETATM    4  C4          0      46.624 107.498  -3.624  1.00  0.00     0.103 C 
HETATM    5  O13         0      46.922 106.563  -4.508  1.00  0.00    -0.307 OA
HETATM    6  C14         0      47.652 105.514  -4.197  1.00  0.00     0.107 C 
HETATM    7  C15         0      47.638 104.359  -4.966  1.00  0.00     0.049 C 
HETATM    8  C16         0      48.202 103.177  -4.503  1.00  0.00     0.093 C 
HETATM    9  C18         0      49.196 103.337  -3.546  1.00  0.00     0.048 C 
HETATM   10  C19         0      49.268 104.499  -2.791  1.00  0.00     0.096 C 
HETATM   11  C21         0      48.363 105.503  -3.002  1.00  0.00     0.084 C 
ENDROOT
BRANCH  10  12
HETATM   12  O20         0      49.952 104.482  -1.579  1.00  0.00    -0.359 OA
HETATM   13  H20         0      50.776 104.010  -1.539  1.00  0.00     0.218 HD
ENDBRANCH  10  12
BRANCH   4  14
HETATM   14  C5          0      45.370 108.238  -3.777  1.00  0.00     0.025 C 
HETATM   15  C6          0      44.470 107.989  -4.803  1.00  0.00     0.004 C 
HETATM   16  C7          0      43.113 108.055  -4.500  1.00  0.00     0.026 C 
HETATM   17  C8          0      42.664 108.486  -3.257  1.00  0.00     0.112 C 
HETATM   18  C10         0      43.560 109.288  -2.562  1.00  0.00     0.112 C 
HETATM   19  C12         0      44.917 109.141  -2.823  1.00  0.00     0.028 C 
BRANCH  17  20
HETATM   20  O9          0      41.508 107.966  -2.701  1.00  0.00    -0.357 OA
HETATM   21  H9          0      41.377 107.042  -2.524  1.00  0.00     0.218 HD
ENDBRANCH  17  20
BRANCH  18  22
HETATM   22  O11         0      43.093 109.898  -1.407  1.00  0.00    -0.357 OA
HETATM   23  H11         0      42.953 109.338  -0.651  1.00  0.00     0.218 HD
ENDBRANCH  18  22
ENDBRANCH   4  14
BRANCH   8  24
HETATM   24  O17         0      47.589 101.939  -4.728  1.00  0.00    -0.359 OA
HETATM   25  H17         0      47.082 101.504  -4.054  1.00  0.00     0.218 HD
ENDBRANCH   8  24
TORSDOF 5
ENDMDL
MODEL 5
REMARK VINA RESULT:      -4.3      2.013      2.698
REMARK  5 active torsions:
REMARK  status: ('A' for Active; 'I' for Inactive)
REMARK    1  A    between atoms: C4_4  and  C5_5 
REMARK    2  A    between atoms: C8_8  and  O9_9 
REMARK    3  A    between atoms: C10_11  and  O11_12 
REMARK    4  A    between atoms: C16_18  and  O17_19 
REMARK    5  A    between atoms: C19_22  and  O20_23 
ROOT
HETATM    1  O1          0      43.713 108.938  -7.595  1.00  0.00    -0.286 OA
HETATM    2  C2          0      44.095 108.587  -6.445  1.00  0.00     0.201 C 
HETATM    3  C3          0      45.357 108.074  -6.198  1.00  0.00     0.067 C 
HETATM    4  C4          0      45.717 107.599  -4.942  1.00  0.00     0.103 C 
HETATM    5  O13         0      44.834 107.664  -3.962  1.00  0.00    -0.307 OA
HETATM    6  C14         0      43.610 108.107  -4.152  1.00  0.00     0.107 C 
HETATM    7  C15         0      42.581 107.813  -3.269  1.00  0.00     0.049 C 
HETATM    8  C16         0      41.254 108.063  -3.598  1.00  0.00     0.093 C 
HETATM    9  C18         0      41.063 109.057  -4.550  1.00  0.00     0.048 C 
HETATM   10  C19         0      42.087 109.409  -5.419  1.00  0.00     0.096 C 
HETATM   11  C21         0      43.300 108.783  -5.327  1.00  0.00     0.084 C 
ENDROOT
BRANCH  10  12
HETATM   12  O20         0      41.776 110.057  -6.610  1.00  0.00    -0.359 OA
HETATM   13  H20         0      42.256 109.809  -7.391  1.00  0.00     0.218 HD
ENDBRANCH  10  12
BRANCH   4  14
HETATM   14  C5          0      46.757 106.570  -4.888  1.00  0.00     0.025 C 
HETATM   15  C6          0      47.866 106.664  -4.059  1.00  0.00     0.004 C 
HETATM   16  C7          0      48.316 105.496  -3.451  1.00  0.00     0.026 C 
HETATM   17  C8          0      47.770 104.255  -3.759  1.00  0.00     0.112 C 
HETATM   18  C10         0      47.153 104.186  -5.001  1.00  0.00     0.112 C 
HETATM   19  C12         0      46.636 105.354  -5.548  1.00  0.00     0.028 C 
BRANCH  17  20
HETATM   20  O9          0      47.679 103.263  -2.800  1.00  0.00    -0.357 OA
HETATM   21  H9          0      47.827 102.341  -2.978  1.00  0.00     0.218 HD
ENDBRANCH  17  20
BRANCH  18  22
HETATM   22  O11         0      46.760 102.929  -5.438  1.00  0.00    -0.357 OA
HETATM   23  H11         0      45.861 102.838  -5.734  1.00  0.00     0.218 HD
ENDBRANCH  18  22
ENDBRANCH   4  14
BRANCH   8  24
HETATM   24  O17         0      40.237 107.163  -3.259  1.00  0.00    -0.359 OA
HETATM   25  H17         0      39.322 107.418  -3.270  1.00  0.00     0.218 HD
ENDBRANCH   8  24
TORSDOF 5
ENDMDL
MODEL 6
REMARK VINA RESULT:      -4.1      4.432      7.056
REMARK  5 active torsions:
REMARK  status: ('A' for Active; 'I' for Inactive)
REMARK    1  A    between atoms: C4_4  and  C5_5 
REMARK    2  A    between atoms: C8_8  and  O9_9 
REMARK    3  A    between atoms: C10_11  and  O11_12 
REMARK    4  A    between atoms: C16_18  and  O17_19 
REMARK    5  A    between atoms: C19_22  and  O20_23 
ROOT
HETATM    1  O1          0      40.943 111.788  -7.626  1.00  0.00    -0.286 OA
HETATM    2  C2          0      41.032 110.567  -7.323  1.00  0.00     0.201 C 
HETATM    3  C3          0      41.353 110.131  -6.048  1.00  0.00     0.067 C 
HETATM    4  C4          0      41.545 108.784  -5.766  1.00  0.00     0.103 C 
HETATM    5  O13         0      41.396 107.903  -6.740  1.00  0.00    -0.307 OA
HETATM    6  C14         0      41.128 108.266  -7.975  1.00  0.00     0.107 C 
HETATM    7  C15         0      41.362 107.422  -9.051  1.00  0.00     0.049 C 
HETATM    8  C16         0      41.322 107.892 -10.359  1.00  0.00     0.093 C 
HETATM    9  C18         0      40.547 109.030 -10.550  1.00  0.00     0.048 C 
HETATM   10  C19         0      40.254 109.871  -9.485  1.00  0.00     0.096 C 
HETATM   11  C21         0      40.719 109.570  -8.234  1.00  0.00     0.084 C 
ENDROOT
BRANCH  10  12
HETATM   12  O20         0      39.875 111.186  -9.741  1.00  0.00    -0.359 OA
HETATM   13  H20         0      38.947 111.384  -9.764  1.00  0.00     0.218 HD
ENDBRANCH  10  12
BRANCH   4  14
HETATM   14  C5          0      42.430 108.453  -4.647  1.00  0.00     0.025 C 
HETATM   15  C6          0      43.651 107.817  -4.816  1.00  0.00     0.004 C 
HETATM   16  C7          0      44.708 108.225  -4.008  1.00  0.00     0.026 C 
HETATM   17  C8          0      44.526 109.139  -2.976  1.00  0.00     0.112 C 
HETATM   18  C10         0      43.227 109.219  -2.494  1.00  0.00     0.112 C 
HETATM   19  C12         0      42.183 108.886  -3.350  1.00  0.00     0.028 C 
BRANCH  17  20
HETATM   20  O9          0      45.529 110.027  -2.631  1.00  0.00    -0.357 OA
HETATM   21  H9          0      46.453 109.804  -2.625  1.00  0.00     0.218 HD
ENDBRANCH  17  20
BRANCH  18  22
HETATM   22  O11         0      43.027 109.971  -1.345  1.00  0.00    -0.357 OA
HETATM   23  H11         0      43.571 110.743  -1.237  1.00  0.00     0.218 HD
ENDBRANCH  18  22
ENDBRANCH   4  14
BRANCH   8  24
HETATM   24  O17         0      42.246 107.462 -11.317  1.00  0.00    -0.359 OA
HETATM   25  H17         0      42.909 106.813 -11.115  1.00  0.00     0.218 HD
ENDBRANCH   8  24
TORSDOF 5
ENDMDL
MODEL 7
REMARK VINA RESULT:      -4.1      2.639      4.168
REMARK  5 active torsions:
REMARK  status: ('A' for Active; 'I' for Inactive)
REMARK    1  A    between atoms: C4_4  and  C5_5 
REMARK    2  A    between atoms: C8_8  and  O9_9 
REMARK    3  A    between atoms: C10_11  and  O11_12 
REMARK    4  A    between atoms: C16_18  and  O17_19 
REMARK    5  A    between atoms: C19_22  and  O20_23 
ROOT
HETATM    1  O1          0      43.783 112.427  -3.255  1.00  0.00    -0.286 OA
HETATM    2  C2          0      43.836 111.210  -2.928  1.00  0.00     0.201 C 
HETATM    3  C3          0      44.880 110.676  -2.191  1.00  0.00     0.067 C 
HETATM    4  C4          0      44.965 109.313  -1.932  1.00  0.00     0.103 C 
HETATM    5  O13         0      44.012 108.519  -2.387  1.00  0.00    -0.307 OA
HETATM    6  C14         0      43.020 108.969  -3.122  1.00  0.00     0.107 C 
HETATM    7  C15         0      42.261 108.125  -3.921  1.00  0.00     0.049 C 
HETATM    8  C16         0      41.391 108.629  -4.881  1.00  0.00     0.093 C 
HETATM    9  C18         0      40.936 109.920  -4.640  1.00  0.00     0.048 C 
HETATM   10  C19         0      41.646 110.775  -3.809  1.00  0.00     0.096 C 
HETATM   11  C21         0      42.795 110.339  -3.208  1.00  0.00     0.084 C 
ENDROOT
BRANCH  10  12
HETATM   12  O20         0      41.446 112.148  -3.914  1.00  0.00    -0.359 OA
HETATM   13  H20         0      40.981 112.586  -3.211  1.00  0.00     0.218 HD
ENDBRANCH  10  12
BRANCH   4  14
HETATM   14  C5          0      46.301 108.756  -1.712  1.00  0.00     0.025 C 
HETATM   15  C6          0      46.962 108.843  -0.495  1.00  0.00     0.004 C 
HETATM   16  C7          0      47.712 107.745  -0.088  1.00  0.00     0.026 C 
HETATM   17  C8          0      47.910 106.648  -0.920  1.00  0.00     0.112 C 
HETATM   18  C10         0      47.768 106.916  -2.275  1.00  0.00     0.112 C 
HETATM   19  C12         0      46.944 107.967  -2.658  1.00  0.00     0.028 C 
BRANCH  17  20
HETATM   20  O9          0      48.025 105.373  -0.397  1.00  0.00    -0.357 OA
HETATM   21  H9          0      47.410 104.999   0.224  1.00  0.00     0.218 HD
ENDBRANCH  17  20
BRANCH  18  22
HETATM   22  O11         0      48.138 105.910  -3.156  1.00  0.00    -0.357 OA
HETATM   23  H11         0      48.153 105.023  -2.815  1.00  0.00     0.218 HD
ENDBRANCH  18  22
ENDBRANCH   4  14
BRANCH   8  24
HETATM   24  O17         0      41.262 108.025  -6.136  1.00  0.00    -0.359 OA
HETATM   25  H17         0      42.008 107.903  -6.711  1.00  0.00     0.218 HD
ENDBRANCH   8  24
TORSDOF 5
ENDMDL
MODEL 8
REMARK VINA RESULT:      -4.0      1.978      6.485
REMARK  5 active torsions:
REMARK  status: ('A' for Active; 'I' for Inactive)
REMARK    1  A    between atoms: C4_4  and  C5_5 
REMARK    2  A    between atoms: C8_8  and  O9_9 
REMARK    3  A    between atoms: C10_11  and  O11_12 
REMARK    4  A    between atoms: C16_18  and  O17_19 
REMARK    5  A    between atoms: C19_22  and  O20_23 
ROOT
HETATM    1  O1          0      47.352 108.805  -2.510  1.00  0.00    -0.286 OA
HETATM    2  C2          0      46.750 108.122  -3.383  1.00  0.00     0.201 C 
HETATM    3  C3          0      45.534 108.500  -3.926  1.00  0.00     0.067 C 
HETATM    4  C4          0      44.844 107.679  -4.810  1.00  0.00     0.103 C 
HETATM    5  O13         0      45.379 106.519  -5.148  1.00  0.00    -0.307 OA
HETATM    6  C14         0      46.512 106.095  -4.633  1.00  0.00     0.107 C 
HETATM    7  C15         0      46.872 104.755  -4.663  1.00  0.00     0.049 C 
HETATM    8  C16         0      47.932 104.276  -3.903  1.00  0.00     0.093 C 
HETATM    9  C18         0      48.892 105.225  -3.571  1.00  0.00     0.048 C 
HETATM   10  C19         0      48.578 106.578  -3.577  1.00  0.00     0.096 C 
HETATM   11  C21         0      47.319 106.981  -3.929  1.00  0.00     0.084 C 
ENDROOT
BRANCH  10  12
HETATM   12  O20         0      49.367 107.462  -2.846  1.00  0.00    -0.359 OA
HETATM   13  H20         0      49.996 107.992  -3.320  1.00  0.00     0.218 HD
ENDBRANCH  10  12
BRANCH   4  14
HETATM   14  C5          0      43.388 107.825  -4.862  1.00  0.00     0.025 C 
HETATM   15  C6          0      42.549 107.360  -3.859  1.00  0.00     0.004 C 
HETATM   16  C7          0      41.445 108.140  -3.529  1.00  0.00     0.026 C 
HETATM   17  C8          0      41.110 109.276  -4.258  1.00  0.00     0.112 C 
HETATM   18  C10         0      41.595 109.294  -5.559  1.00  0.00     0.112 C 
HETATM   19  C12         0      42.749 108.573  -5.843  1.00  0.00     0.028 C 
BRANCH  17  20
HETATM   20  O9          0      40.525 110.367  -3.642  1.00  0.00    -0.357 OA
HETATM   21  H9          0      39.978 110.306  -2.867  1.00  0.00     0.218 HD
ENDBRANCH  17  20
BRANCH  18  22
HETATM   22  O11         0      41.136 110.307  -6.388  1.00  0.00    -0.357 OA
HETATM   23  H11         0      40.630 110.045  -7.149  1.00  0.00     0.218 HD
ENDBRANCH  18  22
ENDBRANCH   4  14
BRANCH   8  24
HETATM   24  O17         0      47.862 103.041  -3.250  1.00  0.00    -0.359 OA
HETATM   25  H17         0      48.089 102.230  -3.690  1.00  0.00     0.218 HD
ENDBRANCH   8  24
TORSDOF 5
ENDMDL
MODEL 9
REMARK VINA RESULT:      -4.0      4.054      6.265
REMARK  5 active torsions:
REMARK  status: ('A' for Active; 'I' for Inactive)
REMARK    1  A    between atoms: C4_4  and  C5_5 
REMARK    2  A    between atoms: C8_8  and  O9_9 
REMARK    3  A    between atoms: C10_11  and  O11_12 
REMARK    4  A    between atoms: C16_18  and  O17_19 
REMARK    5  A    between atoms: C19_22  and  O20_23 
ROOT
HETATM    1  O1          0      40.230 111.623  -3.207  1.00  0.00    -0.286 OA
HETATM    2  C2          0      41.069 111.291  -4.089  1.00  0.00     0.201 C 
HETATM    3  C3          0      40.749 111.202  -5.433  1.00  0.00     0.067 C 
HETATM    4  C4          0      41.664 110.736  -6.370  1.00  0.00     0.103 C 
HETATM    5  O13         0      42.872 110.391  -5.960  1.00  0.00    -0.307 OA
HETATM    6  C14         0      43.215 110.421  -4.691  1.00  0.00     0.107 C 
HETATM    7  C15         0      44.301 109.703  -4.210  1.00  0.00     0.049 C 
HETATM    8  C16         0      44.506 109.532  -2.846  1.00  0.00     0.093 C 
HETATM    9  C18         0      43.932 110.508  -2.040  1.00  0.00     0.048 C 
HETATM   10  C19         0      42.874 111.276  -2.506  1.00  0.00     0.096 C 
HETATM   11  C21         0      42.404 111.083  -3.777  1.00  0.00     0.084 C 
ENDROOT
BRANCH  10  12
HETATM   12  O20         0      42.042 111.914  -1.592  1.00  0.00    -0.359 OA
HETATM   13  H20         0      42.446 112.453  -0.922  1.00  0.00     0.218 HD
ENDBRANCH  10  12
BRANCH   4  14
HETATM   14  C5          0      41.125 110.111  -7.579  1.00  0.00     0.025 C 
HETATM   15  C6          0      40.982 110.794  -8.778  1.00  0.00     0.004 C 
HETATM   16  C7          0      41.258 110.101  -9.952  1.00  0.00     0.026 C 
HETATM   17  C8          0      41.537 108.738  -9.946  1.00  0.00     0.112 C 
HETATM   18  C10         0      41.045 108.051  -8.845  1.00  0.00     0.112 C 
HETATM   19  C12         0      40.858 108.751  -7.659  1.00  0.00     0.028 C 
BRANCH  17  20
HETATM   20  O9          0      42.415 108.190 -10.864  1.00  0.00    -0.357 OA
HETATM   21  H9          0      42.581 108.562 -11.723  1.00  0.00     0.218 HD
ENDBRANCH  17  20
BRANCH  18  22
HETATM   22  O11         0      41.129 106.666  -8.879  1.00  0.00    -0.357 OA
HETATM   23  H11         0      40.596 106.219  -9.527  1.00  0.00     0.218 HD
ENDBRANCH  18  22
ENDBRANCH   4  14
BRANCH   8  24
HETATM   24  O17         0      44.953 108.314  -2.323  1.00  0.00    -0.359 OA
HETATM   25  H17         0      44.371 107.570  -2.225  1.00  0.00     0.218 HD
ENDBRANCH   8  24
TORSDOF 5
ENDMDL
