MODEL 1
REMARK VINA RESULT:      -6.6      0.000      0.000
REMARK  5 active torsions:
REMARK  status: ('A' for Active; 'I' for Inactive)
REMARK    1  A    between atoms: C4_4  and  C5_5 
REMARK    2  A    between atoms: C8_8  and  O9_9 
REMARK    3  A    between atoms: C10_11  and  O11_12 
REMARK    4  A    between atoms: C16_18  and  O17_19 
REMARK    5  A    between atoms: C19_22  and  O20_23 
ROOT
HETATM    1  O1          0      39.875  54.717  21.137  1.00  0.00    -0.286 OA
HETATM    2  C2          0      40.859  54.355  20.435  1.00  0.00     0.201 C 
HETATM    3  C3          0      40.716  53.745  19.200  1.00  0.00     0.067 C 
HETATM    4  C4          0      41.813  53.264  18.494  1.00  0.00     0.103 C 
HETATM    5  O13         0      43.018  53.415  19.014  1.00  0.00    -0.307 OA
HETATM    6  C14         0      43.206  53.953  20.199  1.00  0.00     0.107 C 
HETATM    7  C15         0      44.380  53.758  20.912  1.00  0.00     0.049 C 
HETATM    8  C16         0      44.476  54.108  22.253  1.00  0.00     0.093 C 
HETATM    9  C18         0      43.594  55.099  22.666  1.00  0.00     0.048 C 
HETATM   10  C19         0      42.433  55.353  21.949  1.00  0.00     0.096 C 
HETATM   11  C21         0      42.162  54.633  20.817  1.00  0.00     0.084 C 
ENDROOT
BRANCH  10  12
HETATM   12  O20         0      41.375  56.004  22.576  1.00  0.00    -0.359 OA
HETATM   13  H20         0      40.738  55.475  23.040  1.00  0.00     0.218 HD
ENDBRANCH  10  12
BRANCH   4  14
HETATM   14  C5          0      41.578  52.155  17.568  1.00  0.00     0.025 C 
HETATM   15  C6          0      40.307  51.741  17.196  1.00  0.00     0.004 C 
HETATM   16  C7          0      40.118  51.349  15.875  1.00  0.00     0.026 C 
HETATM   17  C8          0      41.182  51.242  14.986  1.00  0.00     0.112 C 
HETATM   18  C10         0      42.420  51.055  15.584  1.00  0.00     0.112 C 
HETATM   19  C12         0      42.609  51.533  16.875  1.00  0.00     0.028 C 
BRANCH  17  20
HETATM   20  O9          0      41.012  51.518  13.641  1.00  0.00    -0.357 OA
HETATM   21  H9          0      40.613  52.316  13.312  1.00  0.00     0.218 HD
ENDBRANCH  17  20
BRANCH  18  22
HETATM   22  O11         0      43.484  50.754  14.746  1.00  0.00    -0.357 OA
HETATM   23  H11         0      44.045  51.476  14.487  1.00  0.00     0.218 HD
ENDBRANCH  18  22
ENDBRANCH   4  14
BRANCH   8  24
HETATM   24  O17         0      45.156  53.299  23.171  1.00  0.00    -0.359 OA
HETATM   25  H17         0      45.166  52.353  23.091  1.00  0.00     0.218 HD
ENDBRANCH   8  24
TORSDOF 5
ENDMDL
MODEL 2
REMARK VINA RESULT:      -6.6     14.469     14.907
REMARK  5 active torsions:
REMARK  status: ('A' for Active; 'I' for Inactive)
REMARK    1  A    between atoms: C4_4  and  C5_5 
REMARK    2  A    between atoms: C8_8  and  O9_9 
REMARK    3  A    between atoms: C10_11  and  O11_12 
REMARK    4  A    between atoms: C16_18  and  O17_19 
REMARK    5  A    between atoms: C19_22  and  O20_23 
ROOT
HETATM    1  O1          0      44.735  66.153  14.654  1.00  0.00    -0.286 OA
HETATM    2  C2          0      44.555  66.144  13.406  1.00  0.00     0.201 C 
HETATM    3  C3          0      44.323  64.982  12.690  1.00  0.00     0.067 C 
HETATM    4  C4          0      44.230  64.987  11.303  1.00  0.00     0.103 C 
HETATM    5  O13         0      44.348  66.137  10.663  1.00  0.00    -0.307 OA
HETATM    6  C14         0      44.605  67.263  11.291  1.00  0.00     0.107 C 
HETATM    7  C15         0      45.118  68.369  10.628  1.00  0.00     0.049 C 
HETATM    8  C16         0      45.624  69.459  11.327  1.00  0.00     0.093 C 
HETATM    9  C18         0      45.121  69.617  12.612  1.00  0.00     0.048 C 
HETATM   10  C19         0      44.558  68.542  13.287  1.00  0.00     0.096 C 
HETATM   11  C21         0      44.484  67.320  12.675  1.00  0.00     0.084 C 
ENDROOT
BRANCH  10  12
HETATM   12  O20         0      44.465  68.583  14.675  1.00  0.00    -0.359 OA
HETATM   13  H20         0      45.270  68.552  15.176  1.00  0.00     0.218 HD
ENDBRANCH  10  12
BRANCH   4  14
HETATM   14  C5          0      44.588  63.751  10.603  1.00  0.00     0.025 C 
HETATM   15  C6          0      45.823  63.558  10.001  1.00  0.00     0.004 C 
HETATM   16  C7          0      46.394  62.293  10.093  1.00  0.00     0.026 C 
HETATM   17  C8          0      45.703  61.219  10.645  1.00  0.00     0.112 C 
HETATM   18  C10         0      44.321  61.347  10.623  1.00  0.00     0.112 C 
HETATM   19  C12         0      43.775  62.625  10.618  1.00  0.00     0.028 C 
BRANCH  17  20
HETATM   20  O9          0      46.373  60.227  11.339  1.00  0.00    -0.357 OA
HETATM   21  H9          0      47.294  60.273  11.568  1.00  0.00     0.218 HD
ENDBRANCH  17  20
BRANCH  18  22
HETATM   22  O11         0      43.581  60.230  10.986  1.00  0.00    -0.357 OA
HETATM   23  H11         0      42.640  60.343  11.058  1.00  0.00     0.218 HD
ENDBRANCH  18  22
ENDBRANCH   4  14
BRANCH   8  24
HETATM   24  O17         0      46.779  70.125  10.902  1.00  0.00    -0.359 OA
HETATM   25  H17         0      47.358  69.752  10.248  1.00  0.00     0.218 HD
ENDBRANCH   8  24
TORSDOF 5
ENDMDL
MODEL 3
REMARK VINA RESULT:      -6.5     13.043     13.414
REMARK  5 active torsions:
REMARK  status: ('A' for Active; 'I' for Inactive)
REMARK    1  A    between atoms: C4_4  and  C5_5 
REMARK    2  A    between atoms: C8_8  and  O9_9 
REMARK    3  A    between atoms: C10_11  and  O11_12 
REMARK    4  A    between atoms: C16_18  and  O17_19 
REMARK    5  A    between atoms: C19_22  and  O20_23 
ROOT
HETATM    1  O1          0      43.623  67.484  12.661  1.00  0.00    -0.286 OA
HETATM    2  C2          0      44.529  66.608  12.727  1.00  0.00     0.201 C 
HETATM    3  C3          0      44.846  65.775  11.668  1.00  0.00     0.067 C 
HETATM    4  C4          0      45.777  64.750  11.800  1.00  0.00     0.103 C 
HETATM    5  O13         0      46.382  64.588  12.964  1.00  0.00    -0.307 OA
HETATM    6  C14         0      46.090  65.327  14.012  1.00  0.00     0.107 C 
HETATM    7  C15         0      46.405  64.923  15.301  1.00  0.00     0.049 C 
HETATM    8  C16         0      45.876  65.572  16.410  1.00  0.00     0.093 C 
HETATM    9  C18         0      45.493  66.890  16.192  1.00  0.00     0.048 C 
HETATM   10  C19         0      45.215  67.340  14.908  1.00  0.00     0.096 C 
HETATM   11  C21         0      45.336  66.484  13.847  1.00  0.00     0.084 C 
ENDROOT
BRANCH  10  12
HETATM   12  O20         0      44.435  68.480  14.741  1.00  0.00    -0.359 OA
HETATM   13  H20         0      43.491  68.377  14.741  1.00  0.00     0.218 HD
ENDBRANCH  10  12
BRANCH   4  14
HETATM   14  C5          0      45.629  63.593  10.916  1.00  0.00     0.025 C 
HETATM   15  C6          0      46.672  63.091  10.152  1.00  0.00     0.004 C 
HETATM   16  C7          0      46.768  61.710  10.018  1.00  0.00     0.026 C 
HETATM   17  C8          0      45.784  60.860  10.512  1.00  0.00     0.112 C 
HETATM   18  C10         0      44.536  61.447  10.672  1.00  0.00     0.112 C 
HETATM   19  C12         0      44.476  62.819  10.890  1.00  0.00     0.028 C 
BRANCH  17  20
HETATM   20  O9          0      46.110  59.604  10.994  1.00  0.00    -0.357 OA
HETATM   21  H9          0      46.584  59.456  11.803  1.00  0.00     0.218 HD
ENDBRANCH  17  20
BRANCH  18  22
HETATM   22  O11         0      43.479  60.603  10.980  1.00  0.00    -0.357 OA
HETATM   23  H11         0      43.650  59.669  10.945  1.00  0.00     0.218 HD
ENDBRANCH  18  22
ENDBRANCH   4  14
BRANCH   8  24
HETATM   24  O17         0      45.455  64.861  17.540  1.00  0.00    -0.359 OA
HETATM   25  H17         0      45.783  65.064  18.408  1.00  0.00     0.218 HD
ENDBRANCH   8  24
TORSDOF 5
ENDMDL
MODEL 4
REMARK VINA RESULT:      -6.4     10.402     14.448
REMARK  5 active torsions:
REMARK  status: ('A' for Active; 'I' for Inactive)
REMARK    1  A    between atoms: C4_4  and  C5_5 
REMARK    2  A    between atoms: C8_8  and  O9_9 
REMARK    3  A    between atoms: C10_11  and  O11_12 
REMARK    4  A    between atoms: C16_18  and  O17_19 
REMARK    5  A    between atoms: C19_22  and  O20_23 
ROOT
HETATM    1  O1          0      51.487  51.505  23.877  1.00  0.00    -0.286 OA
HETATM    2  C2          0      52.240  52.480  24.148  1.00  0.00     0.201 C 
HETATM    3  C3          0      52.910  52.599  25.353  1.00  0.00     0.067 C 
HETATM    4  C4          0      53.652  53.732  25.666  1.00  0.00     0.103 C 
HETATM    5  O13         0      53.729  54.706  24.776  1.00  0.00    -0.307 OA
HETATM    6  C14         0      53.081  54.660  23.632  1.00  0.00     0.107 C 
HETATM    7  C15         0      52.829  55.804  22.889  1.00  0.00     0.049 C 
HETATM    8  C16         0      51.936  55.791  21.825  1.00  0.00     0.093 C 
HETATM    9  C18         0      51.745  54.548  21.234  1.00  0.00     0.048 C 
HETATM   10  C19         0      52.031  53.383  21.933  1.00  0.00     0.096 C 
HETATM   11  C21         0      52.522  53.460  23.208  1.00  0.00     0.084 C 
ENDROOT
BRANCH  10  12
HETATM   12  O20         0      51.447  52.186  21.530  1.00  0.00    -0.359 OA
HETATM   13  H20         0      51.073  51.626  22.199  1.00  0.00     0.218 HD
ENDBRANCH  10  12
BRANCH   4  14
HETATM   14  C5          0      53.808  54.060  27.085  1.00  0.00     0.025 C 
HETATM   15  C6          0      53.916  53.092  28.072  1.00  0.00     0.004 C 
HETATM   16  C7          0      54.798  53.335  29.120  1.00  0.00     0.026 C 
HETATM   17  C8          0      55.452  54.556  29.255  1.00  0.00     0.112 C 
HETATM   18  C10         0      54.822  55.623  28.629  1.00  0.00     0.112 C 
HETATM   19  C12         0      54.012  55.360  27.530  1.00  0.00     0.028 C 
BRANCH  17  20
HETATM   20  O9          0      56.726  54.622  29.789  1.00  0.00    -0.357 OA
HETATM   21  H9          0      57.441  54.054  29.523  1.00  0.00     0.218 HD
ENDBRANCH  17  20
BRANCH  18  22
HETATM   22  O11         0      55.326  56.890  28.888  1.00  0.00    -0.357 OA
HETATM   23  H11         0      54.694  57.593  28.979  1.00  0.00     0.218 HD
ENDBRANCH  18  22
ENDBRANCH   4  14
BRANCH   8  24
HETATM   24  O17         0      51.058  56.857  21.596  1.00  0.00    -0.359 OA
HETATM   25  H17         0      50.629  56.978  20.758  1.00  0.00     0.218 HD
ENDBRANCH   8  24
TORSDOF 5
ENDMDL
MODEL 5
REMARK VINA RESULT:      -6.4     14.361     15.683
REMARK  5 active torsions:
REMARK  status: ('A' for Active; 'I' for Inactive)
REMARK    1  A    between atoms: C4_4  and  C5_5 
REMARK    2  A    between atoms: C8_8  and  O9_9 
REMARK    3  A    between atoms: C10_11  and  O11_12 
REMARK    4  A    between atoms: C16_18  and  O17_19 
REMARK    5  A    between atoms: C19_22  and  O20_23 
ROOT
HETATM    1  O1          0      48.291  63.671  10.719  1.00  0.00    -0.286 OA
HETATM    2  C2          0      47.058  63.882  10.558  1.00  0.00     0.201 C 
HETATM    3  C3          0      46.502  65.149  10.600  1.00  0.00     0.067 C 
HETATM    4  C4          0      45.128  65.345  10.521  1.00  0.00     0.103 C 
HETATM    5  O13         0      44.343  64.291  10.382  1.00  0.00    -0.307 OA
HETATM    6  C14         0      44.816  63.064  10.374  1.00  0.00     0.107 C 
HETATM    7  C15         0      44.007  61.967  10.630  1.00  0.00     0.049 C 
HETATM    8  C16         0      44.549  60.710  10.872  1.00  0.00     0.093 C 
HETATM    9  C18         0      45.814  60.504  10.334  1.00  0.00     0.048 C 
HETATM   10  C19         0      46.633  61.581  10.022  1.00  0.00     0.096 C 
HETATM   11  C21         0      46.184  62.857  10.230  1.00  0.00     0.084 C 
ENDROOT
BRANCH  10  12
HETATM   12  O20         0      48.005  61.382   9.909  1.00  0.00    -0.359 OA
HETATM   13  H20         0      48.317  60.496   9.770  1.00  0.00     0.218 HD
ENDBRANCH  10  12
BRANCH   4  14
HETATM   14  C5          0      44.585  66.549  11.154  1.00  0.00     0.025 C 
HETATM   15  C6          0      43.961  66.531  12.392  1.00  0.00     0.004 C 
HETATM   16  C7          0      44.195  67.602  13.248  1.00  0.00     0.026 C 
HETATM   17  C8          0      44.917  68.718  12.839  1.00  0.00     0.112 C 
HETATM   18  C10         0      44.941  68.921  11.466  1.00  0.00     0.112 C 
HETATM   19  C12         0      44.788  67.820  10.632  1.00  0.00     0.028 C 
BRANCH  17  20
HETATM   20  O9          0      45.707  69.418  13.733  1.00  0.00    -0.357 OA
HETATM   21  H9          0      45.543  70.318  13.990  1.00  0.00     0.218 HD
ENDBRANCH  17  20
BRANCH  18  22
HETATM   22  O11         0      45.483  70.117  11.017  1.00  0.00    -0.357 OA
HETATM   23  H11         0      45.157  70.454  10.190  1.00  0.00     0.218 HD
ENDBRANCH  18  22
ENDBRANCH   4  14
BRANCH   8  24
HETATM   24  O17         0      44.019  59.863  11.851  1.00  0.00    -0.359 OA
HETATM   25  H17         0      43.627  60.203  12.646  1.00  0.00     0.218 HD
ENDBRANCH   8  24
TORSDOF 5
ENDMDL
MODEL 6
REMARK VINA RESULT:      -6.3     14.197     14.676
REMARK  5 active torsions:
REMARK  status: ('A' for Active; 'I' for Inactive)
REMARK    1  A    between atoms: C4_4  and  C5_5 
REMARK    2  A    between atoms: C8_8  and  O9_9 
REMARK    3  A    between atoms: C10_11  and  O11_12 
REMARK    4  A    between atoms: C16_18  and  O17_19 
REMARK    5  A    between atoms: C19_22  and  O20_23 
ROOT
HETATM    1  O1          0      47.997  65.727  13.450  1.00  0.00    -0.286 OA
HETATM    2  C2          0      48.181  65.176  12.330  1.00  0.00     0.201 C 
HETATM    3  C3          0      47.157  64.589  11.606  1.00  0.00     0.067 C 
HETATM    4  C4          0      47.404  63.899  10.424  1.00  0.00     0.103 C 
HETATM    5  O13         0      48.646  63.825   9.980  1.00  0.00    -0.307 OA
HETATM    6  C14         0      49.659  64.333  10.648  1.00  0.00     0.107 C 
HETATM    7  C15         0      50.965  63.927  10.414  1.00  0.00     0.049 C 
HETATM    8  C16         0      51.993  64.270  11.284  1.00  0.00     0.093 C 
HETATM    9  C18         0      51.768  65.416  12.037  1.00  0.00     0.048 C 
HETATM   10  C19         0      50.476  65.876  12.251  1.00  0.00     0.096 C 
HETATM   11  C21         0      49.416  65.206  11.703  1.00  0.00     0.084 C 
ENDROOT
BRANCH  10  12
HETATM   12  O20         0      50.225  66.725  13.325  1.00  0.00    -0.359 OA
HETATM   13  H20         0      49.571  67.404  13.212  1.00  0.00     0.218 HD
ENDBRANCH  10  12
BRANCH   4  14
HETATM   14  C5          0      46.460  62.842  10.056  1.00  0.00     0.025 C 
HETATM   15  C6          0      46.831  61.512   9.931  1.00  0.00     0.004 C 
HETATM   16  C7          0      45.933  60.547  10.376  1.00  0.00     0.026 C 
HETATM   17  C8          0      44.654  60.884  10.806  1.00  0.00     0.112 C 
HETATM   18  C10         0      44.174  62.089  10.309  1.00  0.00     0.112 C 
HETATM   19  C12         0      45.093  63.069   9.952  1.00  0.00     0.028 C 
BRANCH  17  20
HETATM   20  O9          0      44.031  60.164  11.809  1.00  0.00    -0.357 OA
HETATM   21  H9          0      44.485  59.560  12.385  1.00  0.00     0.218 HD
ENDBRANCH  17  20
BRANCH  18  22
HETATM   22  O11         0      42.840  62.382  10.552  1.00  0.00    -0.357 OA
HETATM   23  H11         0      42.259  62.394   9.801  1.00  0.00     0.218 HD
ENDBRANCH  18  22
ENDBRANCH   4  14
BRANCH   8  24
HETATM   24  O17         0      53.003  63.359  11.615  1.00  0.00    -0.359 OA
HETATM   25  H17         0      53.313  62.711  10.994  1.00  0.00     0.218 HD
ENDBRANCH   8  24
TORSDOF 5
ENDMDL
MODEL 7
REMARK VINA RESULT:      -6.2     14.705     15.732
REMARK  5 active torsions:
REMARK  status: ('A' for Active; 'I' for Inactive)
REMARK    1  A    between atoms: C4_4  and  C5_5 
REMARK    2  A    between atoms: C8_8  and  O9_9 
REMARK    3  A    between atoms: C10_11  and  O11_12 
REMARK    4  A    between atoms: C16_18  and  O17_19 
REMARK    5  A    between atoms: C19_22  and  O20_23 
ROOT
HETATM    1  O1          0      46.458  61.434  11.595  1.00  0.00    -0.286 OA
HETATM    2  C2          0      46.811  62.509  11.036  1.00  0.00     0.201 C 
HETATM    3  C3          0      48.129  62.794  10.721  1.00  0.00     0.067 C 
HETATM    4  C4          0      48.503  64.028  10.200  1.00  0.00     0.103 C 
HETATM    5  O13         0      47.568  64.936   9.985  1.00  0.00    -0.307 OA
HETATM    6  C14         0      46.308  64.731  10.302  1.00  0.00     0.107 C 
HETATM    7  C15         0      45.413  65.780  10.458  1.00  0.00     0.049 C 
HETATM    8  C16         0      44.164  65.583  11.034  1.00  0.00     0.093 C 
HETATM    9  C18         0      43.673  64.286  10.943  1.00  0.00     0.048 C 
HETATM   10  C19         0      44.536  63.218  10.741  1.00  0.00     0.096 C 
HETATM   11  C21         0      45.879  63.445  10.613  1.00  0.00     0.084 C 
ENDROOT
BRANCH  10  12
HETATM   12  O20         0      44.121  61.934  11.081  1.00  0.00    -0.359 OA
HETATM   13  H20         0      43.551  61.835  11.834  1.00  0.00     0.218 HD
ENDBRANCH  10  12
BRANCH   4  14
HETATM   14  C5          0      49.874  64.474  10.454  1.00  0.00     0.025 C 
HETATM   15  C6          0      50.169  65.630  11.161  1.00  0.00     0.004 C 
HETATM   16  C7          0      51.263  65.599  12.020  1.00  0.00     0.026 C 
HETATM   17  C8          0      52.115  64.501  12.076  1.00  0.00     0.112 C 
HETATM   18  C10         0      52.119  63.712  10.934  1.00  0.00     0.112 C 
HETATM   19  C12         0      50.980  63.696  10.138  1.00  0.00     0.028 C 
BRANCH  17  20
HETATM   20  O9          0      52.728  64.139  13.263  1.00  0.00    -0.357 OA
HETATM   21  H9          0      52.296  63.647  13.951  1.00  0.00     0.218 HD
ENDBRANCH  17  20
BRANCH  18  22
HETATM   22  O11         0      53.085  62.717  10.861  1.00  0.00    -0.357 OA
HETATM   23  H11         0      53.838  62.889  10.308  1.00  0.00     0.218 HD
ENDBRANCH  18  22
ENDBRANCH   4  14
BRANCH   8  24
HETATM   24  O17         0      43.614  66.518  11.918  1.00  0.00    -0.359 OA
HETATM   25  H17         0      42.867  66.307  12.466  1.00  0.00     0.218 HD
ENDBRANCH   8  24
TORSDOF 5
ENDMDL
MODEL 8
REMARK VINA RESULT:      -6.1     12.991     14.712
REMARK  5 active torsions:
REMARK  status: ('A' for Active; 'I' for Inactive)
REMARK    1  A    between atoms: C4_4  and  C5_5 
REMARK    2  A    between atoms: C8_8  and  O9_9 
REMARK    3  A    between atoms: C10_11  and  O11_12 
REMARK    4  A    between atoms: C16_18  and  O17_19 
REMARK    5  A    between atoms: C19_22  and  O20_23 
ROOT
HETATM    1  O1          0      44.888  67.844  12.061  1.00  0.00    -0.286 OA
HETATM    2  C2          0      44.920  66.732  12.656  1.00  0.00     0.201 C 
HETATM    3  C3          0      44.878  66.618  14.035  1.00  0.00     0.067 C 
HETATM    4  C4          0      45.019  65.388  14.669  1.00  0.00     0.103 C 
HETATM    5  O13         0      45.175  64.306  13.927  1.00  0.00    -0.307 OA
HETATM    6  C14         0      45.260  64.363  12.616  1.00  0.00     0.107 C 
HETATM    7  C15         0      45.812  63.330  11.873  1.00  0.00     0.049 C 
HETATM    8  C16         0      46.131  63.496  10.531  1.00  0.00     0.093 C 
HETATM    9  C18         0      45.412  64.488   9.875  1.00  0.00     0.048 C 
HETATM   10  C19         0      44.807  65.511  10.592  1.00  0.00     0.096 C 
HETATM   11  C21         0      44.905  65.535  11.956  1.00  0.00     0.084 C 
ENDROOT
BRANCH  10  12
HETATM   12  O20         0      44.480  66.697   9.940  1.00  0.00    -0.359 OA
HETATM   13  H20         0      43.651  66.738   9.480  1.00  0.00     0.218 HD
ENDBRANCH  10  12
BRANCH   4  14
HETATM   14  C5          0      45.558  65.394  16.030  1.00  0.00     0.025 C 
HETATM   15  C6          0      45.591  66.534  16.821  1.00  0.00     0.004 C 
HETATM   16  C7          0      45.326  66.384  18.178  1.00  0.00     0.026 C 
HETATM   17  C8          0      45.166  65.129  18.756  1.00  0.00     0.112 C 
HETATM   18  C10         0      45.762  64.088  18.056  1.00  0.00     0.112 C 
HETATM   19  C12         0      45.938  64.230  16.685  1.00  0.00     0.028 C 
BRANCH  17  20
HETATM   20  O9          0      44.301  64.943  19.819  1.00  0.00    -0.357 OA
HETATM   21  H9          0      43.354  64.927  19.733  1.00  0.00     0.218 HD
ENDBRANCH  17  20
BRANCH  18  22
HETATM   22  O11         0      45.796  62.850  18.681  1.00  0.00    -0.357 OA
HETATM   23  H11         0      45.122  62.675  19.327  1.00  0.00     0.218 HD
ENDBRANCH  18  22
ENDBRANCH   4  14
BRANCH   8  24
HETATM   24  O17         0      47.301  62.954   9.987  1.00  0.00    -0.359 OA
HETATM   25  H17         0      48.064  63.491   9.808  1.00  0.00     0.218 HD
ENDBRANCH   8  24
TORSDOF 5
ENDMDL
MODEL 9
REMARK VINA RESULT:      -6.1     10.321     13.812
REMARK  5 active torsions:
REMARK  status: ('A' for Active; 'I' for Inactive)
REMARK    1  A    between atoms: C4_4  and  C5_5 
REMARK    2  A    between atoms: C8_8  and  O9_9 
REMARK    3  A    between atoms: C10_11  and  O11_12 
REMARK    4  A    between atoms: C16_18  and  O17_19 
REMARK    5  A    between atoms: C19_22  and  O20_23 
ROOT
HETATM    1  O1          0      54.589  57.316  27.809  1.00  0.00    -0.286 OA
HETATM    2  C2          0      54.616  56.221  27.182  1.00  0.00     0.201 C 
HETATM    3  C3          0      54.381  56.129  25.821  1.00  0.00     0.067 C 
HETATM    4  C4          0      54.315  54.900  25.174  1.00  0.00     0.103 C 
HETATM    5  O13         0      54.501  53.800  25.882  1.00  0.00    -0.307 OA
HETATM    6  C14         0      54.690  53.829  27.183  1.00  0.00     0.107 C 
HETATM    7  C15         0      54.489  52.708  27.976  1.00  0.00     0.049 C 
HETATM    8  C16         0      54.440  52.804  29.361  1.00  0.00     0.093 C 
HETATM    9  C18         0      55.108  53.898  29.898  1.00  0.00     0.048 C 
HETATM   10  C19         0      55.368  55.017  29.119  1.00  0.00     0.096 C 
HETATM   11  C21         0      54.978  55.037  27.808  1.00  0.00     0.084 C 
ENDROOT
BRANCH  10  12
HETATM   12  O20         0      55.624  56.235  29.742  1.00  0.00    -0.359 OA
HETATM   13  H20         0      55.876  56.222  30.657  1.00  0.00     0.218 HD
ENDBRANCH  10  12
BRANCH   4  14
HETATM   14  C5          0      53.504  54.827  23.957  1.00  0.00     0.025 C 
HETATM   15  C6          0      54.031  54.475  22.723  1.00  0.00     0.004 C 
HETATM   16  C7          0      53.249  53.679  21.892  1.00  0.00     0.026 C 
HETATM   17  C8          0      51.937  53.354  22.216  1.00  0.00     0.112 C 
HETATM   18  C10         0      51.322  54.235  23.096  1.00  0.00     0.112 C 
HETATM   19  C12         0      52.121  54.956  23.975  1.00  0.00     0.028 C 
BRANCH  17  20
HETATM   20  O9          0      51.396  52.136  21.845  1.00  0.00    -0.357 OA
HETATM   21  H9          0      50.693  52.041  21.213  1.00  0.00     0.218 HD
ENDBRANCH  17  20
BRANCH  18  22
HETATM   22  O11         0      49.961  54.066  23.306  1.00  0.00    -0.357 OA
HETATM   23  H11         0      49.652  54.129  24.202  1.00  0.00     0.218 HD
ENDBRANCH  18  22
ENDBRANCH   4  14
BRANCH   8  24
HETATM   24  O17         0      53.520  52.063  30.112  1.00  0.00    -0.359 OA
HETATM   25  H17         0      52.585  52.122  29.954  1.00  0.00     0.218 HD
ENDBRANCH   8  24
TORSDOF 5
ENDMDL
