MODEL 1
REMARK VINA RESULT:      -1.3      0.000      0.000
REMARK  5 active torsions:
REMARK  status: ('A' for Active; 'I' for Inactive)
REMARK    1  A    between atoms: C4_4  and  C5_5 
REMARK    2  A    between atoms: C8_8  and  O9_9 
REMARK    3  A    between atoms: C10_11  and  O11_12 
REMARK    4  A    between atoms: C16_18  and  O17_19 
REMARK    5  A    between atoms: C19_22  and  O20_23 
ROOT
HETATM    1  O1          0      17.706  35.573  19.763  1.00  0.00    -0.286 OA
HETATM    2  C2          0      18.435  35.029  18.889  1.00  0.00     0.201 C 
HETATM    3  C3          0      18.528  35.501  17.591  1.00  0.00     0.067 C 
HETATM    4  C4          0      19.258  34.824  16.620  1.00  0.00     0.103 C 
HETATM    5  O13         0      19.891  33.715  16.960  1.00  0.00    -0.307 OA
HETATM    6  C14         0      19.806  33.204  18.169  1.00  0.00     0.107 C 
HETATM    7  C15         0      20.117  31.877  18.425  1.00  0.00     0.049 C 
HETATM    8  C16         0      19.786  31.278  19.635  1.00  0.00     0.093 C 
HETATM    9  C18         0      19.642  32.155  20.703  1.00  0.00     0.048 C 
HETATM   10  C19         0      19.376  33.499  20.482  1.00  0.00     0.096 C 
HETATM   11  C21         0      19.272  33.968  19.201  1.00  0.00     0.084 C 
ENDROOT
BRANCH  10  12
HETATM   12  O20         0      18.812  34.258  21.503  1.00  0.00    -0.359 OA
HETATM   13  H20         0      19.085  35.164  21.586  1.00  0.00     0.218 HD
ENDBRANCH  10  12
BRANCH   4  14
HETATM   14  C5          0      18.844  35.000  15.227  1.00  0.00     0.025 C 
HETATM   15  C6          0      19.255  36.073  14.450  1.00  0.00     0.004 C 
HETATM   16  C7          0      19.542  35.828  13.111  1.00  0.00     0.026 C 
HETATM   17  C8          0      19.301  34.588  12.529  1.00  0.00     0.112 C 
HETATM   18  C10         0      18.340  33.821  13.174  1.00  0.00     0.112 C 
HETATM   19  C12         0      18.133  34.029  14.533  1.00  0.00     0.028 C 
BRANCH  17  20
HETATM   20  O9          0      20.119  34.107  11.522  1.00  0.00    -0.357 OA
HETATM   21  H9          0      20.627  33.307  11.592  1.00  0.00     0.218 HD
ENDBRANCH  17  20
BRANCH  18  22
HETATM   22  O11         0      17.926  32.663  12.533  1.00  0.00    -0.357 OA
HETATM   23  H11         0      17.059  32.673  12.144  1.00  0.00     0.218 HD
ENDBRANCH  18  22
ENDBRANCH   4  14
BRANCH   8  24
HETATM   24  O17         0      19.309  29.964  19.691  1.00  0.00    -0.359 OA
HETATM   25  H17         0      19.264  29.415  18.917  1.00  0.00     0.218 HD
ENDBRANCH   8  24
TORSDOF 5
ENDMDL
MODEL 2
REMARK VINA RESULT:      -1.3      1.697      2.001
REMARK  5 active torsions:
REMARK  status: ('A' for Active; 'I' for Inactive)
REMARK    1  A    between atoms: C4_4  and  C5_5 
REMARK    2  A    between atoms: C8_8  and  O9_9 
REMARK    3  A    between atoms: C10_11  and  O11_12 
REMARK    4  A    between atoms: C16_18  and  O17_19 
REMARK    5  A    between atoms: C19_22  and  O20_23 
ROOT
HETATM    1  O1          0      15.399  33.923  17.491  1.00  0.00    -0.286 OA
HETATM    2  C2          0      16.596  33.999  17.100  1.00  0.00     0.201 C 
HETATM    3  C3          0      16.946  34.454  15.840  1.00  0.00     0.067 C 
HETATM    4  C4          0      18.264  34.431  15.397  1.00  0.00     0.103 C 
HETATM    5  O13         0      19.200  33.980  16.214  1.00  0.00    -0.307 OA
HETATM    6  C14         0      18.917  33.502  17.406  1.00  0.00     0.107 C 
HETATM    7  C15         0      19.799  32.679  18.091  1.00  0.00     0.049 C 
HETATM    8  C16         0      19.399  31.976  19.221  1.00  0.00     0.093 C 
HETATM    9  C18         0      18.321  32.526  19.904  1.00  0.00     0.048 C 
HETATM   10  C19         0      17.445  33.390  19.261  1.00  0.00     0.096 C 
HETATM   11  C21         0      17.655  33.717  17.949  1.00  0.00     0.084 C 
ENDROOT
BRANCH  10  12
HETATM   12  O20         0      16.171  33.581  19.785  1.00  0.00    -0.359 OA
HETATM   13  H20         0      15.715  34.385  19.566  1.00  0.00     0.218 HD
ENDBRANCH  10  12
BRANCH   4  14
HETATM   14  C5          0      18.484  34.337  13.953  1.00  0.00     0.025 C 
HETATM   15  C6          0      19.684  34.686  13.350  1.00  0.00     0.004 C 
HETATM   16  C7          0      20.124  33.901  12.289  1.00  0.00     0.026 C 
HETATM   17  C8          0      19.336  32.887  11.756  1.00  0.00     0.112 C 
HETATM   18  C10         0      17.974  33.032  11.980  1.00  0.00     0.112 C 
HETATM   19  C12         0      17.561  33.750  13.096  1.00  0.00     0.028 C 
BRANCH  17  20
HETATM   20  O9          0      19.912  31.739  11.240  1.00  0.00    -0.357 OA
HETATM   21  H9          0      19.836  30.883  11.645  1.00  0.00     0.218 HD
ENDBRANCH  17  20
BRANCH  18  22
HETATM   22  O11         0      17.130  32.156  11.313  1.00  0.00    -0.357 OA
HETATM   23  H11         0      17.449  31.271  11.177  1.00  0.00     0.218 HD
ENDBRANCH  18  22
ENDBRANCH   4  14
BRANCH   8  24
HETATM   24  O17         0      19.822  30.662  19.449  1.00  0.00    -0.359 OA
HETATM   25  H17         0      19.588  30.192  20.241  1.00  0.00     0.218 HD
ENDBRANCH   8  24
TORSDOF 5
ENDMDL
MODEL 3
REMARK VINA RESULT:      -1.2      2.661      6.885
REMARK  5 active torsions:
REMARK  status: ('A' for Active; 'I' for Inactive)
REMARK    1  A    between atoms: C4_4  and  C5_5 
REMARK    2  A    between atoms: C8_8  and  O9_9 
REMARK    3  A    between atoms: C10_11  and  O11_12 
REMARK    4  A    between atoms: C16_18  and  O17_19 
REMARK    5  A    between atoms: C19_22  and  O20_23 
ROOT
HETATM    1  O1          0      17.722  33.101  14.656  1.00  0.00    -0.286 OA
HETATM    2  C2          0      18.507  34.071  14.842  1.00  0.00     0.201 C 
HETATM    3  C3          0      18.730  34.627  16.090  1.00  0.00     0.067 C 
HETATM    4  C4          0      19.520  35.760  16.252  1.00  0.00     0.103 C 
HETATM    5  O13         0      20.083  36.299  15.186  1.00  0.00    -0.307 OA
HETATM    6  C14         0      19.874  35.833  13.974  1.00  0.00     0.107 C 
HETATM    7  C15         0      20.116  36.601  12.844  1.00  0.00     0.049 C 
HETATM    8  C16         0      19.660  36.207  11.592  1.00  0.00     0.093 C 
HETATM    9  C18         0      19.451  34.841  11.447  1.00  0.00     0.048 C 
HETATM   10  C19         0      19.251  34.035  12.560  1.00  0.00     0.096 C 
HETATM   11  C21         0      19.277  34.588  13.811  1.00  0.00     0.084 C 
ENDROOT
BRANCH  10  12
HETATM   12  O20         0      18.625  32.802  12.404  1.00  0.00    -0.359 OA
HETATM   13  H20         0      18.788  32.134  13.059  1.00  0.00     0.218 HD
ENDBRANCH  10  12
BRANCH   4  14
HETATM   14  C5          0      19.237  36.613  17.408  1.00  0.00     0.025 C 
HETATM   15  C6          0      18.778  37.917  17.285  1.00  0.00     0.004 C 
HETATM   16  C7          0      17.829  38.355  18.204  1.00  0.00     0.026 C 
HETATM   17  C8          0      17.449  37.572  19.289  1.00  0.00     0.112 C 
HETATM   18  C10         0      18.382  36.618  19.671  1.00  0.00     0.112 C 
HETATM   19  C12         0      19.263  36.134  18.711  1.00  0.00     0.028 C 
BRANCH  17  20
HETATM   20  O9          0      16.157  37.624  19.782  1.00  0.00    -0.357 OA
HETATM   21  H9          0      15.444  37.090  19.451  1.00  0.00     0.218 HD
ENDBRANCH  17  20
BRANCH  18  22
HETATM   22  O11         0      18.138  35.940  20.857  1.00  0.00    -0.357 OA
HETATM   23  H11         0      17.324  36.138  21.306  1.00  0.00     0.218 HD
ENDBRANCH  18  22
ENDBRANCH   4  14
BRANCH   8  24
HETATM   24  O17         0      19.135  37.132  10.682  1.00  0.00    -0.359 OA
HETATM   25  H17         0      19.573  37.329   9.863  1.00  0.00     0.218 HD
ENDBRANCH   8  24
TORSDOF 5
ENDMDL
MODEL 4
REMARK VINA RESULT:      -1.2      3.213      6.836
REMARK  5 active torsions:
REMARK  status: ('A' for Active; 'I' for Inactive)
REMARK    1  A    between atoms: C4_4  and  C5_5 
REMARK    2  A    between atoms: C8_8  and  O9_9 
REMARK    3  A    between atoms: C10_11  and  O11_12 
REMARK    4  A    between atoms: C16_18  and  O17_19 
REMARK    5  A    between atoms: C19_22  and  O20_23 
ROOT
HETATM    1  O1          0      17.832  32.974  14.032  1.00  0.00    -0.286 OA
HETATM    2  C2          0      18.388  34.042  14.409  1.00  0.00     0.201 C 
HETATM    3  C3          0      18.172  34.600  15.657  1.00  0.00     0.067 C 
HETATM    4  C4          0      18.717  35.830  16.009  1.00  0.00     0.103 C 
HETATM    5  O13         0      19.473  36.464  15.130  1.00  0.00    -0.307 OA
HETATM    6  C14         0      19.679  35.996  13.919  1.00  0.00     0.107 C 
HETATM    7  C15         0      20.117  36.812  12.885  1.00  0.00     0.049 C 
HETATM    8  C16         0      20.089  36.380  11.564  1.00  0.00     0.093 C 
HETATM    9  C18         0      20.125  35.001  11.396  1.00  0.00     0.048 C 
HETATM   10  C19         0      19.738  34.155  12.426  1.00  0.00     0.096 C 
HETATM   11  C21         0      19.334  34.682  13.623  1.00  0.00     0.084 C 
ENDROOT
BRANCH  10  12
HETATM   12  O20         0      19.362  32.849  12.129  1.00  0.00    -0.359 OA
HETATM   13  H20         0      19.022  32.670  11.260  1.00  0.00     0.218 HD
ENDBRANCH  10  12
BRANCH   4  14
HETATM   14  C5          0      18.004  36.613  17.020  1.00  0.00     0.025 C 
HETATM   15  C6          0      17.979  38.000  17.017  1.00  0.00     0.004 C 
HETATM   16  C7          0      16.790  38.624  17.382  1.00  0.00     0.026 C 
HETATM   17  C8          0      15.704  37.900  17.862  1.00  0.00     0.112 C 
HETATM   18  C10         0      16.027  36.668  18.413  1.00  0.00     0.112 C 
HETATM   19  C12         0      17.177  36.026  17.969  1.00  0.00     0.028 C 
BRANCH  17  20
HETATM   20  O9          0      14.408  38.309  17.601  1.00  0.00    -0.357 OA
HETATM   21  H9          0      14.176  39.194  17.343  1.00  0.00     0.218 HD
ENDBRANCH  17  20
BRANCH  18  22
HETATM   22  O11         0      15.012  35.990  19.075  1.00  0.00    -0.357 OA
HETATM   23  H11         0      14.229  36.486  19.284  1.00  0.00     0.218 HD
ENDBRANCH  18  22
ENDBRANCH   4  14
BRANCH   8  24
HETATM   24  O17         0      19.715  37.239  10.525  1.00  0.00    -0.359 OA
HETATM   25  H17         0      20.290  37.412   9.789  1.00  0.00     0.218 HD
ENDBRANCH   8  24
TORSDOF 5
ENDMDL
MODEL 5
REMARK VINA RESULT:      -1.1      3.303      5.433
REMARK  5 active torsions:
REMARK  status: ('A' for Active; 'I' for Inactive)
REMARK    1  A    between atoms: C4_4  and  C5_5 
REMARK    2  A    between atoms: C8_8  and  O9_9 
REMARK    3  A    between atoms: C10_11  and  O11_12 
REMARK    4  A    between atoms: C16_18  and  O17_19 
REMARK    5  A    between atoms: C19_22  and  O20_23 
ROOT
HETATM    1  O1          0      15.179  33.696  22.351  1.00  0.00    -0.286 OA
HETATM    2  C2          0      16.438  33.709  22.262  1.00  0.00     0.201 C 
HETATM    3  C3          0      17.104  33.739  21.049  1.00  0.00     0.067 C 
HETATM    4  C4          0      18.490  33.649  20.976  1.00  0.00     0.103 C 
HETATM    5  O13         0      19.179  33.554  22.100  1.00  0.00    -0.307 OA
HETATM    6  C14         0      18.594  33.484  23.275  1.00  0.00     0.107 C 
HETATM    7  C15         0      19.254  32.992  24.392  1.00  0.00     0.049 C 
HETATM    8  C16         0      18.566  32.683  25.559  1.00  0.00     0.093 C 
HETATM    9  C18         0      17.366  33.362  25.730  1.00  0.00     0.048 C 
HETATM   10  C19         0      16.702  33.908  24.640  1.00  0.00     0.096 C 
HETATM   11  C21         0      17.242  33.791  23.388  1.00  0.00     0.084 C 
ENDROOT
BRANCH  10  12
HETATM   12  O20         0      15.343  34.186  24.740  1.00  0.00    -0.359 OA
HETATM   13  H20         0      14.995  34.404  25.596  1.00  0.00     0.218 HD
ENDBRANCH  10  12
BRANCH   4  14
HETATM   14  C5          0      19.062  33.092  19.749  1.00  0.00     0.025 C 
HETATM   15  C6          0      20.123  32.199  19.752  1.00  0.00     0.004 C 
HETATM   16  C7          0      20.099  31.166  18.821  1.00  0.00     0.026 C 
HETATM   17  C8          0      19.123  31.097  17.833  1.00  0.00     0.112 C 
HETATM   18  C10         0      18.526  32.311  17.523  1.00  0.00     0.112 C 
HETATM   19  C12         0      18.489  33.298  18.501  1.00  0.00     0.028 C 
BRANCH  17  20
HETATM   20  O9          0      18.662  29.875  17.375  1.00  0.00    -0.357 OA
HETATM   21  H9          0      18.941  29.479  16.557  1.00  0.00     0.218 HD
ENDBRANCH  17  20
BRANCH  18  22
HETATM   22  O11         0      17.685  32.334  16.419  1.00  0.00    -0.357 OA
HETATM   23  H11         0      17.751  31.606  15.813  1.00  0.00     0.218 HD
ENDBRANCH  18  22
ENDBRANCH   4  14
BRANCH   8  24
HETATM   24  O17         0      18.883  31.548  26.314  1.00  0.00    -0.359 OA
HETATM   25  H17         0      18.918  30.683  25.923  1.00  0.00     0.218 HD
ENDBRANCH   8  24
TORSDOF 5
ENDMDL
MODEL 6
REMARK VINA RESULT:      -1.0      1.889      2.784
REMARK  5 active torsions:
REMARK  status: ('A' for Active; 'I' for Inactive)
REMARK    1  A    between atoms: C4_4  and  C5_5 
REMARK    2  A    between atoms: C8_8  and  O9_9 
REMARK    3  A    between atoms: C10_11  and  O11_12 
REMARK    4  A    between atoms: C16_18  and  O17_19 
REMARK    5  A    between atoms: C19_22  and  O20_23 
ROOT
HETATM    1  O1          0      15.980  34.678  16.313  1.00  0.00    -0.286 OA
HETATM    2  C2          0      17.235  34.781  16.236  1.00  0.00     0.201 C 
HETATM    3  C3          0      17.874  35.382  15.165  1.00  0.00     0.067 C 
HETATM    4  C4          0      19.260  35.391  15.055  1.00  0.00     0.103 C 
HETATM    5  O13         0      19.976  34.828  16.012  1.00  0.00    -0.307 OA
HETATM    6  C14         0      19.419  34.211  17.032  1.00  0.00     0.107 C 
HETATM    7  C15         0      20.119  33.296  17.804  1.00  0.00     0.049 C 
HETATM    8  C16         0      19.467  32.466  18.708  1.00  0.00     0.093 C 
HETATM    9  C18         0      18.248  32.946  19.171  1.00  0.00     0.048 C 
HETATM   10  C19         0      17.543  33.897  18.447  1.00  0.00     0.096 C 
HETATM   11  C21         0      18.060  34.379  17.275  1.00  0.00     0.084 C 
ENDROOT
BRANCH  10  12
HETATM   12  O20         0      16.177  34.044  18.666  1.00  0.00    -0.359 OA
HETATM   13  H20         0      15.891  34.304  19.534  1.00  0.00     0.218 HD
ENDBRANCH  10  12
BRANCH   4  14
HETATM   14  C5          0      19.825  35.471  13.707  1.00  0.00     0.025 C 
HETATM   15  C6          0      20.074  34.350  12.928  1.00  0.00     0.004 C 
HETATM   16  C7          0      19.820  34.444  11.564  1.00  0.00     0.026 C 
HETATM   17  C8          0      19.458  35.649  10.970  1.00  0.00     0.112 C 
HETATM   18  C10         0      19.847  36.781  11.673  1.00  0.00     0.112 C 
HETATM   19  C12         0      20.012  36.680  13.049  1.00  0.00     0.028 C 
BRANCH  17  20
HETATM   20  O9          0      18.599  35.675   9.886  1.00  0.00    -0.357 OA
HETATM   21  H9          0      18.877  35.866   8.997  1.00  0.00     0.218 HD
ENDBRANCH  17  20
BRANCH  18  22
HETATM   22  O11         0      19.681  38.003  11.037  1.00  0.00    -0.357 OA
HETATM   23  H11         0      18.918  38.514  11.281  1.00  0.00     0.218 HD
ENDBRANCH  18  22
ENDBRANCH   4  14
BRANCH   8  24
HETATM   24  O17         0      19.839  31.126  18.868  1.00  0.00    -0.359 OA
HETATM   25  H17         0      20.573  30.752  18.394  1.00  0.00     0.218 HD
ENDBRANCH   8  24
TORSDOF 5
ENDMDL
MODEL 7
REMARK VINA RESULT:      -0.9      3.631      5.541
REMARK  5 active torsions:
REMARK  status: ('A' for Active; 'I' for Inactive)
REMARK    1  A    between atoms: C4_4  and  C5_5 
REMARK    2  A    between atoms: C8_8  and  O9_9 
REMARK    3  A    between atoms: C10_11  and  O11_12 
REMARK    4  A    between atoms: C16_18  and  O17_19 
REMARK    5  A    between atoms: C19_22  and  O20_23 
ROOT
HETATM    1  O1          0      14.698  34.288  16.913  1.00  0.00    -0.286 OA
HETATM    2  C2          0      15.599  33.806  16.173  1.00  0.00     0.201 C 
HETATM    3  C3          0      16.923  34.208  16.243  1.00  0.00     0.067 C 
HETATM    4  C4          0      17.876  33.736  15.348  1.00  0.00     0.103 C 
HETATM    5  O13         0      17.504  32.869  14.423  1.00  0.00    -0.307 OA
HETATM    6  C14         0      16.254  32.484  14.289  1.00  0.00     0.107 C 
HETATM    7  C15         0      15.787  31.911  13.114  1.00  0.00     0.049 C 
HETATM    8  C16         0      14.427  31.743  12.883  1.00  0.00     0.093 C 
HETATM    9  C18         0      13.643  31.665  14.028  1.00  0.00     0.048 C 
HETATM   10  C19         0      14.099  32.186  15.232  1.00  0.00     0.096 C 
HETATM   11  C21         0      15.337  32.765  15.296  1.00  0.00     0.084 C 
ENDROOT
BRANCH  10  12
HETATM   12  O20         0      13.180  32.498  16.229  1.00  0.00    -0.359 OA
HETATM   13  H20         0      13.023  31.852  16.907  1.00  0.00     0.218 HD
ENDBRANCH  10  12
BRANCH   4  14
HETATM   14  C5          0      19.030  34.598  15.083  1.00  0.00     0.025 C 
HETATM   15  C6          0      19.675  34.633  13.855  1.00  0.00     0.004 C 
HETATM   16  C7          0      20.125  35.868  13.399  1.00  0.00     0.026 C 
HETATM   17  C8          0      20.057  37.008  14.193  1.00  0.00     0.112 C 
HETATM   18  C10         0      20.003  36.761  15.558  1.00  0.00     0.112 C 
HETATM   19  C12         0      19.470  35.552  15.990  1.00  0.00     0.028 C 
BRANCH  17  20
HETATM   20  O9          0      19.847  38.253  13.629  1.00  0.00    -0.357 OA
HETATM   21  H9          0      19.612  39.027  14.129  1.00  0.00     0.218 HD
ENDBRANCH  17  20
BRANCH  18  22
HETATM   22  O11         0      20.125  37.857  16.401  1.00  0.00    -0.357 OA
HETATM   23  H11         0      19.589  38.615  16.200  1.00  0.00     0.218 HD
ENDBRANCH  18  22
ENDBRANCH   4  14
BRANCH   8  24
HETATM   24  O17         0      13.867  31.974  11.622  1.00  0.00    -0.359 OA
HETATM   25  H17         0      13.242  31.372  11.235  1.00  0.00     0.218 HD
ENDBRANCH   8  24
TORSDOF 5
ENDMDL
MODEL 8
REMARK VINA RESULT:      -0.9      5.379      8.489
REMARK  5 active torsions:
REMARK  status: ('A' for Active; 'I' for Inactive)
REMARK    1  A    between atoms: C4_4  and  C5_5 
REMARK    2  A    between atoms: C8_8  and  O9_9 
REMARK    3  A    between atoms: C10_11  and  O11_12 
REMARK    4  A    between atoms: C16_18  and  O17_19 
REMARK    5  A    between atoms: C19_22  and  O20_23 
ROOT
HETATM    1  O1          0      16.097  35.108  25.659  1.00  0.00    -0.286 OA
HETATM    2  C2          0      17.337  34.903  25.558  1.00  0.00     0.201 C 
HETATM    3  C3          0      17.938  34.505  24.376  1.00  0.00     0.067 C 
HETATM    4  C4          0      19.290  34.186  24.317  1.00  0.00     0.103 C 
HETATM    5  O13         0      20.015  34.287  25.417  1.00  0.00    -0.307 OA
HETATM    6  C14         0      19.487  34.624  26.573  1.00  0.00     0.107 C 
HETATM    7  C15         0      20.124  34.351  27.775  1.00  0.00     0.049 C 
HETATM    8  C16         0      19.458  34.473  28.989  1.00  0.00     0.093 C 
HETATM    9  C18         0      18.381  35.351  28.982  1.00  0.00     0.048 C 
HETATM   10  C19         0      17.750  35.683  27.791  1.00  0.00     0.096 C 
HETATM   11  C21         0      18.202  35.155  26.612  1.00  0.00     0.084 C 
ENDROOT
BRANCH  10  12
HETATM   12  O20         0      16.452  36.185  27.825  1.00  0.00    -0.359 OA
HETATM   13  H20         0      15.739  35.588  27.635  1.00  0.00     0.218 HD
ENDBRANCH  10  12
BRANCH   4  14
HETATM   14  C5          0      19.711  33.241  23.280  1.00  0.00     0.025 C 
HETATM   15  C6          0      19.624  31.865  23.437  1.00  0.00     0.004 C 
HETATM   16  C7          0      19.251  31.113  22.328  1.00  0.00     0.026 C 
HETATM   17  C8          0      19.100  31.691  21.071  1.00  0.00     0.112 C 
HETATM   18  C10         0      19.801  32.875  20.890  1.00  0.00     0.112 C 
HETATM   19  C12         0      20.087  33.651  22.008  1.00  0.00     0.028 C 
BRANCH  17  20
HETATM   20  O9          0      18.157  31.212  20.180  1.00  0.00    -0.357 OA
HETATM   21  H9          0      17.433  31.731  19.849  1.00  0.00     0.218 HD
ENDBRANCH  17  20
BRANCH  18  22
HETATM   22  O11         0      19.839  33.393  19.603  1.00  0.00    -0.357 OA
HETATM   23  H11         0      20.249  34.243  19.494  1.00  0.00     0.218 HD
ENDBRANCH  18  22
ENDBRANCH   4  14
BRANCH   8  24
HETATM   24  O17         0      19.644  33.545  30.019  1.00  0.00    -0.359 OA
HETATM   25  H17         0      19.171  32.721  30.040  1.00  0.00     0.218 HD
ENDBRANCH   8  24
TORSDOF 5
ENDMDL
MODEL 9
REMARK VINA RESULT:      -0.9      2.606      2.964
REMARK  5 active torsions:
REMARK  status: ('A' for Active; 'I' for Inactive)
REMARK    1  A    between atoms: C4_4  and  C5_5 
REMARK    2  A    between atoms: C8_8  and  O9_9 
REMARK    3  A    between atoms: C10_11  and  O11_12 
REMARK    4  A    between atoms: C16_18  and  O17_19 
REMARK    5  A    between atoms: C19_22  and  O20_23 
ROOT
HETATM    1  O1          0      17.422  36.951  18.332  1.00  0.00    -0.286 OA
HETATM    2  C2          0      17.497  35.842  17.736  1.00  0.00     0.201 C 
HETATM    3  C3          0      18.218  35.664  16.568  1.00  0.00     0.067 C 
HETATM    4  C4          0      18.200  34.458  15.876  1.00  0.00     0.103 C 
HETATM    5  O13         0      17.491  33.457  16.366  1.00  0.00    -0.307 OA
HETATM    6  C14         0      16.759  33.583  17.451  1.00  0.00     0.107 C 
HETATM    7  C15         0      15.726  32.704  17.742  1.00  0.00     0.049 C 
HETATM    8  C16         0      14.800  32.983  18.740  1.00  0.00     0.093 C 
HETATM    9  C18         0      15.249  33.847  19.731  1.00  0.00     0.048 C 
HETATM   10  C19         0      16.311  34.708  19.489  1.00  0.00     0.096 C 
HETATM   11  C21         0      16.932  34.693  18.270  1.00  0.00     0.084 C 
ENDROOT
BRANCH  10  12
HETATM   12  O20         0      16.468  35.837  20.287  1.00  0.00    -0.359 OA
HETATM   13  H20         0      16.408  36.688  19.871  1.00  0.00     0.218 HD
ENDBRANCH  10  12
BRANCH   4  14
HETATM   14  C5          0      18.446  34.509  14.434  1.00  0.00     0.025 C 
HETATM   15  C6          0      19.650  34.935  13.891  1.00  0.00     0.004 C 
HETATM   16  C7          0      20.123  34.266  12.767  1.00  0.00     0.026 C 
HETATM   17  C8          0      19.363  33.296  12.123  1.00  0.00     0.112 C 
HETATM   18  C10         0      17.994  33.396  12.334  1.00  0.00     0.112 C 
HETATM   19  C12         0      17.550  33.994  13.507  1.00  0.00     0.028 C 
BRANCH  17  20
HETATM   20  O9          0      19.969  32.214  11.508  1.00  0.00    -0.357 OA
HETATM   21  H9          0      20.895  32.175  11.301  1.00  0.00     0.218 HD
ENDBRANCH  17  20
BRANCH  18  22
HETATM   22  O11         0      17.179  32.574  11.569  1.00  0.00    -0.357 OA
HETATM   23  H11         0      17.395  31.649  11.551  1.00  0.00     0.218 HD
ENDBRANCH  18  22
ENDBRANCH   4  14
BRANCH   8  24
HETATM   24  O17         0      13.441  32.693  18.576  1.00  0.00    -0.359 OA
HETATM   25  H17         0      13.065  31.875  18.878  1.00  0.00     0.218 HD
ENDBRANCH   8  24
TORSDOF 5
ENDMDL
