MODEL 1
REMARK VINA RESULT:      -4.7      0.000      0.000
REMARK  5 active torsions:
REMARK  status: ('A' for Active; 'I' for Inactive)
REMARK    1  A    between atoms: C4_4  and  C5_5 
REMARK    2  A    between atoms: C8_8  and  O9_9 
REMARK    3  A    between atoms: C10_11  and  O11_12 
REMARK    4  A    between atoms: C16_18  and  O17_19 
REMARK    5  A    between atoms: C19_22  and  O20_23 
ROOT
HETATM    1  O1          0      36.208  37.659 -17.078  1.00  0.00    -0.286 OA
HETATM    2  C2          0      37.131  38.443 -17.435  1.00  0.00     0.201 C 
HETATM    3  C3          0      37.536  39.523 -16.669  1.00  0.00     0.067 C 
HETATM    4  C4          0      38.483  40.429 -17.132  1.00  0.00     0.103 C 
HETATM    5  O13         0      39.018  40.235 -18.324  1.00  0.00    -0.307 OA
HETATM    6  C14         0      38.642  39.247 -19.107  1.00  0.00     0.107 C 
HETATM    7  C15         0      38.887  39.263 -20.472  1.00  0.00     0.049 C 
HETATM    8  C16         0      38.273  38.355 -21.326  1.00  0.00     0.093 C 
HETATM    9  C18         0      37.868  37.168 -20.727  1.00  0.00     0.048 C 
HETATM   10  C19         0      37.660  37.104 -19.356  1.00  0.00     0.096 C 
HETATM   11  C21         0      37.870  38.215 -18.585  1.00  0.00     0.084 C 
ENDROOT
BRANCH  10  12
HETATM   12  O20         0      36.861  36.091 -18.836  1.00  0.00    -0.359 OA
HETATM   13  H20         0      36.697  35.330 -19.380  1.00  0.00     0.218 HD
ENDBRANCH  10  12
BRANCH   4  14
HETATM   14  C5          0      38.421  41.792 -16.600  1.00  0.00     0.025 C 
HETATM   15  C6          0      38.896  42.893 -17.298  1.00  0.00     0.004 C 
HETATM   16  C7          0      38.168  44.076 -17.208  1.00  0.00     0.026 C 
HETATM   17  C8          0      37.081  44.200 -16.349  1.00  0.00     0.112 C 
HETATM   18  C10         0      37.084  43.315 -15.279  1.00  0.00     0.112 C 
HETATM   19  C12         0      37.749  42.103 -15.426  1.00  0.00     0.028 C 
BRANCH  17  20
HETATM   20  O9          0      36.002  44.999 -16.682  1.00  0.00    -0.357 OA
HETATM   21  H9          0      35.615  45.636 -16.092  1.00  0.00     0.218 HD
ENDBRANCH  17  20
BRANCH  18  22
HETATM   22  O11         0      36.130  43.519 -14.292  1.00  0.00    -0.357 OA
HETATM   23  H11         0      35.425  44.124 -14.494  1.00  0.00     0.218 HD
ENDBRANCH  18  22
ENDBRANCH   4  14
BRANCH   8  24
HETATM   24  O17         0      37.801  38.742 -22.585  1.00  0.00    -0.359 OA
HETATM   25  H17         0      38.124  39.521 -23.021  1.00  0.00     0.218 HD
ENDBRANCH   8  24
TORSDOF 5
ENDMDL
MODEL 2
REMARK VINA RESULT:      -4.5      1.629      2.210
REMARK  5 active torsions:
REMARK  status: ('A' for Active; 'I' for Inactive)
REMARK    1  A    between atoms: C4_4  and  C5_5 
REMARK    2  A    between atoms: C8_8  and  O9_9 
REMARK    3  A    between atoms: C10_11  and  O11_12 
REMARK    4  A    between atoms: C16_18  and  O17_19 
REMARK    5  A    between atoms: C19_22  and  O20_23 
ROOT
HETATM    1  O1          0      35.907  38.146 -14.256  1.00  0.00    -0.286 OA
HETATM    2  C2          0      36.641  38.750 -15.086  1.00  0.00     0.201 C 
HETATM    3  C3          0      37.090  40.045 -14.887  1.00  0.00     0.067 C 
HETATM    4  C4          0      37.812  40.723 -15.863  1.00  0.00     0.103 C 
HETATM    5  O13         0      38.088  40.101 -16.995  1.00  0.00    -0.307 OA
HETATM    6  C14         0      37.654  38.887 -17.250  1.00  0.00     0.107 C 
HETATM    7  C15         0      37.587  38.390 -18.544  1.00  0.00     0.049 C 
HETATM    8  C16         0      36.898  37.218 -18.833  1.00  0.00     0.093 C 
HETATM    9  C18         0      36.763  36.339 -17.765  1.00  0.00     0.048 C 
HETATM   10  C19         0      36.870  36.794 -16.458  1.00  0.00     0.096 C 
HETATM   11  C21         0      37.128  38.116 -16.219  1.00  0.00     0.084 C 
ENDROOT
BRANCH  10  12
HETATM   12  O20         0      36.316  36.040 -15.428  1.00  0.00    -0.359 OA
HETATM   13  H20         0      36.821  35.937 -14.630  1.00  0.00     0.218 HD
ENDBRANCH  10  12
BRANCH   4  14
HETATM   14  C5          0      37.727  42.185 -15.863  1.00  0.00     0.025 C 
HETATM   15  C6          0      38.495  42.982 -16.699  1.00  0.00     0.004 C 
HETATM   16  C7          0      37.894  44.113 -17.243  1.00  0.00     0.026 C 
HETATM   17  C8          0      36.616  44.513 -16.866  1.00  0.00     0.112 C 
HETATM   18  C10         0      36.210  44.054 -15.620  1.00  0.00     0.112 C 
HETATM   19  C12         0      36.765  42.875 -15.137  1.00  0.00     0.028 C 
BRANCH  17  20
HETATM   20  O9          0      35.772  45.133 -17.769  1.00  0.00    -0.357 OA
HETATM   21  H9          0      35.892  46.024 -18.078  1.00  0.00     0.218 HD
ENDBRANCH  17  20
BRANCH  18  22
HETATM   22  O11         0      35.027  44.574 -15.113  1.00  0.00    -0.357 OA
HETATM   23  H11         0      34.969  44.670 -14.170  1.00  0.00     0.218 HD
ENDBRANCH  18  22
ENDBRANCH   4  14
BRANCH   8  24
HETATM   24  O17         0      36.122  37.095 -19.991  1.00  0.00    -0.359 OA
HETATM   25  H17         0      35.591  36.326 -20.156  1.00  0.00     0.218 HD
ENDBRANCH   8  24
TORSDOF 5
ENDMDL
MODEL 3
REMARK VINA RESULT:      -4.4      4.564      7.191
REMARK  5 active torsions:
REMARK  status: ('A' for Active; 'I' for Inactive)
REMARK    1  A    between atoms: C4_4  and  C5_5 
REMARK    2  A    between atoms: C8_8  and  O9_9 
REMARK    3  A    between atoms: C10_11  and  O11_12 
REMARK    4  A    between atoms: C16_18  and  O17_19 
REMARK    5  A    between atoms: C19_22  and  O20_23 
ROOT
HETATM    1  O1          0      36.540  40.280 -14.181  1.00  0.00    -0.286 OA
HETATM    2  C2          0      35.945  41.358 -13.903  1.00  0.00     0.201 C 
HETATM    3  C3          0      34.943  41.437 -12.951  1.00  0.00     0.067 C 
HETATM    4  C4          0      34.233  42.614 -12.737  1.00  0.00     0.103 C 
HETATM    5  O13         0      34.544  43.681 -13.450  1.00  0.00    -0.307 OA
HETATM    6  C14         0      35.462  43.650 -14.392  1.00  0.00     0.107 C 
HETATM    7  C15         0      35.517  44.611 -15.391  1.00  0.00     0.049 C 
HETATM    8  C16         0      36.314  44.438 -16.516  1.00  0.00     0.093 C 
HETATM    9  C18         0      37.396  43.583 -16.343  1.00  0.00     0.048 C 
HETATM   10  C19         0      37.394  42.641 -15.324  1.00  0.00     0.096 C 
HETATM   11  C21         0      36.326  42.563 -14.472  1.00  0.00     0.084 C 
ENDROOT
BRANCH  10  12
HETATM   12  O20         0      38.235  41.536 -15.418  1.00  0.00    -0.359 OA
HETATM   13  H20         0      38.478  41.092 -14.614  1.00  0.00     0.218 HD
ENDBRANCH  10  12
BRANCH   4  14
HETATM   14  C5          0      32.872  42.489 -12.212  1.00  0.00     0.025 C 
HETATM   15  C6          0      32.557  42.711 -10.880  1.00  0.00     0.004 C 
HETATM   16  C7          0      31.354  43.352 -10.600  1.00  0.00     0.026 C 
HETATM   17  C8          0      30.432  43.642 -11.601  1.00  0.00     0.112 C 
HETATM   18  C10         0      30.537  42.845 -12.733  1.00  0.00     0.112 C 
HETATM   19  C12         0      31.772  42.286 -13.036  1.00  0.00     0.028 C 
BRANCH  17  20
HETATM   20  O9          0      29.638  44.772 -11.527  1.00  0.00    -0.357 OA
HETATM   21  H9          0      28.773  44.784 -11.132  1.00  0.00     0.218 HD
ENDBRANCH  17  20
BRANCH  18  22
HETATM   22  O11         0      29.528  42.963 -13.680  1.00  0.00    -0.357 OA
HETATM   23  H11         0      29.634  43.639 -14.339  1.00  0.00     0.218 HD
ENDBRANCH  18  22
ENDBRANCH   4  14
BRANCH   8  24
HETATM   24  O17         0      35.871  44.817 -17.788  1.00  0.00    -0.359 OA
HETATM   25  H17         0      35.815  44.193 -18.503  1.00  0.00     0.218 HD
ENDBRANCH   8  24
TORSDOF 5
ENDMDL
MODEL 4
REMARK VINA RESULT:      -4.1      4.151      6.305
REMARK  5 active torsions:
REMARK  status: ('A' for Active; 'I' for Inactive)
REMARK    1  A    between atoms: C4_4  and  C5_5 
REMARK    2  A    between atoms: C8_8  and  O9_9 
REMARK    3  A    between atoms: C10_11  and  O11_12 
REMARK    4  A    between atoms: C16_18  and  O17_19 
REMARK    5  A    between atoms: C19_22  and  O20_23 
ROOT
HETATM    1  O1          0      37.002  39.779 -14.404  1.00  0.00    -0.286 OA
HETATM    2  C2          0      36.622  40.973 -14.257  1.00  0.00     0.201 C 
HETATM    3  C3          0      35.471  41.315 -13.569  1.00  0.00     0.067 C 
HETATM    4  C4          0      35.021  42.630 -13.510  1.00  0.00     0.103 C 
HETATM    5  O13         0      35.727  43.570 -14.111  1.00  0.00    -0.307 OA
HETATM    6  C14         0      36.807  43.295 -14.809  1.00  0.00     0.107 C 
HETATM    7  C15         0      37.314  44.179 -15.750  1.00  0.00     0.049 C 
HETATM    8  C16         0      38.291  43.785 -16.657  1.00  0.00     0.093 C 
HETATM    9  C18         0      39.076  42.715 -16.246  1.00  0.00     0.048 C 
HETATM   10  C19         0      38.619  41.837 -15.272  1.00  0.00     0.096 C 
HETATM   11  C21         0      37.392  42.038 -14.700  1.00  0.00     0.084 C 
ENDROOT
BRANCH  10  12
HETATM   12  O20         0      39.181  40.568 -15.182  1.00  0.00    -0.359 OA
HETATM   13  H20         0      39.411  40.243 -14.320  1.00  0.00     0.218 HD
ENDBRANCH  10  12
BRANCH   4  14
HETATM   14  C5          0      33.583  42.837 -13.325  1.00  0.00     0.025 C 
HETATM   15  C6          0      32.725  43.133 -14.374  1.00  0.00     0.004 C 
HETATM   16  C7          0      31.459  42.557 -14.354  1.00  0.00     0.026 C 
HETATM   17  C8          0      31.011  41.820 -13.263  1.00  0.00     0.112 C 
HETATM   18  C10         0      31.650  42.110 -12.065  1.00  0.00     0.112 C 
HETATM   19  C12         0      32.947  42.606 -12.112  1.00  0.00     0.028 C 
BRANCH  17  20
HETATM   20  O9          0      30.152  40.749 -13.436  1.00  0.00    -0.357 OA
HETATM   21  H9          0      29.362  40.618 -12.925  1.00  0.00     0.218 HD
ENDBRANCH  17  20
BRANCH  18  22
HETATM   22  O11         0      31.117  41.545 -10.915  1.00  0.00    -0.357 OA
HETATM   23  H11         0      30.897  42.138 -10.206  1.00  0.00     0.218 HD
ENDBRANCH  18  22
ENDBRANCH   4  14
BRANCH   8  24
HETATM   24  O17         0      38.259  44.204 -17.991  1.00  0.00    -0.359 OA
HETATM   25  H17         0      38.432  45.106 -18.236  1.00  0.00     0.218 HD
ENDBRANCH   8  24
TORSDOF 5
ENDMDL
MODEL 5
REMARK VINA RESULT:      -4.1      9.721     10.643
REMARK  5 active torsions:
REMARK  status: ('A' for Active; 'I' for Inactive)
REMARK    1  A    between atoms: C4_4  and  C5_5 
REMARK    2  A    between atoms: C8_8  and  O9_9 
REMARK    3  A    between atoms: C10_11  and  O11_12 
REMARK    4  A    between atoms: C16_18  and  O17_19 
REMARK    5  A    between atoms: C19_22  and  O20_23 
ROOT
HETATM    1  O1          0      27.302  44.351 -23.570  1.00  0.00    -0.286 OA
HETATM    2  C2          0      27.886  43.236 -23.493  1.00  0.00     0.201 C 
HETATM    3  C3          0      27.766  42.400 -22.396  1.00  0.00     0.067 C 
HETATM    4  C4          0      28.500  41.224 -22.292  1.00  0.00     0.103 C 
HETATM    5  O13         0      29.315  40.895 -23.279  1.00  0.00    -0.307 OA
HETATM    6  C14         0      29.494  41.671 -24.325  1.00  0.00     0.107 C 
HETATM    7  C15         0      30.607  41.547 -25.145  1.00  0.00     0.049 C 
HETATM    8  C16         0      30.921  42.519 -26.086  1.00  0.00     0.093 C 
HETATM    9  C18         0      29.847  43.286 -26.520  1.00  0.00     0.048 C 
HETATM   10  C19         0      28.699  43.394 -25.746  1.00  0.00     0.096 C 
HETATM   11  C21         0      28.619  42.727 -24.554  1.00  0.00     0.084 C 
ENDROOT
BRANCH  10  12
HETATM   12  O20         0      27.838  44.468 -25.952  1.00  0.00    -0.359 OA
HETATM   13  H20         0      26.906  44.314 -25.864  1.00  0.00     0.218 HD
ENDBRANCH  10  12
BRANCH   4  14
HETATM   14  C5          0      28.793  40.734 -20.943  1.00  0.00     0.025 C 
HETATM   15  C6          0      29.948  40.032 -20.633  1.00  0.00     0.004 C 
HETATM   16  C7          0      30.550  40.291 -19.405  1.00  0.00     0.026 C 
HETATM   17  C8          0      29.953  41.119 -18.461  1.00  0.00     0.112 C 
HETATM   18  C10         0      28.576  41.246 -18.589  1.00  0.00     0.112 C 
HETATM   19  C12         0      28.010  41.065 -19.845  1.00  0.00     0.028 C 
BRANCH  17  20
HETATM   20  O9          0      30.721  41.901 -17.617  1.00  0.00    -0.357 OA
HETATM   21  H9          0      30.361  42.436 -16.919  1.00  0.00     0.218 HD
ENDBRANCH  17  20
BRANCH  18  22
HETATM   22  O11         0      27.908  41.904 -17.566  1.00  0.00    -0.357 OA
HETATM   23  H11         0      27.015  41.631 -17.390  1.00  0.00     0.218 HD
ENDBRANCH  18  22
ENDBRANCH   4  14
BRANCH   8  24
HETATM   24  O17         0      32.245  42.912 -26.314  1.00  0.00    -0.359 OA
HETATM   25  H17         0      32.976  42.337 -26.123  1.00  0.00     0.218 HD
ENDBRANCH   8  24
TORSDOF 5
ENDMDL
MODEL 6
REMARK VINA RESULT:      -4.1      9.271     10.882
REMARK  5 active torsions:
REMARK  status: ('A' for Active; 'I' for Inactive)
REMARK    1  A    between atoms: C4_4  and  C5_5 
REMARK    2  A    between atoms: C8_8  and  O9_9 
REMARK    3  A    between atoms: C10_11  and  O11_12 
REMARK    4  A    between atoms: C16_18  and  O17_19 
REMARK    5  A    between atoms: C19_22  and  O20_23 
ROOT
HETATM    1  O1          0      31.129  39.962 -19.150  1.00  0.00    -0.286 OA
HETATM    2  C2          0      30.035  40.368 -19.630  1.00  0.00     0.201 C 
HETATM    3  C3          0      29.741  40.313 -20.981  1.00  0.00     0.067 C 
HETATM    4  C4          0      28.571  40.861 -21.496  1.00  0.00     0.103 C 
HETATM    5  O13         0      27.716  41.427 -20.663  1.00  0.00    -0.307 OA
HETATM    6  C14         0      27.963  41.538 -19.376  1.00  0.00     0.107 C 
HETATM    7  C15         0      27.292  42.455 -18.580  1.00  0.00     0.049 C 
HETATM    8  C16         0      27.727  42.748 -17.293  1.00  0.00     0.093 C 
HETATM    9  C18         0      28.475  41.747 -16.684  1.00  0.00     0.048 C 
HETATM   10  C19         0      29.121  40.786 -17.449  1.00  0.00     0.096 C 
HETATM   11  C21         0      29.007  40.813 -18.812  1.00  0.00     0.084 C 
ENDROOT
BRANCH  10  12
HETATM   12  O20         0      30.187  40.081 -16.898  1.00  0.00    -0.359 OA
HETATM   13  H20         0      30.222  39.143 -17.041  1.00  0.00     0.218 HD
ENDBRANCH  10  12
BRANCH   4  14
HETATM   14  C5          0      28.597  41.306 -22.890  1.00  0.00     0.025 C 
HETATM   15  C6          0      27.654  42.175 -23.419  1.00  0.00     0.004 C 
HETATM   16  C7          0      28.097  43.131 -24.328  1.00  0.00     0.026 C 
HETATM   17  C8          0      29.406  43.138 -24.799  1.00  0.00     0.112 C 
HETATM   18  C10         0      30.057  41.914 -24.721  1.00  0.00     0.112 C 
HETATM   19  C12         0      29.649  41.011 -23.747  1.00  0.00     0.028 C 
BRANCH  17  20
HETATM   20  O9          0      30.040  44.328 -25.110  1.00  0.00    -0.357 OA
HETATM   21  H9          0      29.927  45.132 -24.616  1.00  0.00     0.218 HD
ENDBRANCH  17  20
BRANCH  18  22
HETATM   22  O11         0      31.292  41.818 -25.347  1.00  0.00    -0.357 OA
HETATM   23  H11         0      31.290  41.770 -26.296  1.00  0.00     0.218 HD
ENDBRANCH  18  22
ENDBRANCH   4  14
BRANCH   8  24
HETATM   24  O17         0      27.704  44.056 -16.795  1.00  0.00    -0.359 OA
HETATM   25  H17         0      28.504  44.544 -16.638  1.00  0.00     0.218 HD
ENDBRANCH   8  24
TORSDOF 5
ENDMDL
MODEL 7
REMARK VINA RESULT:      -4.0      9.511     11.944
REMARK  5 active torsions:
REMARK  status: ('A' for Active; 'I' for Inactive)
REMARK    1  A    between atoms: C4_4  and  C5_5 
REMARK    2  A    between atoms: C8_8  and  O9_9 
REMARK    3  A    between atoms: C10_11  and  O11_12 
REMARK    4  A    between atoms: C16_18  and  O17_19 
REMARK    5  A    between atoms: C19_22  and  O20_23 
ROOT
HETATM    1  O1          0      27.218  43.600 -15.271  1.00  0.00    -0.286 OA
HETATM    2  C2          0      27.683  43.771 -14.111  1.00  0.00     0.201 C 
HETATM    3  C3          0      27.028  44.512 -13.142  1.00  0.00     0.067 C 
HETATM    4  C4          0      27.609  44.771 -11.906  1.00  0.00     0.103 C 
HETATM    5  O13         0      28.807  44.276 -11.652  1.00  0.00    -0.307 OA
HETATM    6  C14         0      29.488  43.598 -12.549  1.00  0.00     0.107 C 
HETATM    7  C15         0      30.862  43.427 -12.449  1.00  0.00     0.049 C 
HETATM    8  C16         0      31.608  42.938 -13.515  1.00  0.00     0.093 C 
HETATM    9  C18         0      30.896  42.162 -14.422  1.00  0.00     0.048 C 
HETATM   10  C19         0      29.516  42.274 -14.516  1.00  0.00     0.096 C 
HETATM   11  C21         0      28.848  43.143 -13.697  1.00  0.00     0.084 C 
ENDROOT
BRANCH  10  12
HETATM   12  O20         0      28.876  41.849 -15.676  1.00  0.00    -0.359 OA
HETATM   13  H20         0      29.415  41.549 -16.398  1.00  0.00     0.218 HD
ENDBRANCH  10  12
BRANCH   4  14
HETATM   14  C5          0      27.186  45.986 -11.208  1.00  0.00     0.025 C 
HETATM   15  C6          0      27.782  46.426 -10.035  1.00  0.00     0.004 C 
HETATM   16  C7          0      27.957  47.797  -9.876  1.00  0.00     0.026 C 
HETATM   17  C8          0      27.436  48.710 -10.788  1.00  0.00     0.112 C 
HETATM   18  C10         0      26.362  48.238 -11.531  1.00  0.00     0.112 C 
HETATM   19  C12         0      26.259  46.869 -11.747  1.00  0.00     0.028 C 
BRANCH  17  20
HETATM   20  O9          0      28.093  49.898 -11.056  1.00  0.00    -0.357 OA
HETATM   21  H9          0      28.723  50.006 -11.759  1.00  0.00     0.218 HD
ENDBRANCH  17  20
BRANCH  18  22
HETATM   22  O11         0      25.687  49.162 -12.316  1.00  0.00    -0.357 OA
HETATM   23  H11         0      25.398  48.869 -13.173  1.00  0.00     0.218 HD
ENDBRANCH  18  22
ENDBRANCH   4  14
BRANCH   8  24
HETATM   24  O17         0      32.868  43.461 -13.824  1.00  0.00    -0.359 OA
HETATM   25  H17         0      33.418  43.074 -14.495  1.00  0.00     0.218 HD
ENDBRANCH   8  24
TORSDOF 5
ENDMDL
MODEL 8
REMARK VINA RESULT:      -4.0     10.470     11.296
REMARK  5 active torsions:
REMARK  status: ('A' for Active; 'I' for Inactive)
REMARK    1  A    between atoms: C4_4  and  C5_5 
REMARK    2  A    between atoms: C8_8  and  O9_9 
REMARK    3  A    between atoms: C10_11  and  O11_12 
REMARK    4  A    between atoms: C16_18  and  O17_19 
REMARK    5  A    between atoms: C19_22  and  O20_23 
ROOT
HETATM    1  O1          0      28.161  43.976 -24.168  1.00  0.00    -0.286 OA
HETATM    2  C2          0      27.840  43.152 -23.268  1.00  0.00     0.201 C 
HETATM    3  C3          0      26.912  43.440 -22.282  1.00  0.00     0.067 C 
HETATM    4  C4          0      26.653  42.553 -21.244  1.00  0.00     0.103 C 
HETATM    5  O13         0      27.298  41.400 -21.218  1.00  0.00    -0.307 OA
HETATM    6  C14         0      28.216  41.092 -22.108  1.00  0.00     0.107 C 
HETATM    7  C15         0      29.159  40.102 -21.873  1.00  0.00     0.049 C 
HETATM    8  C16         0      30.270  39.955 -22.694  1.00  0.00     0.093 C 
HETATM    9  C18         0      30.115  40.446 -23.985  1.00  0.00     0.048 C 
HETATM   10  C19         0      29.150  41.404 -24.265  1.00  0.00     0.096 C 
HETATM   11  C21         0      28.332  41.855 -23.265  1.00  0.00     0.084 C 
ENDROOT
BRANCH  10  12
HETATM   12  O20         0      29.282  42.190 -25.405  1.00  0.00    -0.359 OA
HETATM   13  H20         0      30.048  42.745 -25.476  1.00  0.00     0.218 HD
ENDBRANCH  10  12
BRANCH   4  14
HETATM   14  C5          0      26.172  43.120 -19.983  1.00  0.00     0.025 C 
HETATM   15  C6          0      26.602  42.670 -18.743  1.00  0.00     0.004 C 
HETATM   16  C7          0      26.797  43.618 -17.744  1.00  0.00     0.026 C 
HETATM   17  C8          0      26.449  44.952 -17.928  1.00  0.00     0.112 C 
HETATM   18  C10         0      25.482  45.171 -18.900  1.00  0.00     0.112 C 
HETATM   19  C12         0      25.365  44.250 -19.934  1.00  0.00     0.028 C 
BRANCH  17  20
HETATM   20  O9          0      27.178  45.964 -17.328  1.00  0.00    -0.357 OA
HETATM   21  H9          0      26.897  46.424 -16.545  1.00  0.00     0.218 HD
ENDBRANCH  17  20
BRANCH  18  22
HETATM   22  O11         0      24.963  46.454 -18.992  1.00  0.00    -0.357 OA
HETATM   23  H11         0      24.539  46.689 -19.810  1.00  0.00     0.218 HD
ENDBRANCH  18  22
ENDBRANCH   4  14
BRANCH   8  24
HETATM   24  O17         0      31.531  39.654 -22.168  1.00  0.00    -0.359 OA
HETATM   25  H17         0      31.722  39.753 -21.242  1.00  0.00     0.218 HD
ENDBRANCH   8  24
TORSDOF 5
ENDMDL
MODEL 9
REMARK VINA RESULT:      -3.8      5.847      8.547
REMARK  5 active torsions:
REMARK  status: ('A' for Active; 'I' for Inactive)
REMARK    1  A    between atoms: C4_4  and  C5_5 
REMARK    2  A    between atoms: C8_8  and  O9_9 
REMARK    3  A    between atoms: C10_11  and  O11_12 
REMARK    4  A    between atoms: C16_18  and  O17_19 
REMARK    5  A    between atoms: C19_22  and  O20_23 
ROOT
HETATM    1  O1          0      34.828  44.738 -14.730  1.00  0.00    -0.286 OA
HETATM    2  C2          0      34.338  43.657 -14.303  1.00  0.00     0.201 C 
HETATM    3  C3          0      32.977  43.401 -14.299  1.00  0.00     0.067 C 
HETATM    4  C4          0      32.456  42.244 -13.730  1.00  0.00     0.103 C 
HETATM    5  O13         0      33.289  41.366 -13.201  1.00  0.00    -0.307 OA
HETATM    6  C14         0      34.586  41.577 -13.146  1.00  0.00     0.107 C 
HETATM    7  C15         0      35.402  40.883 -12.265  1.00  0.00     0.049 C 
HETATM    8  C16         0      36.713  41.282 -12.029  1.00  0.00     0.093 C 
HETATM    9  C18         0      37.297  42.015 -13.055  1.00  0.00     0.048 C 
HETATM   10  C19         0      36.509  42.684 -13.982  1.00  0.00     0.096 C 
HETATM   11  C21         0      35.145  42.607 -13.895  1.00  0.00     0.084 C 
ENDROOT
BRANCH  10  12
HETATM   12  O20         0      37.058  43.735 -14.709  1.00  0.00    -0.359 OA
HETATM   13  H20         0      37.248  43.589 -15.628  1.00  0.00     0.218 HD
ENDBRANCH  10  12
BRANCH   4  14
HETATM   14  C5          0      31.083  42.307 -13.224  1.00  0.00     0.025 C 
HETATM   15  C6          0      30.711  43.113 -12.158  1.00  0.00     0.004 C 
HETATM   16  C7          0      29.472  43.743 -12.229  1.00  0.00     0.026 C 
HETATM   17  C8          0      28.576  43.477 -13.258  1.00  0.00     0.112 C 
HETATM   18  C10         0      28.755  42.248 -13.879  1.00  0.00     0.112 C 
HETATM   19  C12         0      30.023  41.680 -13.867  1.00  0.00     0.028 C 
BRANCH  17  20
HETATM   20  O9          0      27.731  44.463 -13.736  1.00  0.00    -0.357 OA
HETATM   21  H9          0      27.992  45.119 -14.371  1.00  0.00     0.218 HD
ENDBRANCH  17  20
BRANCH  18  22
HETATM   22  O11         0      27.777  41.851 -14.780  1.00  0.00    -0.357 OA
HETATM   23  H11         0      28.058  41.680 -15.672  1.00  0.00     0.218 HD
ENDBRANCH  18  22
ENDBRANCH   4  14
BRANCH   8  24
HETATM   24  O17         0      37.266  41.244 -10.744  1.00  0.00    -0.359 OA
HETATM   25  H17         0      38.141  40.908 -10.588  1.00  0.00     0.218 HD
ENDBRANCH   8  24
TORSDOF 5
ENDMDL
