MODEL 1
REMARK VINA RESULT:      -0.0      0.000      0.000
REMARK  5 active torsions:
REMARK  status: ('A' for Active; 'I' for Inactive)
REMARK    1  A    between atoms: C4_4  and  C5_5 
REMARK    2  A    between atoms: C8_8  and  O9_9 
REMARK    3  A    between atoms: C10_11  and  O11_12 
REMARK    4  A    between atoms: C16_18  and  O17_19 
REMARK    5  A    between atoms: C19_22  and  O20_23 
ROOT
HETATM    1  O1          0      24.465  23.442 -11.591  1.00  0.00    -0.286 OA
HETATM    2  C2          0      23.460  23.935 -11.009  1.00  0.00     0.201 C 
HETATM    3  C3          0      22.246  23.276 -10.920  1.00  0.00     0.067 C 
HETATM    4  C4          0      21.126  23.884 -10.364  1.00  0.00     0.103 C 
HETATM    5  O13         0      21.239  25.114  -9.894  1.00  0.00    -0.307 OA
HETATM    6  C14         0      22.358  25.798  -9.988  1.00  0.00     0.107 C 
HETATM    7  C15         0      22.381  27.181  -9.875  1.00  0.00     0.049 C 
HETATM    8  C16         0      23.508  27.915 -10.225  1.00  0.00     0.093 C 
HETATM    9  C18         0      24.707  27.213 -10.167  1.00  0.00     0.048 C 
HETATM   10  C19         0      24.716  25.827 -10.230  1.00  0.00     0.096 C 
HETATM   11  C21         0      23.536  25.143 -10.333  1.00  0.00     0.084 C 
ENDROOT
BRANCH  10  12
HETATM   12  O20         0      25.885  25.171 -10.606  1.00  0.00    -0.359 OA
HETATM   13  H20         0      25.871  24.663 -11.409  1.00  0.00     0.218 HD
ENDBRANCH  10  12
BRANCH   4  14
HETATM   14  C5          0      19.815  23.423 -10.825  1.00  0.00     0.025 C 
HETATM   15  C6          0      18.729  24.274 -10.975  1.00  0.00     0.004 C 
HETATM   16  C7          0      17.888  24.059 -12.061  1.00  0.00     0.026 C 
HETATM   17  C8          0      18.040  22.957 -12.896  1.00  0.00     0.112 C 
HETATM   18  C10         0      18.701  21.881 -12.320  1.00  0.00     0.112 C 
HETATM   19  C12         0      19.602  22.133 -11.291  1.00  0.00     0.028 C 
BRANCH  17  20
HETATM   20  O9          0      17.738  23.041 -14.243  1.00  0.00    -0.357 OA
HETATM   21  H9          0      16.934  23.418 -14.582  1.00  0.00     0.218 HD
ENDBRANCH  17  20
BRANCH  18  22
HETATM   22  O11         0      18.714  20.694 -13.038  1.00  0.00    -0.357 OA
HETATM   23  H11         0      18.902  20.756 -13.967  1.00  0.00     0.218 HD
ENDBRANCH  18  22
ENDBRANCH   4  14
BRANCH   8  24
HETATM   24  O17         0      23.403  29.136 -10.899  1.00  0.00    -0.359 OA
HETATM   25  H17         0      23.688  29.236 -11.800  1.00  0.00     0.218 HD
ENDBRANCH   8  24
TORSDOF 5
ENDMDL
MODEL 2
REMARK VINA RESULT:      -0.0      1.701      2.473
REMARK  5 active torsions:
REMARK  status: ('A' for Active; 'I' for Inactive)
REMARK    1  A    between atoms: C4_4  and  C5_5 
REMARK    2  A    between atoms: C8_8  and  O9_9 
REMARK    3  A    between atoms: C10_11  and  O11_12 
REMARK    4  A    between atoms: C16_18  and  O17_19 
REMARK    5  A    between atoms: C19_22  and  O20_23 
ROOT
HETATM    1  O1          0      22.541  23.255 -13.244  1.00  0.00    -0.286 OA
HETATM    2  C2          0      21.621  23.605 -12.455  1.00  0.00     0.201 C 
HETATM    3  C3          0      20.298  23.240 -12.635  1.00  0.00     0.067 C 
HETATM    4  C4          0      19.289  23.725 -11.810  1.00  0.00     0.103 C 
HETATM    5  O13         0      19.614  24.537 -10.820  1.00  0.00    -0.307 OA
HETATM    6  C14         0      20.850  24.945 -10.628  1.00  0.00     0.107 C 
HETATM    7  C15         0      21.137  26.075  -9.876  1.00  0.00     0.049 C 
HETATM    8  C16         0      22.405  26.644  -9.885  1.00  0.00     0.093 C 
HETATM    9  C18         0      23.437  25.775 -10.217  1.00  0.00     0.048 C 
HETATM   10  C19         0      23.177  24.611 -10.929  1.00  0.00     0.096 C 
HETATM   11  C21         0      21.893  24.310 -11.292  1.00  0.00     0.084 C 
ENDROOT
BRANCH  10  12
HETATM   12  O20         0      24.214  23.992 -11.620  1.00  0.00    -0.359 OA
HETATM   13  H20         0      24.872  24.544 -12.025  1.00  0.00     0.218 HD
ENDBRANCH  10  12
BRANCH   4  14
HETATM   14  C5          0      17.942  23.809 -12.377  1.00  0.00     0.025 C 
HETATM   15  C6          0      17.055  24.827 -12.060  1.00  0.00     0.004 C 
HETATM   16  C7          0      16.252  25.324 -13.082  1.00  0.00     0.026 C 
HETATM   17  C8          0      16.232  24.740 -14.344  1.00  0.00     0.112 C 
HETATM   18  C10         0      16.635  23.412 -14.374  1.00  0.00     0.112 C 
HETATM   19  C12         0      17.506  22.963 -13.389  1.00  0.00     0.028 C 
BRANCH  17  20
HETATM   20  O9          0      16.031  25.508 -15.477  1.00  0.00    -0.357 OA
HETATM   21  H9          0      15.174  25.698 -15.840  1.00  0.00     0.218 HD
ENDBRANCH  17  20
BRANCH  18  22
HETATM   22  O11         0      16.456  22.728 -15.568  1.00  0.00    -0.357 OA
HETATM   23  H11         0      15.770  23.043 -16.146  1.00  0.00     0.218 HD
ENDBRANCH  18  22
ENDBRANCH   4  14
BRANCH   8  24
HETATM   24  O17         0      22.581  28.033  -9.896  1.00  0.00    -0.359 OA
HETATM   25  H17         0      22.570  28.544  -9.096  1.00  0.00     0.218 HD
ENDBRANCH   8  24
TORSDOF 5
ENDMDL
MODEL 3
REMARK VINA RESULT:      -0.0      2.980      6.647
REMARK  5 active torsions:
REMARK  status: ('A' for Active; 'I' for Inactive)
REMARK    1  A    between atoms: C4_4  and  C5_5 
REMARK    2  A    between atoms: C8_8  and  O9_9 
REMARK    3  A    between atoms: C10_11  and  O11_12 
REMARK    4  A    between atoms: C16_18  and  O17_19 
REMARK    5  A    between atoms: C19_22  and  O20_23 
ROOT
HETATM    1  O1          0      18.806  23.976 -15.668  1.00  0.00    -0.286 OA
HETATM    2  C2          0      19.341  23.250 -14.786  1.00  0.00     0.201 C 
HETATM    3  C3          0      19.251  23.524 -13.432  1.00  0.00     0.067 C 
HETATM    4  C4          0      19.935  22.767 -12.488  1.00  0.00     0.103 C 
HETATM    5  O13         0      20.671  21.750 -12.902  1.00  0.00    -0.307 OA
HETATM    6  C14         0      20.821  21.470 -14.177  1.00  0.00     0.107 C 
HETATM    7  C15         0      21.873  20.690 -14.636  1.00  0.00     0.049 C 
HETATM    8  C16         0      22.174  20.608 -15.990  1.00  0.00     0.093 C 
HETATM    9  C18         0      21.111  20.875 -16.844  1.00  0.00     0.048 C 
HETATM   10  C19         0      20.020  21.612 -16.404  1.00  0.00     0.096 C 
HETATM   11  C21         0      19.983  22.065 -15.114  1.00  0.00     0.084 C 
ENDROOT
BRANCH  10  12
HETATM   12  O20         0      19.199  22.235 -17.339  1.00  0.00    -0.359 OA
HETATM   13  H20         0      18.863  21.711 -18.056  1.00  0.00     0.218 HD
ENDBRANCH  10  12
BRANCH   4  14
HETATM   14  C5          0      20.287  23.425 -11.228  1.00  0.00     0.025 C 
HETATM   15  C6          0      21.415  23.089 -10.494  1.00  0.00     0.004 C 
HETATM   16  C7          0      22.114  24.122  -9.877  1.00  0.00     0.026 C 
HETATM   17  C8          0      21.635  25.427  -9.875  1.00  0.00     0.112 C 
HETATM   18  C10         0      20.263  25.542 -10.057  1.00  0.00     0.112 C 
HETATM   19  C12         0      19.603  24.536 -10.752  1.00  0.00     0.028 C 
BRANCH  17  20
HETATM   20  O9          0      22.506  26.502  -9.903  1.00  0.00    -0.357 OA
HETATM   21  H9          0      22.267  27.367 -10.216  1.00  0.00     0.218 HD
ENDBRANCH  17  20
BRANCH  18  22
HETATM   22  O11         0      19.708  26.801  -9.876  1.00  0.00    -0.357 OA
HETATM   23  H11         0      19.344  27.225 -10.645  1.00  0.00     0.218 HD
ENDBRANCH  18  22
ENDBRANCH   4  14
BRANCH   8  24
HETATM   24  O17         0      23.498  20.596 -16.444  1.00  0.00    -0.359 OA
HETATM   25  H17         0      23.801  21.197 -17.114  1.00  0.00     0.218 HD
ENDBRANCH   8  24
TORSDOF 5
ENDMDL
MODEL 4
REMARK VINA RESULT:      -0.0      4.757      5.642
REMARK  5 active torsions:
REMARK  status: ('A' for Active; 'I' for Inactive)
REMARK    1  A    between atoms: C4_4  and  C5_5 
REMARK    2  A    between atoms: C8_8  and  O9_9 
REMARK    3  A    between atoms: C10_11  and  O11_12 
REMARK    4  A    between atoms: C16_18  and  O17_19 
REMARK    5  A    between atoms: C19_22  and  O20_23 
ROOT
HETATM    1  O1          0      21.818  23.636 -12.648  1.00  0.00    -0.286 OA
HETATM    2  C2          0      21.867  24.845 -13.004  1.00  0.00     0.201 C 
HETATM    3  C3          0      21.704  25.248 -14.319  1.00  0.00     0.067 C 
HETATM    4  C4          0      21.864  26.576 -14.699  1.00  0.00     0.103 C 
HETATM    5  O13         0      22.158  27.471 -13.772  1.00  0.00    -0.307 OA
HETATM    6  C14         0      22.360  27.136 -12.516  1.00  0.00     0.107 C 
HETATM    7  C15         0      23.043  27.966 -11.639  1.00  0.00     0.049 C 
HETATM    8  C16         0      23.474  27.507 -10.400  1.00  0.00     0.093 C 
HETATM    9  C18         0      22.756  26.433  -9.889  1.00  0.00     0.048 C 
HETATM   10  C19         0      22.023  25.609 -10.733  1.00  0.00     0.096 C 
HETATM   11  C21         0      21.993  25.868 -12.077  1.00  0.00     0.084 C 
ENDROOT
BRANCH  10  12
HETATM   12  O20         0      21.683  24.329 -10.308  1.00  0.00    -0.359 OA
HETATM   13  H20         0      20.764  24.136 -10.167  1.00  0.00     0.218 HD
ENDBRANCH  10  12
BRANCH   4  14
HETATM   14  C5          0      22.274  26.832 -16.081  1.00  0.00     0.025 C 
HETATM   15  C6          0      23.120  27.874 -16.433  1.00  0.00     0.004 C 
HETATM   16  C7          0      24.057  27.632 -17.433  1.00  0.00     0.026 C 
HETATM   17  C8          0      24.066  26.442 -18.152  1.00  0.00     0.112 C 
HETATM   18  C10         0      22.851  25.770 -18.176  1.00  0.00     0.112 C 
HETATM   19  C12         0      21.968  25.964 -17.121  1.00  0.00     0.028 C 
BRANCH  17  20
HETATM   20  O9          0      25.254  25.899 -18.610  1.00  0.00    -0.357 OA
HETATM   21  H9          0      25.878  26.372 -19.148  1.00  0.00     0.218 HD
ENDBRANCH  17  20
BRANCH  18  22
HETATM   22  O11         0      22.752  24.681 -19.031  1.00  0.00    -0.357 OA
HETATM   23  H11         0      22.892  24.847 -19.956  1.00  0.00     0.218 HD
ENDBRANCH  18  22
ENDBRANCH   4  14
BRANCH   8  24
HETATM   24  O17         0      24.721  27.872  -9.881  1.00  0.00    -0.359 OA
HETATM   25  H17         0      25.425  27.241  -9.782  1.00  0.00     0.218 HD
ENDBRANCH   8  24
TORSDOF 5
ENDMDL
MODEL 5
REMARK VINA RESULT:      -0.0      4.651      6.346
REMARK  5 active torsions:
REMARK  status: ('A' for Active; 'I' for Inactive)
REMARK    1  A    between atoms: C4_4  and  C5_5 
REMARK    2  A    between atoms: C8_8  and  O9_9 
REMARK    3  A    between atoms: C10_11  and  O11_12 
REMARK    4  A    between atoms: C16_18  and  O17_19 
REMARK    5  A    between atoms: C19_22  and  O20_23 
ROOT
HETATM    1  O1          0      21.517  21.232 -16.408  1.00  0.00    -0.286 OA
HETATM    2  C2          0      22.401  21.994 -15.930  1.00  0.00     0.201 C 
HETATM    3  C3          0      22.831  21.914 -14.616  1.00  0.00     0.067 C 
HETATM    4  C4          0      23.731  22.832 -14.087  1.00  0.00     0.103 C 
HETATM    5  O13         0      24.197  23.788 -14.871  1.00  0.00    -0.307 OA
HETATM    6  C14         0      23.793  23.932 -16.114  1.00  0.00     0.107 C 
HETATM    7  C15         0      23.955  25.126 -16.801  1.00  0.00     0.049 C 
HETATM    8  C16         0      23.308  25.357 -18.009  1.00  0.00     0.093 C 
HETATM    9  C18         0      22.963  24.212 -18.718  1.00  0.00     0.048 C 
HETATM   10  C19         0      22.839  22.991 -18.070  1.00  0.00     0.096 C 
HETATM   11  C21         0      23.074  22.910 -16.724  1.00  0.00     0.084 C 
ENDROOT
BRANCH  10  12
HETATM   12  O20         0      22.092  21.978 -18.664  1.00  0.00    -0.359 OA
HETATM   13  H20         0      22.356  21.080 -18.506  1.00  0.00     0.218 HD
ENDBRANCH  10  12
BRANCH   4  14
HETATM   14  C5          0      23.675  23.068 -12.643  1.00  0.00     0.025 C 
HETATM   15  C6          0      24.093  24.255 -12.059  1.00  0.00     0.004 C 
HETATM   16  C7          0      23.352  24.742 -10.987  1.00  0.00     0.026 C 
HETATM   17  C8          0      22.311  24.008 -10.427  1.00  0.00     0.112 C 
HETATM   18  C10         0      22.387  22.638 -10.641  1.00  0.00     0.112 C 
HETATM   19  C12         0      23.062  22.182 -11.767  1.00  0.00     0.028 C 
BRANCH  17  20
HETATM   20  O9          0      21.203  24.643  -9.895  1.00  0.00    -0.357 OA
HETATM   21  H9          0      21.246  25.447  -9.391  1.00  0.00     0.218 HD
ENDBRANCH  17  20
BRANCH  18  22
HETATM   22  O11         0      21.484  21.844  -9.949  1.00  0.00    -0.357 OA
HETATM   23  H11         0      21.156  21.073 -10.399  1.00  0.00     0.218 HD
ENDBRANCH  18  22
ENDBRANCH   4  14
BRANCH   8  24
HETATM   24  O17         0      22.754  26.605 -18.313  1.00  0.00    -0.359 OA
HETATM   25  H17         0      23.297  27.349 -18.546  1.00  0.00     0.218 HD
ENDBRANCH   8  24
TORSDOF 5
ENDMDL
MODEL 6
REMARK VINA RESULT:      -0.0      4.828      6.862
REMARK  5 active torsions:
REMARK  status: ('A' for Active; 'I' for Inactive)
REMARK    1  A    between atoms: C4_4  and  C5_5 
REMARK    2  A    between atoms: C8_8  and  O9_9 
REMARK    3  A    between atoms: C10_11  and  O11_12 
REMARK    4  A    between atoms: C16_18  and  O17_19 
REMARK    5  A    between atoms: C19_22  and  O20_23 
ROOT
HETATM    1  O1          0      24.647  27.698 -16.346  1.00  0.00    -0.286 OA
HETATM    2  C2          0      23.525  27.529 -15.797  1.00  0.00     0.201 C 
HETATM    3  C3          0      23.320  27.704 -14.439  1.00  0.00     0.067 C 
HETATM    4  C4          0      22.098  27.412 -13.842  1.00  0.00     0.103 C 
HETATM    5  O13         0      21.109  26.977 -14.602  1.00  0.00    -0.307 OA
HETATM    6  C14         0      21.261  26.758 -15.890  1.00  0.00     0.107 C 
HETATM    7  C15         0      20.390  25.945 -16.601  1.00  0.00     0.049 C 
HETATM    8  C16         0      20.692  25.514 -17.887  1.00  0.00     0.093 C 
HETATM    9  C18         0      21.579  26.325 -18.585  1.00  0.00     0.048 C 
HETATM   10  C19         0      22.432  27.184 -17.907  1.00  0.00     0.096 C 
HETATM   11  C21         0      22.389  27.245 -16.541  1.00  0.00     0.084 C 
ENDROOT
BRANCH  10  12
HETATM   12  O20         0      23.579  27.648 -18.545  1.00  0.00    -0.359 OA
HETATM   13  H20         0      23.589  27.651 -19.494  1.00  0.00     0.218 HD
ENDBRANCH  10  12
BRANCH   4  14
HETATM   14  C5          0      22.116  27.039 -12.427  1.00  0.00     0.025 C 
HETATM   15  C6          0      21.216  26.139 -11.875  1.00  0.00     0.004 C 
HETATM   16  C7          0      21.694  25.259 -10.909  1.00  0.00     0.026 C 
HETATM   17  C8          0      22.988  25.356 -10.411  1.00  0.00     0.112 C 
HETATM   18  C10         0      23.566  26.612 -10.537  1.00  0.00     0.112 C 
HETATM   19  C12         0      23.128  27.440 -11.564  1.00  0.00     0.028 C 
BRANCH  17  20
HETATM   20  O9          0      23.686  24.225 -10.026  1.00  0.00    -0.357 OA
HETATM   21  H9          0      23.270  23.417  -9.748  1.00  0.00     0.218 HD
ENDBRANCH  17  20
BRANCH  18  22
HETATM   22  O11         0      24.777  26.815  -9.890  1.00  0.00    -0.357 OA
HETATM   23  H11         0      24.830  27.558  -9.300  1.00  0.00     0.218 HD
ENDBRANCH  18  22
ENDBRANCH   4  14
BRANCH   8  24
HETATM   24  O17         0      20.401  24.211 -18.306  1.00  0.00    -0.359 OA
HETATM   25  H17         0      20.919  23.467 -18.022  1.00  0.00     0.218 HD
ENDBRANCH   8  24
TORSDOF 5
ENDMDL
MODEL 7
REMARK VINA RESULT:      -0.0      4.516      6.634
REMARK  5 active torsions:
REMARK  status: ('A' for Active; 'I' for Inactive)
REMARK    1  A    between atoms: C4_4  and  C5_5 
REMARK    2  A    between atoms: C8_8  and  O9_9 
REMARK    3  A    between atoms: C10_11  and  O11_12 
REMARK    4  A    between atoms: C16_18  and  O17_19 
REMARK    5  A    between atoms: C19_22  and  O20_23 
ROOT
HETATM    1  O1          0      20.416  26.234 -16.444  1.00  0.00    -0.286 OA
HETATM    2  C2          0      21.144  25.358 -15.902  1.00  0.00     0.201 C 
HETATM    3  C3          0      21.050  25.028 -14.561  1.00  0.00     0.067 C 
HETATM    4  C4          0      21.933  24.134 -13.966  1.00  0.00     0.103 C 
HETATM    5  O13         0      22.869  23.576 -14.713  1.00  0.00    -0.307 OA
HETATM    6  C14         0      23.026  23.882 -15.982  1.00  0.00     0.107 C 
HETATM    7  C15         0      24.212  23.625 -16.654  1.00  0.00     0.049 C 
HETATM    8  C16         0      24.466  24.172 -17.906  1.00  0.00     0.093 C 
HETATM    9  C18         0      23.334  24.509 -18.639  1.00  0.00     0.048 C 
HETATM   10  C19         0      22.120  24.727 -18.003  1.00  0.00     0.096 C 
HETATM   11  C21         0      22.032  24.594 -16.644  1.00  0.00     0.084 C 
ENDROOT
BRANCH  10  12
HETATM   12  O20         0      21.136  25.467 -18.651  1.00  0.00    -0.359 OA
HETATM   13  H20         0      20.710  25.077 -19.405  1.00  0.00     0.218 HD
ENDBRANCH  10  12
BRANCH   4  14
HETATM   14  C5          0      22.174  24.286 -12.530  1.00  0.00     0.025 C 
HETATM   15  C6          0      23.430  24.147 -11.959  1.00  0.00     0.004 C 
HETATM   16  C7          0      23.765  25.009 -10.920  1.00  0.00     0.026 C 
HETATM   17  C8          0      22.837  25.890 -10.375  1.00  0.00     0.112 C 
HETATM   18  C10         0      21.511  25.520 -10.557  1.00  0.00     0.112 C 
HETATM   19  C12         0      21.191  24.727 -11.653  1.00  0.00     0.028 C 
BRANCH  17  20
HETATM   20  O9          0      23.231  27.124  -9.889  1.00  0.00    -0.357 OA
HETATM   21  H9          0      23.944  27.633 -10.257  1.00  0.00     0.218 HD
ENDBRANCH  17  20
BRANCH  18  22
HETATM   22  O11         0      20.554  26.258  -9.875  1.00  0.00    -0.357 OA
HETATM   23  H11         0      20.580  26.223  -8.926  1.00  0.00     0.218 HD
ENDBRANCH  18  22
ENDBRANCH   4  14
BRANCH   8  24
HETATM   24  O17         0      25.734  24.654 -18.248  1.00  0.00    -0.359 OA
HETATM   25  H17         0      26.196  25.278 -17.700  1.00  0.00     0.218 HD
ENDBRANCH   8  24
TORSDOF 5
ENDMDL
MODEL 8
REMARK VINA RESULT:      -0.0      4.712      7.180
REMARK  5 active torsions:
REMARK  status: ('A' for Active; 'I' for Inactive)
REMARK    1  A    between atoms: C4_4  and  C5_5 
REMARK    2  A    between atoms: C8_8  and  O9_9 
REMARK    3  A    between atoms: C10_11  and  O11_12 
REMARK    4  A    between atoms: C16_18  and  O17_19 
REMARK    5  A    between atoms: C19_22  and  O20_23 
ROOT
HETATM    1  O1          0      22.272  26.884 -12.866  1.00  0.00    -0.286 OA
HETATM    2  C2          0      23.530  26.793 -12.863  1.00  0.00     0.201 C 
HETATM    3  C3          0      24.321  27.284 -13.888  1.00  0.00     0.067 C 
HETATM    4  C4          0      25.696  27.080 -13.909  1.00  0.00     0.103 C 
HETATM    5  O13         0      26.255  26.419 -12.911  1.00  0.00    -0.307 OA
HETATM    6  C14         0      25.546  25.900 -11.933  1.00  0.00     0.107 C 
HETATM    7  C15         0      26.047  24.891 -11.122  1.00  0.00     0.049 C 
HETATM    8  C16         0      25.220  24.175 -10.266  1.00  0.00     0.093 C 
HETATM    9  C18         0      24.061  24.838  -9.879  1.00  0.00     0.048 C 
HETATM   10  C19         0      23.558  25.883 -10.642  1.00  0.00     0.096 C 
HETATM   11  C21         0      24.216  26.274 -11.775  1.00  0.00     0.084 C 
ENDROOT
BRANCH  10  12
HETATM   12  O20         0      22.219  26.238 -10.509  1.00  0.00    -0.359 OA
HETATM   13  H20         0      21.565  25.653 -10.872  1.00  0.00     0.218 HD
ENDBRANCH  10  12
BRANCH   4  14
HETATM   14  C5          0      26.351  27.067 -15.218  1.00  0.00     0.025 C 
HETATM   15  C6          0      27.424  26.239 -15.514  1.00  0.00     0.004 C 
HETATM   16  C7          0      27.473  25.675 -16.785  1.00  0.00     0.026 C 
HETATM   17  C8          0      26.561  26.027 -17.774  1.00  0.00     0.112 C 
HETATM   18  C10         0      25.966  27.269 -17.598  1.00  0.00     0.112 C 
HETATM   19  C12         0      25.853  27.771 -16.307  1.00  0.00     0.028 C 
BRANCH  17  20
HETATM   20  O9          0      26.149  25.105 -18.719  1.00  0.00    -0.357 OA
HETATM   21  H9          0      25.867  24.222 -18.507  1.00  0.00     0.218 HD
ENDBRANCH  17  20
BRANCH  18  22
HETATM   22  O11         0      25.195  27.751 -18.647  1.00  0.00    -0.357 OA
HETATM   23  H11         0      24.383  28.190 -18.418  1.00  0.00     0.218 HD
ENDBRANCH  18  22
ENDBRANCH   4  14
BRANCH   8  24
HETATM   24  O17         0      25.372  22.795 -10.089  1.00  0.00    -0.359 OA
HETATM   25  H17         0      26.095  22.432  -9.591  1.00  0.00     0.218 HD
ENDBRANCH   8  24
TORSDOF 5
ENDMDL
MODEL 9
REMARK VINA RESULT:      -0.0      4.021      6.893
REMARK  5 active torsions:
REMARK  status: ('A' for Active; 'I' for Inactive)
REMARK    1  A    between atoms: C4_4  and  C5_5 
REMARK    2  A    between atoms: C8_8  and  O9_9 
REMARK    3  A    between atoms: C10_11  and  O11_12 
REMARK    4  A    between atoms: C16_18  and  O17_19 
REMARK    5  A    between atoms: C19_22  and  O20_23 
ROOT
HETATM    1  O1          0      23.282  23.232 -16.446  1.00  0.00    -0.286 OA
HETATM    2  C2          0      22.891  22.714 -15.364  1.00  0.00     0.201 C 
HETATM    3  C3          0      22.385  23.461 -14.314  1.00  0.00     0.067 C 
HETATM    4  C4          0      22.058  22.877 -13.096  1.00  0.00     0.103 C 
HETATM    5  O13         0      22.218  21.573 -12.953  1.00  0.00    -0.307 OA
HETATM    6  C14         0      22.729  20.824 -13.905  1.00  0.00     0.107 C 
HETATM    7  C15         0      23.266  19.572 -13.640  1.00  0.00     0.049 C 
HETATM    8  C16         0      24.027  18.898 -14.588  1.00  0.00     0.093 C 
HETATM    9  C18         0      23.777  19.260 -15.906  1.00  0.00     0.048 C 
HETATM   10  C19         0      23.198  20.486 -16.204  1.00  0.00     0.096 C 
HETATM   11  C21         0      22.855  21.339 -15.191  1.00  0.00     0.084 C 
ENDROOT
BRANCH  10  12
HETATM   12  O20         0      23.350  21.018 -17.481  1.00  0.00    -0.359 OA
HETATM   13  H20         0      23.919  20.561 -18.089  1.00  0.00     0.218 HD
ENDBRANCH  10  12
BRANCH   4  14
HETATM   14  C5          0      22.120  23.729 -11.907  1.00  0.00     0.025 C 
HETATM   15  C6          0      22.527  23.260 -10.666  1.00  0.00     0.004 C 
HETATM   16  C7          0      23.302  24.107  -9.880  1.00  0.00     0.026 C 
HETATM   17  C8          0      23.554  25.422 -10.253  1.00  0.00     0.112 C 
HETATM   18  C10         0      22.622  25.965 -11.129  1.00  0.00     0.112 C 
HETATM   19  C12         0      21.921  25.103 -11.964  1.00  0.00     0.028 C 
BRANCH  17  20
HETATM   20  O9          0      24.752  26.034  -9.931  1.00  0.00    -0.357 OA
HETATM   21  H9          0      25.562  25.562  -9.777  1.00  0.00     0.218 HD
ENDBRANCH  17  20
BRANCH  18  22
HETATM   22  O11         0      22.717  27.325 -11.384  1.00  0.00    -0.357 OA
HETATM   23  H11         0      21.902  27.799 -11.500  1.00  0.00     0.218 HD
ENDBRANCH  18  22
ENDBRANCH   4  14
BRANCH   8  24
HETATM   24  O17         0      25.171  18.178 -14.227  1.00  0.00    -0.359 OA
HETATM   25  H17         0      25.962  18.613 -13.932  1.00  0.00     0.218 HD
ENDBRANCH   8  24
TORSDOF 5
ENDMDL
