MODEL 1
REMARK VINA RESULT:      -3.4      0.000      0.000
REMARK  5 active torsions:
REMARK  status: ('A' for Active; 'I' for Inactive)
REMARK    1  A    between atoms: C4_4  and  C5_5 
REMARK    2  A    between atoms: C8_8  and  O9_9 
REMARK    3  A    between atoms: C10_11  and  O11_12 
REMARK    4  A    between atoms: C16_18  and  O17_19 
REMARK    5  A    between atoms: C19_22  and  O20_23 
ROOT
HETATM    1  O1          0      40.961 101.032 -13.679  1.00  0.00    -0.286 OA
HETATM    2  C2          0      41.811 101.950 -13.842  1.00  0.00     0.201 C 
HETATM    3  C3          0      42.900 102.122 -13.004  1.00  0.00     0.067 C 
HETATM    4  C4          0      43.764 103.202 -13.144  1.00  0.00     0.103 C 
HETATM    5  O13         0      43.543 104.069 -14.117  1.00  0.00    -0.307 OA
HETATM    6  C14         0      42.504 103.973 -14.916  1.00  0.00     0.107 C 
HETATM    7  C15         0      42.046 105.056 -15.653  1.00  0.00     0.049 C 
HETATM    8  C16         0      40.812 105.025 -16.291  1.00  0.00     0.093 C 
HETATM    9  C18         0      40.342 103.754 -16.598  1.00  0.00     0.048 C 
HETATM   10  C19         0      40.813 102.643 -15.913  1.00  0.00     0.096 C 
HETATM   11  C21         0      41.761 102.798 -14.938  1.00  0.00     0.084 C 
ENDROOT
BRANCH  10  12
HETATM   12  O20         0      40.056 101.475 -15.906  1.00  0.00    -0.359 OA
HETATM   13  H20         0      39.671 101.190 -16.726  1.00  0.00     0.218 HD
ENDBRANCH  10  12
BRANCH   4  14
HETATM   14  C5          0      44.472 103.653 -11.945  1.00  0.00     0.025 C 
HETATM   15  C6          0      44.754 102.813 -10.878  1.00  0.00     0.004 C 
HETATM   16  C7          0      45.981 102.969 -10.241  1.00  0.00     0.026 C 
HETATM   17  C8          0      46.843 104.012 -10.564  1.00  0.00     0.112 C 
HETATM   18  C10         0      46.229 105.113 -11.146  1.00  0.00     0.112 C 
HETATM   19  C12         0      45.047 104.914 -11.850  1.00  0.00     0.028 C 
BRANCH  17  20
HETATM   20  O9          0      48.215 103.845 -10.495  1.00  0.00    -0.357 OA
HETATM   21  H9          0      48.691 103.181 -10.981  1.00  0.00     0.218 HD
ENDBRANCH  17  20
BRANCH  18  22
HETATM   22  O11         0      47.005 106.250 -11.315  1.00  0.00    -0.357 OA
HETATM   23  H11         0      47.715 106.382 -10.696  1.00  0.00     0.218 HD
ENDBRANCH  18  22
ENDBRANCH   4  14
BRANCH   8  24
HETATM   24  O17         0      39.972 106.144 -16.310  1.00  0.00    -0.359 OA
HETATM   25  H17         0      40.316 107.028 -16.247  1.00  0.00     0.218 HD
ENDBRANCH   8  24
TORSDOF 5
ENDMDL
MODEL 2
REMARK VINA RESULT:      -3.0      2.862      4.753
REMARK  5 active torsions:
REMARK  status: ('A' for Active; 'I' for Inactive)
REMARK    1  A    between atoms: C4_4  and  C5_5 
REMARK    2  A    between atoms: C8_8  and  O9_9 
REMARK    3  A    between atoms: C10_11  and  O11_12 
REMARK    4  A    between atoms: C16_18  and  O17_19 
REMARK    5  A    between atoms: C19_22  and  O20_23 
ROOT
HETATM    1  O1          0      46.002 101.967 -13.863  1.00  0.00    -0.286 OA
HETATM    2  C2          0      44.944 102.606 -14.115  1.00  0.00     0.201 C 
HETATM    3  C3          0      44.911 103.985 -14.241  1.00  0.00     0.067 C 
HETATM    4  C4          0      43.716 104.673 -14.417  1.00  0.00     0.103 C 
HETATM    5  O13         0      42.591 103.983 -14.485  1.00  0.00    -0.307 OA
HETATM    6  C14         0      42.562 102.677 -14.335  1.00  0.00     0.107 C 
HETATM    7  C15         0      41.393 102.005 -14.007  1.00  0.00     0.049 C 
HETATM    8  C16         0      41.413 100.676 -13.602  1.00  0.00     0.093 C 
HETATM    9  C18         0      42.510  99.945 -14.043  1.00  0.00     0.048 C 
HETATM   10  C19         0      43.680 100.588 -14.423  1.00  0.00     0.096 C 
HETATM   11  C21         0      43.749 101.954 -14.379  1.00  0.00     0.084 C 
ENDROOT
BRANCH  10  12
HETATM   12  O20         0      44.875  99.875 -14.437  1.00  0.00    -0.359 OA
HETATM   13  H20         0      45.474  99.995 -13.710  1.00  0.00     0.218 HD
ENDBRANCH  10  12
BRANCH   4  14
HETATM   14  C5          0      43.666 106.059 -13.948  1.00  0.00     0.025 C 
HETATM   15  C6          0      43.289 107.115 -14.765  1.00  0.00     0.004 C 
HETATM   16  C7          0      42.517 108.125 -14.198  1.00  0.00     0.026 C 
HETATM   17  C8          0      42.242 108.154 -12.835  1.00  0.00     0.112 C 
HETATM   18  C10         0      43.149 107.460 -12.045  1.00  0.00     0.112 C 
HETATM   19  C12         0      43.845 106.401 -12.614  1.00  0.00     0.028 C 
BRANCH  17  20
HETATM   20  O9          0      41.042 108.658 -12.365  1.00  0.00    -0.357 OA
HETATM   21  H9          0      40.276 108.791 -12.910  1.00  0.00     0.218 HD
ENDBRANCH  17  20
BRANCH  18  22
HETATM   22  O11         0      43.031 107.613 -10.671  1.00  0.00    -0.357 OA
HETATM   23  H11         0      42.342 107.119 -10.241  1.00  0.00     0.218 HD
ENDBRANCH  18  22
ENDBRANCH   4  14
BRANCH   8  24
HETATM   24  O17         0      40.589 100.215 -12.569  1.00  0.00    -0.359 OA
HETATM   25  H17         0      40.938  99.728 -11.832  1.00  0.00     0.218 HD
ENDBRANCH   8  24
TORSDOF 5
ENDMDL
MODEL 3
REMARK VINA RESULT:      -2.9      3.277      6.188
REMARK  5 active torsions:
REMARK  status: ('A' for Active; 'I' for Inactive)
REMARK    1  A    between atoms: C4_4  and  C5_5 
REMARK    2  A    between atoms: C8_8  and  O9_9 
REMARK    3  A    between atoms: C10_11  and  O11_12 
REMARK    4  A    between atoms: C16_18  and  O17_19 
REMARK    5  A    between atoms: C19_22  and  O20_23 
ROOT
HETATM    1  O1          0      43.222 108.482 -15.708  1.00  0.00    -0.286 OA
HETATM    2  C2          0      43.391 107.630 -14.792  1.00  0.00     0.201 C 
HETATM    3  C3          0      43.573 106.281 -15.047  1.00  0.00     0.067 C 
HETATM    4  C4          0      43.654 105.350 -14.018  1.00  0.00     0.103 C 
HETATM    5  O13         0      43.573 105.775 -12.769  1.00  0.00    -0.307 OA
HETATM    6  C14         0      43.363 107.039 -12.473  1.00  0.00     0.107 C 
HETATM    7  C15         0      42.885 107.429 -11.230  1.00  0.00     0.049 C 
HETATM    8  C16         0      42.426 108.721 -11.007  1.00  0.00     0.093 C 
HETATM    9  C18         0      42.946 109.685 -11.862  1.00  0.00     0.048 C 
HETATM   10  C19         0      43.474 109.324 -13.094  1.00  0.00     0.096 C 
HETATM   11  C21         0      43.499 108.007 -13.463  1.00  0.00     0.084 C 
ENDROOT
BRANCH  10  12
HETATM   12  O20         0      43.581 110.284 -14.095  1.00  0.00    -0.359 OA
HETATM   13  H20         0      43.943 111.131 -13.863  1.00  0.00     0.218 HD
ENDBRANCH  10  12
BRANCH   4  14
HETATM   14  C5          0      43.245 103.978 -14.323  1.00  0.00     0.025 C 
HETATM   15  C6          0      43.864 102.868 -13.767  1.00  0.00     0.004 C 
HETATM   16  C7          0      43.058 101.788 -13.417  1.00  0.00     0.026 C 
HETATM   17  C8          0      41.704 101.757 -13.732  1.00  0.00     0.112 C 
HETATM   18  C10         0      41.338 102.567 -14.799  1.00  0.00     0.112 C 
HETATM   19  C12         0      42.113 103.688 -15.073  1.00  0.00     0.028 C 
BRANCH  17  20
HETATM   20  O9          0      40.797 101.128 -12.898  1.00  0.00    -0.357 OA
HETATM   21  H9          0      39.901 101.421 -12.776  1.00  0.00     0.218 HD
ENDBRANCH  17  20
BRANCH  18  22
HETATM   22  O11         0      40.041 102.432 -15.275  1.00  0.00    -0.357 OA
HETATM   23  H11         0      39.920 101.885 -16.043  1.00  0.00     0.218 HD
ENDBRANCH  18  22
ENDBRANCH   4  14
BRANCH   8  24
HETATM   24  O17         0      41.293 108.967 -10.223  1.00  0.00    -0.359 OA
HETATM   25  H17         0      40.885 109.824 -10.189  1.00  0.00     0.218 HD
ENDBRANCH   8  24
TORSDOF 5
ENDMDL
MODEL 4
REMARK VINA RESULT:      -2.7      1.547      2.887
REMARK  5 active torsions:
REMARK  status: ('A' for Active; 'I' for Inactive)
REMARK    1  A    between atoms: C4_4  and  C5_5 
REMARK    2  A    between atoms: C8_8  and  O9_9 
REMARK    3  A    between atoms: C10_11  and  O11_12 
REMARK    4  A    between atoms: C16_18  and  O17_19 
REMARK    5  A    between atoms: C19_22  and  O20_23 
ROOT
HETATM    1  O1          0      42.690 105.078 -15.785  1.00  0.00    -0.286 OA
HETATM    2  C2          0      42.588 104.109 -14.984  1.00  0.00     0.201 C 
HETATM    3  C3          0      43.442 103.931 -13.909  1.00  0.00     0.067 C 
HETATM    4  C4          0      43.371 102.801 -13.102  1.00  0.00     0.103 C 
HETATM    5  O13         0      42.451 101.890 -13.365  1.00  0.00    -0.307 OA
HETATM    6  C14         0      41.640 101.992 -14.395  1.00  0.00     0.107 C 
HETATM    7  C15         0      40.966 100.892 -14.906  1.00  0.00     0.049 C 
HETATM    8  C16         0      40.319 100.950 -16.135  1.00  0.00     0.093 C 
HETATM    9  C18         0      39.934 102.223 -16.536  1.00  0.00     0.048 C 
HETATM   10  C19         0      40.555 103.347 -16.010  1.00  0.00     0.096 C 
HETATM   11  C21         0      41.544 103.201 -15.075  1.00  0.00     0.084 C 
ENDROOT
BRANCH  10  12
HETATM   12  O20         0      40.487 104.550 -16.705  1.00  0.00    -0.359 OA
HETATM   13  H20         0      39.644 104.818 -17.050  1.00  0.00     0.218 HD
ENDBRANCH  10  12
BRANCH   4  14
HETATM   14  C5          0      44.600 102.385 -12.423  1.00  0.00     0.025 C 
HETATM   15  C6          0      45.536 101.545 -13.008  1.00  0.00     0.004 C 
HETATM   16  C7          0      46.880 101.812 -12.768  1.00  0.00     0.026 C 
HETATM   17  C8          0      47.280 102.796 -11.870  1.00  0.00     0.112 C 
HETATM   18  C10         0      46.336 103.117 -10.905  1.00  0.00     0.112 C 
HETATM   19  C12         0      44.993 102.920 -11.203  1.00  0.00     0.028 C 
BRANCH  17  20
HETATM   20  O9          0      48.440 103.520 -12.083  1.00  0.00    -0.357 OA
HETATM   21  H9          0      48.715 103.839 -12.935  1.00  0.00     0.218 HD
ENDBRANCH  17  20
BRANCH  18  22
HETATM   22  O11         0      46.749 103.951  -9.875  1.00  0.00    -0.357 OA
HETATM   23  H11         0      47.651 104.248  -9.898  1.00  0.00     0.218 HD
ENDBRANCH  18  22
ENDBRANCH   4  14
BRANCH   8  24
HETATM   24  O17         0      40.361  99.876 -17.032  1.00  0.00    -0.359 OA
HETATM   25  H17         0      40.492  98.983 -16.736  1.00  0.00     0.218 HD
ENDBRANCH   8  24
TORSDOF 5
ENDMDL
MODEL 5
REMARK VINA RESULT:      -2.5      2.021      6.821
REMARK  5 active torsions:
REMARK  status: ('A' for Active; 'I' for Inactive)
REMARK    1  A    between atoms: C4_4  and  C5_5 
REMARK    2  A    between atoms: C8_8  and  O9_9 
REMARK    3  A    between atoms: C10_11  and  O11_12 
REMARK    4  A    between atoms: C16_18  and  O17_19 
REMARK    5  A    between atoms: C19_22  and  O20_23 
ROOT
HETATM    1  O1          0      46.456 100.862 -14.557  1.00  0.00    -0.286 OA
HETATM    2  C2          0      45.457 101.347 -13.957  1.00  0.00     0.201 C 
HETATM    3  C3          0      44.210 101.459 -14.546  1.00  0.00     0.067 C 
HETATM    4  C4          0      43.153 102.090 -13.900  1.00  0.00     0.103 C 
HETATM    5  O13         0      43.348 102.572 -12.686  1.00  0.00    -0.307 OA
HETATM    6  C14         0      44.522 102.526 -12.096  1.00  0.00     0.107 C 
HETATM    7  C15         0      44.839 103.357 -11.031  1.00  0.00     0.049 C 
HETATM    8  C16         0      46.147 103.486 -10.580  1.00  0.00     0.093 C 
HETATM    9  C18         0      46.973 102.404 -10.859  1.00  0.00     0.048 C 
HETATM   10  C19         0      46.662 101.525 -11.887  1.00  0.00     0.096 C 
HETATM   11  C21         0      45.523 101.716 -12.622  1.00  0.00     0.084 C 
ENDROOT
BRANCH  10  12
HETATM   12  O20         0      47.668 100.736 -12.437  1.00  0.00    -0.359 OA
HETATM   13  H20         0      48.088 101.041 -13.232  1.00  0.00     0.218 HD
ENDBRANCH  10  12
BRANCH   4  14
HETATM   14  C5          0      42.119 102.695 -14.742  1.00  0.00     0.025 C 
HETATM   15  C6          0      42.153 104.026 -15.134  1.00  0.00     0.004 C 
HETATM   16  C7          0      41.733 104.328 -16.425  1.00  0.00     0.026 C 
HETATM   17  C8          0      41.172 103.363 -17.254  1.00  0.00     0.112 C 
HETATM   18  C10         0      40.612 102.281 -16.588  1.00  0.00     0.112 C 
HETATM   19  C12         0      41.109 101.949 -15.334  1.00  0.00     0.028 C 
BRANCH  17  20
HETATM   20  O9          0      41.364 103.406 -18.624  1.00  0.00    -0.357 OA
HETATM   21  H9          0      40.834 103.927 -19.215  1.00  0.00     0.218 HD
ENDBRANCH  17  20
BRANCH  18  22
HETATM   22  O11         0      39.875 101.386 -17.351  1.00  0.00    -0.357 OA
HETATM   23  H11         0      39.544 100.614 -16.908  1.00  0.00     0.218 HD
ENDBRANCH  18  22
ENDBRANCH   4  14
BRANCH   8  24
HETATM   24  O17         0      46.665 104.726 -10.190  1.00  0.00    -0.359 OA
HETATM   25  H17         0      47.216 105.241 -10.768  1.00  0.00     0.218 HD
ENDBRANCH   8  24
TORSDOF 5
ENDMDL
MODEL 6
REMARK VINA RESULT:      -2.5      2.713      4.573
REMARK  5 active torsions:
REMARK  status: ('A' for Active; 'I' for Inactive)
REMARK    1  A    between atoms: C4_4  and  C5_5 
REMARK    2  A    between atoms: C8_8  and  O9_9 
REMARK    3  A    between atoms: C10_11  and  O11_12 
REMARK    4  A    between atoms: C16_18  and  O17_19 
REMARK    5  A    between atoms: C19_22  and  O20_23 
ROOT
HETATM    1  O1          0      45.481 101.991 -13.214  1.00  0.00    -0.286 OA
HETATM    2  C2          0      44.510 102.613 -13.726  1.00  0.00     0.201 C 
HETATM    3  C3          0      44.499 103.988 -13.882  1.00  0.00     0.067 C 
HETATM    4  C4          0      43.376 104.659 -14.354  1.00  0.00     0.103 C 
HETATM    5  O13         0      42.305 103.955 -14.677  1.00  0.00    -0.307 OA
HETATM    6  C14         0      42.250 102.651 -14.513  1.00  0.00     0.107 C 
HETATM    7  C15         0      41.042 101.971 -14.463  1.00  0.00     0.049 C 
HETATM    8  C16         0      40.975 100.649 -14.039  1.00  0.00     0.093 C 
HETATM    9  C18         0      42.151  99.924 -14.189  1.00  0.00     0.048 C 
HETATM   10  C19         0      43.373 100.575 -14.289  1.00  0.00     0.096 C 
HETATM   11  C21         0      43.419 101.942 -14.256  1.00  0.00     0.084 C 
ENDROOT
BRANCH  10  12
HETATM   12  O20         0      44.541  99.876 -14.001  1.00  0.00    -0.359 OA
HETATM   13  H20         0      45.006 100.094 -13.202  1.00  0.00     0.218 HD
ENDBRANCH  10  12
BRANCH   4  14
HETATM   14  C5          0      43.204 106.052 -13.939  1.00  0.00     0.025 C 
HETATM   15  C6          0      43.592 106.518 -12.691  1.00  0.00     0.004 C 
HETATM   16  C7          0      44.152 107.790 -12.624  1.00  0.00     0.026 C 
HETATM   17  C8          0      44.202 108.625 -13.735  1.00  0.00     0.112 C 
HETATM   18  C10         0      43.259 108.343 -14.714  1.00  0.00     0.112 C 
HETATM   19  C12         0      42.779 107.043 -14.814  1.00  0.00     0.028 C 
BRANCH  17  20
HETATM   20  O9          0      45.251 109.509 -13.910  1.00  0.00    -0.357 OA
HETATM   21  H9          0      45.989 109.346 -14.486  1.00  0.00     0.218 HD
ENDBRANCH  17  20
BRANCH  18  22
HETATM   22  O11         0      43.140 109.256 -15.753  1.00  0.00    -0.357 OA
HETATM   23  H11         0      42.960 110.158 -15.514  1.00  0.00     0.218 HD
ENDBRANCH  18  22
ENDBRANCH   4  14
BRANCH   8  24
HETATM   24  O17         0      39.930 100.197 -13.225  1.00  0.00    -0.359 OA
HETATM   25  H17         0      39.535 100.753 -12.564  1.00  0.00     0.218 HD
ENDBRANCH   8  24
TORSDOF 5
ENDMDL
MODEL 7
REMARK VINA RESULT:      -2.5      3.529      5.145
REMARK  5 active torsions:
REMARK  status: ('A' for Active; 'I' for Inactive)
REMARK    1  A    between atoms: C4_4  and  C5_5 
REMARK    2  A    between atoms: C8_8  and  O9_9 
REMARK    3  A    between atoms: C10_11  and  O11_12 
REMARK    4  A    between atoms: C16_18  and  O17_19 
REMARK    5  A    between atoms: C19_22  and  O20_23 
ROOT
HETATM    1  O1          0      44.635 107.683 -14.905  1.00  0.00    -0.286 OA
HETATM    2  C2          0      44.374 107.211 -13.764  1.00  0.00     0.201 C 
HETATM    3  C3          0      44.865 105.993 -13.326  1.00  0.00     0.067 C 
HETATM    4  C4          0      44.480 105.449 -12.105  1.00  0.00     0.103 C 
HETATM    5  O13         0      43.640 106.128 -11.344  1.00  0.00    -0.307 OA
HETATM    6  C14         0      43.115 107.271 -11.730  1.00  0.00     0.107 C 
HETATM    7  C15         0      41.963 107.779 -11.147  1.00  0.00     0.049 C 
HETATM    8  C16         0      41.274 108.841 -11.719  1.00  0.00     0.093 C 
HETATM    9  C18         0      42.040 109.669 -12.531  1.00  0.00     0.048 C 
HETATM   10  C19         0      43.223 109.208 -13.092  1.00  0.00     0.096 C 
HETATM   11  C21         0      43.647 107.933 -12.830  1.00  0.00     0.084 C 
ENDROOT
BRANCH  10  12
HETATM   12  O20         0      43.740 109.850 -14.213  1.00  0.00    -0.359 OA
HETATM   13  H20         0      44.299 109.349 -14.795  1.00  0.00     0.218 HD
ENDBRANCH  10  12
BRANCH   4  14
HETATM   14  C5          0      44.526 103.991 -11.978  1.00  0.00     0.025 C 
HETATM   15  C6          0      43.947 103.137 -12.905  1.00  0.00     0.004 C 
HETATM   16  C7          0      44.627 101.963 -13.212  1.00  0.00     0.026 C 
HETATM   17  C8          0      45.775 101.584 -12.525  1.00  0.00     0.112 C 
HETATM   18  C10         0      45.900 102.135 -11.257  1.00  0.00     0.112 C 
HETATM   19  C12         0      45.280 103.353 -11.002  1.00  0.00     0.028 C 
BRANCH  17  20
HETATM   20  O9          0      46.787 100.888 -13.163  1.00  0.00    -0.357 OA
HETATM   21  H9          0      47.709 101.096 -13.072  1.00  0.00     0.218 HD
ENDBRANCH  17  20
BRANCH  18  22
HETATM   22  O11         0      46.924 101.646 -10.457  1.00  0.00    -0.357 OA
HETATM   23  H11         0      47.690 101.303 -10.902  1.00  0.00     0.218 HD
ENDBRANCH  18  22
ENDBRANCH   4  14
BRANCH   8  24
HETATM   24  O17         0      39.875 108.872 -11.748  1.00  0.00    -0.359 OA
HETATM   25  H17         0      39.360 108.079 -11.840  1.00  0.00     0.218 HD
ENDBRANCH   8  24
TORSDOF 5
ENDMDL
MODEL 8
REMARK VINA RESULT:      -2.4      3.182      5.567
REMARK  5 active torsions:
REMARK  status: ('A' for Active; 'I' for Inactive)
REMARK    1  A    between atoms: C4_4  and  C5_5 
REMARK    2  A    between atoms: C8_8  and  O9_9 
REMARK    3  A    between atoms: C10_11  and  O11_12 
REMARK    4  A    between atoms: C16_18  and  O17_19 
REMARK    5  A    between atoms: C19_22  and  O20_23 
ROOT
HETATM    1  O1          0      46.207 106.758 -14.659  1.00  0.00    -0.286 OA
HETATM    2  C2          0      45.595 106.194 -13.710  1.00  0.00     0.201 C 
HETATM    3  C3          0      45.687 104.836 -13.460  1.00  0.00     0.067 C 
HETATM    4  C4          0      44.923 104.223 -12.474  1.00  0.00     0.103 C 
HETATM    5  O13         0      44.108 104.968 -11.748  1.00  0.00    -0.307 OA
HETATM    6  C14         0      43.955 106.255 -11.969  1.00  0.00     0.107 C 
HETATM    7  C15         0      42.845 106.949 -11.508  1.00  0.00     0.049 C 
HETATM    8  C16         0      42.561 108.235 -11.954  1.00  0.00     0.093 C 
HETATM    9  C18         0      43.658 108.950 -12.421  1.00  0.00     0.048 C 
HETATM   10  C19         0      44.802 108.289 -12.846  1.00  0.00     0.096 C 
HETATM   11  C21         0      44.857 106.923 -12.790  1.00  0.00     0.084 C 
ENDROOT
BRANCH  10  12
HETATM   12  O20         0      45.691 108.944 -13.693  1.00  0.00    -0.359 OA
HETATM   13  H20         0      45.676 108.717 -14.615  1.00  0.00     0.218 HD
ENDBRANCH  10  12
BRANCH   4  14
HETATM   14  C5          0      44.609 102.804 -12.653  1.00  0.00     0.025 C 
HETATM   15  C6          0      43.328 102.346 -12.922  1.00  0.00     0.004 C 
HETATM   16  C7          0      43.196 101.288 -13.815  1.00  0.00     0.026 C 
HETATM   17  C8          0      44.305 100.618 -14.322  1.00  0.00     0.112 C 
HETATM   18  C10         0      45.448 100.715 -13.539  1.00  0.00     0.112 C 
HETATM   19  C12         0      45.594 101.827 -12.718  1.00  0.00     0.028 C 
BRANCH  17  20
HETATM   20  O9          0      44.292 100.093 -15.602  1.00  0.00    -0.357 OA
HETATM   21  H9          0      43.498  99.872 -16.074  1.00  0.00     0.218 HD
ENDBRANCH  17  20
BRANCH  18  22
HETATM   22  O11         0      46.524  99.915 -13.897  1.00  0.00    -0.357 OA
HETATM   23  H11         0      47.346 100.075 -13.449  1.00  0.00     0.218 HD
ENDBRANCH  18  22
ENDBRANCH   4  14
BRANCH   8  24
HETATM   24  O17         0      41.249 108.639 -12.226  1.00  0.00    -0.359 OA
HETATM   25  H17         0      40.665 108.111 -12.757  1.00  0.00     0.218 HD
ENDBRANCH   8  24
TORSDOF 5
ENDMDL
MODEL 9
REMARK VINA RESULT:      -2.4      3.756      6.102
REMARK  5 active torsions:
REMARK  status: ('A' for Active; 'I' for Inactive)
REMARK    1  A    between atoms: C4_4  and  C5_5 
REMARK    2  A    between atoms: C8_8  and  O9_9 
REMARK    3  A    between atoms: C10_11  and  O11_12 
REMARK    4  A    between atoms: C16_18  and  O17_19 
REMARK    5  A    between atoms: C19_22  and  O20_23 
ROOT
HETATM    1  O1          0      46.179 104.568 -14.715  1.00  0.00    -0.286 OA
HETATM    2  C2          0      45.466 104.592 -13.675  1.00  0.00     0.201 C 
HETATM    3  C3          0      44.701 105.688 -13.315  1.00  0.00     0.067 C 
HETATM    4  C4          0      44.005 105.727 -12.112  1.00  0.00     0.103 C 
HETATM    5  O13         0      44.067 104.680 -11.308  1.00  0.00    -0.307 OA
HETATM    6  C14         0      44.808 103.630 -11.585  1.00  0.00     0.107 C 
HETATM    7  C15         0      45.194 102.729 -10.603  1.00  0.00     0.049 C 
HETATM    8  C16         0      46.176 101.775 -10.844  1.00  0.00     0.093 C 
HETATM    9  C18         0      46.342 101.429 -12.179  1.00  0.00     0.048 C 
HETATM   10  C19         0      45.924 102.286 -13.188  1.00  0.00     0.096 C 
HETATM   11  C21         0      45.329 103.475 -12.865  1.00  0.00     0.084 C 
ENDROOT
BRANCH  10  12
HETATM   12  O20         0      46.468 102.154 -14.462  1.00  0.00    -0.359 OA
HETATM   13  H20         0      46.299 102.844 -15.092  1.00  0.00     0.218 HD
ENDBRANCH  10  12
BRANCH   4  14
HETATM   14  C5          0      43.744 107.046 -11.532  1.00  0.00     0.025 C 
HETATM   15  C6          0      44.750 107.858 -11.026  1.00  0.00     0.004 C 
HETATM   16  C7          0      44.646 109.227 -11.249  1.00  0.00     0.026 C 
HETATM   17  C8          0      43.516 109.787 -11.836  1.00  0.00     0.112 C 
HETATM   18  C10         0      42.363 109.024 -11.717  1.00  0.00     0.112 C 
HETATM   19  C12         0      42.493 107.647 -11.581  1.00  0.00     0.028 C 
BRANCH  17  20
HETATM   20  O9          0      43.618 110.905 -12.644  1.00  0.00    -0.357 OA
HETATM   21  H9          0      43.717 110.867 -13.588  1.00  0.00     0.218 HD
ENDBRANCH  17  20
BRANCH  18  22
HETATM   22  O11         0      41.173 109.617 -12.115  1.00  0.00    -0.357 OA
HETATM   23  H11         0      41.200 110.149 -12.902  1.00  0.00     0.218 HD
ENDBRANCH  18  22
ENDBRANCH   4  14
BRANCH   8  24
HETATM   24  O17         0      47.133 101.453  -9.875  1.00  0.00    -0.359 OA
HETATM   25  H17         0      47.476 102.106  -9.276  1.00  0.00     0.218 HD
ENDBRANCH   8  24
TORSDOF 5
ENDMDL
