MODEL 1
REMARK VINA RESULT:      -5.6      0.000      0.000
REMARK  5 active torsions:
REMARK  status: ('A' for Active; 'I' for Inactive)
REMARK    1  A    between atoms: C4_4  and  C5_5 
REMARK    2  A    between atoms: C8_8  and  O9_9 
REMARK    3  A    between atoms: C10_11  and  O11_12 
REMARK    4  A    between atoms: C16_18  and  O17_19 
REMARK    5  A    between atoms: C19_22  and  O20_23 
ROOT
HETATM    1  O1          0      14.495  90.889 -12.357  1.00  0.00    -0.286 OA
HETATM    2  C2          0      14.345  90.572 -13.569  1.00  0.00     0.201 C 
HETATM    3  C3          0      15.408  90.417 -14.441  1.00  0.00     0.067 C 
HETATM    4  C4          0      15.211  90.169 -15.794  1.00  0.00     0.103 C 
HETATM    5  O13         0      13.973  90.060 -16.246  1.00  0.00    -0.307 OA
HETATM    6  C14         0      12.928  90.236 -15.468  1.00  0.00     0.107 C 
HETATM    7  C15         0      11.672  90.520 -15.985  1.00  0.00     0.049 C 
HETATM    8  C16         0      10.636  90.953 -15.166  1.00  0.00     0.093 C 
HETATM    9  C18         0      10.747  90.581 -13.832  1.00  0.00     0.048 C 
HETATM   10  C19         0      11.982  90.245 -13.294  1.00  0.00     0.096 C 
HETATM   11  C21         0      13.096  90.264 -14.088  1.00  0.00     0.084 C 
ENDROOT
BRANCH  10  12
HETATM   12  O20         0      12.162  90.304 -11.915  1.00  0.00    -0.359 OA
HETATM   13  H20         0      11.513  90.769 -11.401  1.00  0.00     0.218 HD
ENDBRANCH  10  12
BRANCH   4  14
HETATM   14  C5          0      16.261  90.605 -16.716  1.00  0.00     0.025 C 
HETATM   15  C6          0      16.241  91.840 -17.349  1.00  0.00     0.004 C 
HETATM   16  C7          0      17.453  92.506 -17.500  1.00  0.00     0.026 C 
HETATM   17  C8          0      18.661  91.909 -17.157  1.00  0.00     0.112 C 
HETATM   18  C10         0      18.640  90.521 -17.148  1.00  0.00     0.112 C 
HETATM   19  C12         0      17.430  89.881 -16.909  1.00  0.00     0.028 C 
BRANCH  17  20
HETATM   20  O9          0      19.711  92.665 -16.666  1.00  0.00    -0.357 OA
HETATM   21  H9          0      19.758  92.985 -15.772  1.00  0.00     0.218 HD
ENDBRANCH  17  20
BRANCH  18  22
HETATM   22  O11         0      19.859  89.875 -16.998  1.00  0.00    -0.357 OA
HETATM   23  H11         0      20.182  89.387 -17.747  1.00  0.00     0.218 HD
ENDBRANCH  18  22
ENDBRANCH   4  14
BRANCH   8  24
HETATM   24  O17         0       9.750  91.954 -15.579  1.00  0.00    -0.359 OA
HETATM   25  H17         0       8.841  91.764 -15.782  1.00  0.00     0.218 HD
ENDBRANCH   8  24
TORSDOF 5
ENDMDL
MODEL 2
REMARK VINA RESULT:      -5.5      2.141      3.284
REMARK  5 active torsions:
REMARK  status: ('A' for Active; 'I' for Inactive)
REMARK    1  A    between atoms: C4_4  and  C5_5 
REMARK    2  A    between atoms: C8_8  and  O9_9 
REMARK    3  A    between atoms: C10_11  and  O11_12 
REMARK    4  A    between atoms: C16_18  and  O17_19 
REMARK    5  A    between atoms: C19_22  and  O20_23 
ROOT
HETATM    1  O1          0      10.150  89.996 -15.106  1.00  0.00    -0.286 OA
HETATM    2  C2          0      11.091  90.827 -14.987  1.00  0.00     0.201 C 
HETATM    3  C3          0      12.233  90.784 -15.769  1.00  0.00     0.067 C 
HETATM    4  C4          0      13.300  91.648 -15.549  1.00  0.00     0.103 C 
HETATM    5  O13         0      13.204  92.541 -14.579  1.00  0.00    -0.307 OA
HETATM    6  C14         0      12.159  92.599 -13.784  1.00  0.00     0.107 C 
HETATM    7  C15         0      12.213  93.234 -12.551  1.00  0.00     0.049 C 
HETATM    8  C16         0      11.199  93.076 -11.613  1.00  0.00     0.093 C 
HETATM    9  C18         0       9.961  92.731 -12.140  1.00  0.00     0.048 C 
HETATM   10  C19         0       9.867  92.137 -13.391  1.00  0.00     0.096 C 
HETATM   11  C21         0      11.001  91.905 -14.119  1.00  0.00     0.084 C 
ENDROOT
BRANCH  10  12
HETATM   12  O20         0       8.723  91.415 -13.717  1.00  0.00    -0.359 OA
HETATM   13  H20         0       8.567  90.597 -13.259  1.00  0.00     0.218 HD
ENDBRANCH  10  12
BRANCH   4  14
HETATM   14  C5          0      14.629  91.187 -15.953  1.00  0.00     0.025 C 
HETATM   15  C6          0      15.286  91.676 -17.073  1.00  0.00     0.004 C 
HETATM   16  C7          0      16.662  91.866 -16.981  1.00  0.00     0.026 C 
HETATM   17  C8          0      17.382  91.459 -15.864  1.00  0.00     0.112 C 
HETATM   18  C10         0      16.779  90.451 -15.122  1.00  0.00     0.112 C 
HETATM   19  C12         0      15.395  90.338 -15.164  1.00  0.00     0.028 C 
BRANCH  17  20
HETATM   20  O9          0      18.493  92.166 -15.439  1.00  0.00    -0.357 OA
HETATM   21  H9          0      19.318  91.759 -15.201  1.00  0.00     0.218 HD
ENDBRANCH  17  20
BRANCH  18  22
HETATM   22  O11         0      17.536  89.878 -14.110  1.00  0.00    -0.357 OA
HETATM   23  H11         0      17.535  90.320 -13.269  1.00  0.00     0.218 HD
ENDBRANCH  18  22
ENDBRANCH   4  14
BRANCH   8  24
HETATM   24  O17         0      11.483  92.941 -10.249  1.00  0.00    -0.359 OA
HETATM   25  H17         0      12.151  93.465  -9.824  1.00  0.00     0.218 HD
ENDBRANCH   8  24
TORSDOF 5
ENDMDL
MODEL 3
REMARK VINA RESULT:      -5.4      1.743      6.894
REMARK  5 active torsions:
REMARK  status: ('A' for Active; 'I' for Inactive)
REMARK    1  A    between atoms: C4_4  and  C5_5 
REMARK    2  A    between atoms: C8_8  and  O9_9 
REMARK    3  A    between atoms: C10_11  and  O11_12 
REMARK    4  A    between atoms: C16_18  and  O17_19 
REMARK    5  A    between atoms: C19_22  and  O20_23 
ROOT
HETATM    1  O1          0      14.158  92.970 -17.918  1.00  0.00    -0.286 OA
HETATM    2  C2          0      14.341  92.017 -17.112  1.00  0.00     0.201 C 
HETATM    3  C3          0      13.307  91.409 -16.421  1.00  0.00     0.067 C 
HETATM    4  C4          0      13.547  90.431 -15.462  1.00  0.00     0.103 C 
HETATM    5  O13         0      14.795  90.065 -15.228  1.00  0.00    -0.307 OA
HETATM    6  C14         0      15.815  90.636 -15.829  1.00  0.00     0.107 C 
HETATM    7  C15         0      17.103  90.554 -15.319  1.00  0.00     0.049 C 
HETATM    8  C16         0      18.125  91.360 -15.806  1.00  0.00     0.093 C 
HETATM    9  C18         0      17.942  91.817 -17.106  1.00  0.00     0.048 C 
HETATM   10  C19         0      16.672  91.867 -17.665  1.00  0.00     0.096 C 
HETATM   11  C21         0      15.593  91.448 -16.936  1.00  0.00     0.084 C 
ENDROOT
BRANCH  10  12
HETATM   12  O20         0      16.440  92.704 -18.752  1.00  0.00    -0.359 OA
HETATM   13  H20         0      16.839  92.474 -19.583  1.00  0.00     0.218 HD
ENDBRANCH  10  12
BRANCH   4  14
HETATM   14  C5          0      12.556  90.282 -14.395  1.00  0.00     0.025 C 
HETATM   15  C6          0      12.902  90.192 -13.055  1.00  0.00     0.004 C 
HETATM   16  C7          0      12.080  90.832 -12.132  1.00  0.00     0.026 C 
HETATM   17  C8          0      10.881  91.426 -12.513  1.00  0.00     0.112 C 
HETATM   18  C10         0      10.334  90.927 -13.687  1.00  0.00     0.112 C 
HETATM   19  C12         0      11.190  90.369 -14.630  1.00  0.00     0.028 C 
BRANCH  17  20
HETATM   20  O9          0      10.415  92.558 -11.869  1.00  0.00    -0.357 OA
HETATM   21  H9          0       9.644  92.570 -11.314  1.00  0.00     0.218 HD
ENDBRANCH  17  20
BRANCH  18  22
HETATM   22  O11         0       9.052  91.347 -14.012  1.00  0.00    -0.357 OA
HETATM   23  H11         0       8.457  91.511 -13.289  1.00  0.00     0.218 HD
ENDBRANCH  18  22
ENDBRANCH   4  14
BRANCH   8  24
HETATM   24  O17         0      19.073  91.933 -14.952  1.00  0.00    -0.359 OA
HETATM   25  H17         0      18.846  92.634 -14.352  1.00  0.00     0.218 HD
ENDBRANCH   8  24
TORSDOF 5
ENDMDL
MODEL 4
REMARK VINA RESULT:      -5.0      3.066      7.855
REMARK  5 active torsions:
REMARK  status: ('A' for Active; 'I' for Inactive)
REMARK    1  A    between atoms: C4_4  and  C5_5 
REMARK    2  A    between atoms: C8_8  and  O9_9 
REMARK    3  A    between atoms: C10_11  and  O11_12 
REMARK    4  A    between atoms: C16_18  and  O17_19 
REMARK    5  A    between atoms: C19_22  and  O20_23 
ROOT
HETATM    1  O1          0      10.351  91.119 -16.326  1.00  0.00    -0.286 OA
HETATM    2  C2          0      10.798  91.059 -15.148  1.00  0.00     0.201 C 
HETATM    3  C3          0      10.032  91.373 -14.038  1.00  0.00     0.067 C 
HETATM    4  C4          0      10.578  91.399 -12.760  1.00  0.00     0.103 C 
HETATM    5  O13         0      11.855  91.095 -12.608  1.00  0.00    -0.307 OA
HETATM    6  C14         0      12.635  90.826 -13.632  1.00  0.00     0.107 C 
HETATM    7  C15         0      14.017  90.902 -13.537  1.00  0.00     0.049 C 
HETATM    8  C16         0      14.821  90.869 -14.670  1.00  0.00     0.093 C 
HETATM    9  C18         0      14.255  90.243 -15.774  1.00  0.00     0.048 C 
HETATM   10  C19         0      12.877  90.108 -15.879  1.00  0.00     0.096 C 
HETATM   11  C21         0      12.071  90.580 -14.879  1.00  0.00     0.084 C 
ENDROOT
BRANCH  10  12
HETATM   12  O20         0      12.308  89.894 -17.130  1.00  0.00    -0.359 OA
HETATM   13  H20         0      11.387  89.667 -17.167  1.00  0.00     0.218 HD
ENDBRANCH  10  12
BRANCH   4  14
HETATM   14  C5          0       9.941  92.278 -11.777  1.00  0.00     0.025 C 
HETATM   15  C6          0      10.656  93.174 -10.996  1.00  0.00     0.004 C 
HETATM   16  C7          0      10.079  94.415 -10.746  1.00  0.00     0.026 C 
HETATM   17  C8          0       8.779  94.708 -11.145  1.00  0.00     0.112 C 
HETATM   18  C10         0       7.965  93.599 -11.328  1.00  0.00     0.112 C 
HETATM   19  C12         0       8.562  92.389 -11.660  1.00  0.00     0.028 C 
BRANCH  17  20
HETATM   20  O9          0       8.427  95.991 -11.525  1.00  0.00    -0.357 OA
HETATM   21  H9          0       9.041  96.625 -11.877  1.00  0.00     0.218 HD
ENDBRANCH  17  20
BRANCH  18  22
HETATM   22  O11         0       6.614  93.839 -11.540  1.00  0.00    -0.357 OA
HETATM   23  H11         0       6.209  94.515 -11.010  1.00  0.00     0.218 HD
ENDBRANCH  18  22
ENDBRANCH   4  14
BRANCH   8  24
HETATM   24  O17         0      15.950  91.689 -14.788  1.00  0.00    -0.359 OA
HETATM   25  H17         0      15.909  92.622 -14.613  1.00  0.00     0.218 HD
ENDBRANCH   8  24
TORSDOF 5
ENDMDL
MODEL 5
REMARK VINA RESULT:      -4.8      4.128      8.925
REMARK  5 active torsions:
REMARK  status: ('A' for Active; 'I' for Inactive)
REMARK    1  A    between atoms: C4_4  and  C5_5 
REMARK    2  A    between atoms: C8_8  and  O9_9 
REMARK    3  A    between atoms: C10_11  and  O11_12 
REMARK    4  A    between atoms: C16_18  and  O17_19 
REMARK    5  A    between atoms: C19_22  and  O20_23 
ROOT
HETATM    1  O1          0       9.596  91.653 -15.449  1.00  0.00    -0.286 OA
HETATM    2  C2          0       9.691  91.686 -14.192  1.00  0.00     0.201 C 
HETATM    3  C3          0       8.770  92.333 -13.386  1.00  0.00     0.067 C 
HETATM    4  C4          0       8.953  92.442 -12.012  1.00  0.00     0.103 C 
HETATM    5  O13         0      10.025  91.894 -11.469  1.00  0.00    -0.307 OA
HETATM    6  C14         0      10.949  91.300 -12.193  1.00  0.00     0.107 C 
HETATM    7  C15         0      12.231  91.086 -11.708  1.00  0.00     0.049 C 
HETATM    8  C16         0      13.266  90.696 -12.550  1.00  0.00     0.093 C 
HETATM    9  C18         0      12.865  90.041 -13.708  1.00  0.00     0.048 C 
HETATM   10  C19         0      11.574  90.197 -14.196  1.00  0.00     0.096 C 
HETATM   11  C21         0      10.685  90.988 -13.522  1.00  0.00     0.084 C 
ENDROOT
BRANCH  10  12
HETATM   12  O20         0      11.314  89.916 -15.533  1.00  0.00    -0.359 OA
HETATM   13  H20         0      12.032  89.989 -16.151  1.00  0.00     0.218 HD
ENDBRANCH  10  12
BRANCH   4  14
HETATM   14  C5          0       8.330  93.585 -11.342  1.00  0.00     0.025 C 
HETATM   15  C6          0       9.062  94.645 -10.827  1.00  0.00     0.004 C 
HETATM   16  C7          0       8.528  95.923 -10.961  1.00  0.00     0.026 C 
HETATM   17  C8          0       7.249  96.129 -11.467  1.00  0.00     0.112 C 
HETATM   18  C10         0       6.396  95.040 -11.351  1.00  0.00     0.112 C 
HETATM   19  C12         0       6.954  93.767 -11.306  1.00  0.00     0.028 C 
BRANCH  17  20
HETATM   20  O9          0       6.954  97.260 -12.208  1.00  0.00    -0.357 OA
HETATM   21  H9          0       6.624  97.236 -13.099  1.00  0.00     0.218 HD
ENDBRANCH  17  20
BRANCH  18  22
HETATM   22  O11         0       5.061  95.250 -11.666  1.00  0.00    -0.357 OA
HETATM   23  H11         0       4.860  96.012 -12.197  1.00  0.00     0.218 HD
ENDBRANCH  18  22
ENDBRANCH   4  14
BRANCH   8  24
HETATM   24  O17         0      14.557  91.219 -12.409  1.00  0.00    -0.359 OA
HETATM   25  H17         0      15.133  90.942 -11.707  1.00  0.00     0.218 HD
ENDBRANCH   8  24
TORSDOF 5
ENDMDL
MODEL 6
REMARK VINA RESULT:      -4.6      2.948      4.180
REMARK  5 active torsions:
REMARK  status: ('A' for Active; 'I' for Inactive)
REMARK    1  A    between atoms: C4_4  and  C5_5 
REMARK    2  A    between atoms: C8_8  and  O9_9 
REMARK    3  A    between atoms: C10_11  and  O11_12 
REMARK    4  A    between atoms: C16_18  and  O17_19 
REMARK    5  A    between atoms: C19_22  and  O20_23 
ROOT
HETATM    1  O1          0      12.734  94.935 -12.332  1.00  0.00    -0.286 OA
HETATM    2  C2          0      12.494  93.698 -12.278  1.00  0.00     0.201 C 
HETATM    3  C3          0      13.412  92.738 -12.667  1.00  0.00     0.067 C 
HETATM    4  C4          0      13.085  91.386 -12.695  1.00  0.00     0.103 C 
HETATM    5  O13         0      11.873  91.019 -12.319  1.00  0.00    -0.307 OA
HETATM    6  C14         0      10.952  91.892 -11.976  1.00  0.00     0.107 C 
HETATM    7  C15         0       9.603  91.569 -11.972  1.00  0.00     0.049 C 
HETATM    8  C16         0       8.626  92.550 -11.860  1.00  0.00     0.093 C 
HETATM    9  C18         0       9.040  93.722 -11.238  1.00  0.00     0.048 C 
HETATM   10  C19         0      10.387  94.054 -11.184  1.00  0.00     0.096 C 
HETATM   11  C21         0      11.316  93.212 -11.731  1.00  0.00     0.084 C 
ENDROOT
BRANCH  10  12
HETATM   12  O20         0      10.753  95.379 -10.970  1.00  0.00    -0.359 OA
HETATM   13  H20         0      10.069  96.038 -10.984  1.00  0.00     0.218 HD
ENDBRANCH  10  12
BRANCH   4  14
HETATM   14  C5          0      13.818  90.539 -13.638  1.00  0.00     0.025 C 
HETATM   15  C6          0      13.337  90.230 -14.901  1.00  0.00     0.004 C 
HETATM   16  C7          0      14.255  90.174 -15.945  1.00  0.00     0.026 C 
HETATM   17  C8          0      15.623  90.290 -15.720  1.00  0.00     0.112 C 
HETATM   18  C10         0      16.029  89.961 -14.434  1.00  0.00     0.112 C 
HETATM   19  C12         0      15.116  90.107 -13.396  1.00  0.00     0.028 C 
BRANCH  17  20
HETATM   20  O9          0      16.447  90.889 -16.656  1.00  0.00    -0.357 OA
HETATM   21  H9          0      16.172  91.600 -17.224  1.00  0.00     0.218 HD
ENDBRANCH  17  20
BRANCH  18  22
HETATM   22  O11         0      17.395  89.877 -14.208  1.00  0.00    -0.357 OA
HETATM   23  H11         0      17.701  89.142 -13.688  1.00  0.00     0.218 HD
ENDBRANCH  18  22
ENDBRANCH   4  14
BRANCH   8  24
HETATM   24  O17         0       7.444  92.491 -12.606  1.00  0.00    -0.359 OA
HETATM   25  H17         0       7.065  91.663 -12.876  1.00  0.00     0.218 HD
ENDBRANCH   8  24
TORSDOF 5
ENDMDL
MODEL 7
REMARK VINA RESULT:      -4.6      3.492      8.308
REMARK  5 active torsions:
REMARK  status: ('A' for Active; 'I' for Inactive)
REMARK    1  A    between atoms: C4_4  and  C5_5 
REMARK    2  A    between atoms: C8_8  and  O9_9 
REMARK    3  A    between atoms: C10_11  and  O11_12 
REMARK    4  A    between atoms: C16_18  and  O17_19 
REMARK    5  A    between atoms: C19_22  and  O20_23 
ROOT
HETATM    1  O1          0      11.883  92.782 -16.709  1.00  0.00    -0.286 OA
HETATM    2  C2          0      11.355  92.389 -15.633  1.00  0.00     0.201 C 
HETATM    3  C3          0      10.150  92.883 -15.164  1.00  0.00     0.067 C 
HETATM    4  C4          0       9.641  92.509 -13.925  1.00  0.00     0.103 C 
HETATM    5  O13         0      10.323  91.645 -13.194  1.00  0.00    -0.307 OA
HETATM    6  C14         0      11.491  91.175 -13.575  1.00  0.00     0.107 C 
HETATM    7  C15         0      12.379  90.606 -12.674  1.00  0.00     0.049 C 
HETATM    8  C16         0      13.698  90.347 -13.027  1.00  0.00     0.093 C 
HETATM    9  C18         0      13.919  90.178 -14.388  1.00  0.00     0.048 C 
HETATM   10  C19         0      13.025  90.694 -15.317  1.00  0.00     0.096 C 
HETATM   11  C21         0      11.909  91.359 -14.889  1.00  0.00     0.084 C 
ENDROOT
BRANCH  10  12
HETATM   12  O20         0      13.451  90.908 -16.624  1.00  0.00    -0.359 OA
HETATM   13  H20         0      14.089  90.307 -16.989  1.00  0.00     0.218 HD
ENDBRANCH  10  12
BRANCH   4  14
HETATM   14  C5          0       8.755  93.459 -13.251  1.00  0.00     0.025 C 
HETATM   15  C6          0       7.408  93.581 -13.560  1.00  0.00     0.004 C 
HETATM   16  C7          0       6.523  93.803 -12.510  1.00  0.00     0.026 C 
HETATM   17  C8          0       6.972  94.029 -11.213  1.00  0.00     0.112 C 
HETATM   18  C10         0       8.272  94.509 -11.125  1.00  0.00     0.112 C 
HETATM   19  C12         0       9.160  94.201 -12.149  1.00  0.00     0.028 C 
BRANCH  17  20
HETATM   20  O9          0       6.236  93.600 -10.123  1.00  0.00    -0.357 OA
HETATM   21  H9          0       6.183  92.692  -9.847  1.00  0.00     0.218 HD
ENDBRANCH  17  20
BRANCH  18  22
HETATM   22  O11         0       8.703  94.930  -9.875  1.00  0.00    -0.357 OA
HETATM   23  H11         0       9.635  95.083  -9.771  1.00  0.00     0.218 HD
ENDBRANCH  18  22
ENDBRANCH   4  14
BRANCH   8  24
HETATM   24  O17         0      14.750  90.575 -12.133  1.00  0.00    -0.359 OA
HETATM   25  H17         0      14.594  90.767 -11.216  1.00  0.00     0.218 HD
ENDBRANCH   8  24
TORSDOF 5
ENDMDL
MODEL 8
REMARK VINA RESULT:      -4.5      2.835      5.201
REMARK  5 active torsions:
REMARK  status: ('A' for Active; 'I' for Inactive)
REMARK    1  A    between atoms: C4_4  and  C5_5 
REMARK    2  A    between atoms: C8_8  and  O9_9 
REMARK    3  A    between atoms: C10_11  and  O11_12 
REMARK    4  A    between atoms: C16_18  and  O17_19 
REMARK    5  A    between atoms: C19_22  and  O20_23 
ROOT
HETATM    1  O1          0       8.877  92.681 -11.537  1.00  0.00    -0.286 OA
HETATM    2  C2          0       9.215  92.275 -12.683  1.00  0.00     0.201 C 
HETATM    3  C3          0      10.149  91.272 -12.879  1.00  0.00     0.067 C 
HETATM    4  C4          0      10.578  90.915 -14.152  1.00  0.00     0.103 C 
HETATM    5  O13         0      10.061  91.540 -15.195  1.00  0.00    -0.307 OA
HETATM    6  C14         0       9.200  92.525 -15.063  1.00  0.00     0.107 C 
HETATM    7  C15         0       8.964  93.432 -16.086  1.00  0.00     0.049 C 
HETATM    8  C16         0       8.256  94.606 -15.861  1.00  0.00     0.093 C 
HETATM    9  C18         0       7.382  94.567 -14.781  1.00  0.00     0.048 C 
HETATM   10  C19         0       7.561  93.641 -13.762  1.00  0.00     0.096 C 
HETATM   11  C21         0       8.596  92.748 -13.830  1.00  0.00     0.084 C 
ENDROOT
BRANCH  10  12
HETATM   12  O20         0       6.985  93.878 -12.518  1.00  0.00    -0.359 OA
HETATM   13  H20         0       6.921  94.778 -12.221  1.00  0.00     0.218 HD
ENDBRANCH  10  12
BRANCH   4  14
HETATM   14  C5          0      11.918  90.338 -14.269  1.00  0.00     0.025 C 
HETATM   15  C6          0      12.513  90.060 -15.491  1.00  0.00     0.004 C 
HETATM   16  C7          0      13.878  90.302 -15.613  1.00  0.00     0.026 C 
HETATM   17  C8          0      14.653  90.679 -14.522  1.00  0.00     0.112 C 
HETATM   18  C10         0      14.130  90.317 -13.287  1.00  0.00     0.112 C 
HETATM   19  C12         0      12.753  90.165 -13.172  1.00  0.00     0.028 C 
BRANCH  17  20
HETATM   20  O9          0      15.735  91.527 -14.679  1.00  0.00    -0.357 OA
HETATM   21  H9          0      15.700  92.343 -15.164  1.00  0.00     0.218 HD
ENDBRANCH  17  20
BRANCH  18  22
HETATM   22  O11         0      14.947  90.499 -12.181  1.00  0.00    -0.357 OA
HETATM   23  H11         0      15.885  90.440 -12.324  1.00  0.00     0.218 HD
ENDBRANCH  18  22
ENDBRANCH   4  14
BRANCH   8  24
HETATM   24  O17         0       8.640  95.815 -16.452  1.00  0.00    -0.359 OA
HETATM   25  H17         0       8.362  96.652 -16.102  1.00  0.00     0.218 HD
ENDBRANCH   8  24
TORSDOF 5
ENDMDL
MODEL 9
REMARK VINA RESULT:      -4.4      2.521      7.251
REMARK  5 active torsions:
REMARK  status: ('A' for Active; 'I' for Inactive)
REMARK    1  A    between atoms: C4_4  and  C5_5 
REMARK    2  A    between atoms: C8_8  and  O9_9 
REMARK    3  A    between atoms: C10_11  and  O11_12 
REMARK    4  A    between atoms: C16_18  and  O17_19 
REMARK    5  A    between atoms: C19_22  and  O20_23 
ROOT
HETATM    1  O1          0      16.626  93.377 -18.980  1.00  0.00    -0.286 OA
HETATM    2  C2          0      16.784  93.002 -17.786  1.00  0.00     0.201 C 
HETATM    3  C3          0      15.816  92.307 -17.082  1.00  0.00     0.067 C 
HETATM    4  C4          0      15.975  91.996 -15.737  1.00  0.00     0.103 C 
HETATM    5  O13         0      17.090  92.361 -15.128  1.00  0.00    -0.307 OA
HETATM    6  C14         0      18.025  93.055 -15.739  1.00  0.00     0.107 C 
HETATM    7  C15         0      18.981  93.772 -15.035  1.00  0.00     0.049 C 
HETATM    8  C16         0      19.800  94.699 -15.668  1.00  0.00     0.093 C 
HETATM    9  C18         0      19.984  94.486 -17.029  1.00  0.00     0.048 C 
HETATM   10  C19         0      19.071  93.734 -17.756  1.00  0.00     0.096 C 
HETATM   11  C21         0      17.989  93.184 -17.124  1.00  0.00     0.084 C 
ENDROOT
BRANCH  10  12
HETATM   12  O20         0      19.012  93.884 -19.138  1.00  0.00    -0.359 OA
HETATM   13  H20         0      18.259  94.330 -19.505  1.00  0.00     0.218 HD
ENDBRANCH  10  12
BRANCH   4  14
HETATM   14  C5          0      14.758  91.832 -14.939  1.00  0.00     0.025 C 
HETATM   15  C6          0      13.952  90.706 -15.020  1.00  0.00     0.004 C 
HETATM   16  C7          0      13.389  90.230 -13.840  1.00  0.00     0.026 C 
HETATM   17  C8          0      13.512  90.924 -12.641  1.00  0.00     0.112 C 
HETATM   18  C10         0      13.761  92.283 -12.781  1.00  0.00     0.112 C 
HETATM   19  C12         0      14.402  92.722 -13.933  1.00  0.00     0.028 C 
BRANCH  17  20
HETATM   20  O9          0      13.588  90.249 -11.436  1.00  0.00    -0.357 OA
HETATM   21  H9          0      14.148  89.495 -11.287  1.00  0.00     0.218 HD
ENDBRANCH  17  20
BRANCH  18  22
HETATM   22  O11         0      13.705  93.054 -11.628  1.00  0.00    -0.357 OA
HETATM   23  H11         0      14.524  93.198 -11.167  1.00  0.00     0.218 HD
ENDBRANCH  18  22
ENDBRANCH   4  14
BRANCH   8  24
HETATM   24  O17         0      20.125  95.918 -15.064  1.00  0.00    -0.359 OA
HETATM   25  H17         0      21.027  96.186 -14.934  1.00  0.00     0.218 HD
ENDBRANCH   8  24
TORSDOF 5
ENDMDL
