MODEL 1
REMARK VINA RESULT:      -6.2      0.000      0.000
REMARK  5 active torsions:
REMARK  status: ('A' for Active; 'I' for Inactive)
REMARK    1  A    between atoms: C4_4  and  C5_5 
REMARK    2  A    between atoms: C8_8  and  O9_9 
REMARK    3  A    between atoms: C10_11  and  O11_12 
REMARK    4  A    between atoms: C16_18  and  O17_19 
REMARK    5  A    between atoms: C19_22  and  O20_23 
ROOT
HETATM    1  O1          0      27.286  36.892  23.288  1.00  0.00    -0.286 OA
HETATM    2  C2          0      28.051  37.805  23.704  1.00  0.00     0.201 C 
HETATM    3  C3          0      29.284  38.068  23.133  1.00  0.00     0.067 C 
HETATM    4  C4          0      30.151  39.011  23.674  1.00  0.00     0.103 C 
HETATM    5  O13         0      29.770  39.681  24.748  1.00  0.00    -0.307 OA
HETATM    6  C14         0      28.626  39.444  25.350  1.00  0.00     0.107 C 
HETATM    7  C15         0      28.396  39.834  26.662  1.00  0.00     0.049 C 
HETATM    8  C16         0      27.298  39.364  27.373  1.00  0.00     0.093 C 
HETATM    9  C18         0      26.222  38.960  26.591  1.00  0.00     0.048 C 
HETATM   10  C19         0      26.409  38.608  25.261  1.00  0.00     0.096 C 
HETATM   11  C21         0      27.660  38.676  24.710  1.00  0.00     0.084 C 
ENDROOT
BRANCH  10  12
HETATM   12  O20         0      25.459  37.813  24.628  1.00  0.00    -0.359 OA
HETATM   13  H20         0      25.644  36.885  24.538  1.00  0.00     0.218 HD
ENDBRANCH  10  12
BRANCH   4  14
HETATM   14  C5          0      31.583  38.821  23.433  1.00  0.00     0.025 C 
HETATM   15  C6          0      32.132  37.592  23.100  1.00  0.00     0.004 C 
HETATM   16  C7          0      33.163  37.579  22.166  1.00  0.00     0.026 C 
HETATM   17  C8          0      33.722  38.756  21.680  1.00  0.00     0.112 C 
HETATM   18  C10         0      33.563  39.858  22.509  1.00  0.00     0.112 C 
HETATM   19  C12         0      32.475  39.884  23.373  1.00  0.00     0.028 C 
BRANCH  17  20
HETATM   20  O9          0      34.198  38.832  20.383  1.00  0.00    -0.357 OA
HETATM   21  H9          0      34.254  39.641  19.887  1.00  0.00     0.218 HD
ENDBRANCH  17  20
BRANCH  18  22
HETATM   22  O11         0      34.260  41.008  22.165  1.00  0.00    -0.357 OA
HETATM   23  H11         0      34.830  40.955  21.407  1.00  0.00     0.218 HD
ENDBRANCH  18  22
ENDBRANCH   4  14
BRANCH   8  24
HETATM   24  O17         0      27.400  39.011  28.723  1.00  0.00    -0.359 OA
HETATM   25  H17         0      27.262  39.646  29.416  1.00  0.00     0.218 HD
ENDBRANCH   8  24
TORSDOF 5
ENDMDL
MODEL 2
REMARK VINA RESULT:      -6.2      5.775      8.091
REMARK  5 active torsions:
REMARK  status: ('A' for Active; 'I' for Inactive)
REMARK    1  A    between atoms: C4_4  and  C5_5 
REMARK    2  A    between atoms: C8_8  and  O9_9 
REMARK    3  A    between atoms: C10_11  and  O11_12 
REMARK    4  A    between atoms: C16_18  and  O17_19 
REMARK    5  A    between atoms: C19_22  and  O20_23 
ROOT
HETATM    1  O1          0      22.978  34.778  28.563  1.00  0.00    -0.286 OA
HETATM    2  C2          0      23.918  34.574  27.746  1.00  0.00     0.201 C 
HETATM    3  C3          0      24.258  33.311  27.294  1.00  0.00     0.067 C 
HETATM    4  C4          0      25.363  33.103  26.475  1.00  0.00     0.103 C 
HETATM    5  O13         0      26.087  34.146  26.110  1.00  0.00    -0.307 OA
HETATM    6  C14         0      25.830  35.361  26.541  1.00  0.00     0.107 C 
HETATM    7  C15         0      26.784  36.368  26.499  1.00  0.00     0.049 C 
HETATM    8  C16         0      26.599  37.566  27.180  1.00  0.00     0.093 C 
HETATM    9  C18         0      25.274  37.902  27.427  1.00  0.00     0.048 C 
HETATM   10  C19         0      24.287  36.926  27.430  1.00  0.00     0.096 C 
HETATM   11  C21         0      24.619  35.624  27.171  1.00  0.00     0.084 C 
ENDROOT
BRANCH  10  12
HETATM   12  O20         0      23.086  37.174  28.088  1.00  0.00    -0.359 OA
HETATM   13  H20         0      22.940  38.047  28.433  1.00  0.00     0.218 HD
ENDBRANCH  10  12
BRANCH   4  14
HETATM   14  C5          0      26.001  31.787  26.534  1.00  0.00     0.025 C 
HETATM   15  C6          0      26.284  31.037  25.401  1.00  0.00     0.004 C 
HETATM   16  C7          0      27.476  30.320  25.383  1.00  0.00     0.026 C 
HETATM   17  C8          0      28.297  30.242  26.503  1.00  0.00     0.112 C 
HETATM   18  C10         0      27.651  30.466  27.712  1.00  0.00     0.112 C 
HETATM   19  C12         0      26.508  31.257  27.713  1.00  0.00     0.028 C 
BRANCH  17  20
HETATM   20  O9          0      29.671  30.159  26.370  1.00  0.00    -0.357 OA
HETATM   21  H9          0      30.114  30.029  25.540  1.00  0.00     0.218 HD
ENDBRANCH  17  20
BRANCH  18  22
HETATM   22  O11         0      28.376  30.215  28.868  1.00  0.00    -0.357 OA
HETATM   23  H11         0      28.635  29.314  29.026  1.00  0.00     0.218 HD
ENDBRANCH  18  22
ENDBRANCH   4  14
BRANCH   8  24
HETATM   24  O17         0      27.655  38.193  27.851  1.00  0.00    -0.359 OA
HETATM   25  H17         0      28.380  38.587  27.381  1.00  0.00     0.218 HD
ENDBRANCH   8  24
TORSDOF 5
ENDMDL
MODEL 3
REMARK VINA RESULT:      -6.1      4.846      7.660
REMARK  5 active torsions:
REMARK  status: ('A' for Active; 'I' for Inactive)
REMARK    1  A    between atoms: C4_4  and  C5_5 
REMARK    2  A    between atoms: C8_8  and  O9_9 
REMARK    3  A    between atoms: C10_11  and  O11_12 
REMARK    4  A    between atoms: C16_18  and  O17_19 
REMARK    5  A    between atoms: C19_22  and  O20_23 
ROOT
HETATM    1  O1          0      27.015  37.040  27.461  1.00  0.00    -0.286 OA
HETATM    2  C2          0      26.702  36.311  26.480  1.00  0.00     0.201 C 
HETATM    3  C3          0      26.221  35.021  26.627  1.00  0.00     0.067 C 
HETATM    4  C4          0      25.981  34.203  25.529  1.00  0.00     0.103 C 
HETATM    5  O13         0      26.202  34.685  24.319  1.00  0.00    -0.307 OA
HETATM    6  C14         0      26.695  35.889  24.125  1.00  0.00     0.107 C 
HETATM    7  C15         0      27.295  36.249  22.927  1.00  0.00     0.049 C 
HETATM    8  C16         0      28.034  37.420  22.813  1.00  0.00     0.093 C 
HETATM    9  C18         0      27.702  38.414  23.726  1.00  0.00     0.048 C 
HETATM   10  C19         0      27.058  38.095  24.914  1.00  0.00     0.096 C 
HETATM   11  C21         0      26.733  36.793  25.181  1.00  0.00     0.084 C 
ENDROOT
BRANCH  10  12
HETATM   12  O20         0      27.122  38.983  25.982  1.00  0.00    -0.359 OA
HETATM   13  H20         0      27.205  39.909  25.787  1.00  0.00     0.218 HD
ENDBRANCH  10  12
BRANCH   4  14
HETATM   14  C5          0      26.069  32.757  25.739  1.00  0.00     0.025 C 
HETATM   15  C6          0      26.120  31.847  24.693  1.00  0.00     0.004 C 
HETATM   16  C7          0      26.951  30.741  24.841  1.00  0.00     0.026 C 
HETATM   17  C8          0      27.605  30.476  26.039  1.00  0.00     0.112 C 
HETATM   18  C10         0      27.015  31.043  27.161  1.00  0.00     0.112 C 
HETATM   19  C12         0      26.259  32.197  26.996  1.00  0.00     0.028 C 
BRANCH  17  20
HETATM   20  O9          0      28.852  29.875  26.048  1.00  0.00    -0.357 OA
HETATM   21  H9          0      29.010  28.983  25.762  1.00  0.00     0.218 HD
ENDBRANCH  17  20
BRANCH  18  22
HETATM   22  O11         0      27.513  30.657  28.397  1.00  0.00    -0.357 OA
HETATM   23  H11         0      28.457  30.573  28.473  1.00  0.00     0.218 HD
ENDBRANCH  18  22
ENDBRANCH   4  14
BRANCH   8  24
HETATM   24  O17         0      29.223  37.464  22.078  1.00  0.00    -0.359 OA
HETATM   25  H17         0      29.871  38.145  22.217  1.00  0.00     0.218 HD
ENDBRANCH   8  24
TORSDOF 5
ENDMDL
MODEL 4
REMARK VINA RESULT:      -6.0      5.492      7.766
REMARK  5 active torsions:
REMARK  status: ('A' for Active; 'I' for Inactive)
REMARK    1  A    between atoms: C4_4  and  C5_5 
REMARK    2  A    between atoms: C8_8  and  O9_9 
REMARK    3  A    between atoms: C10_11  and  O11_12 
REMARK    4  A    between atoms: C16_18  and  O17_19 
REMARK    5  A    between atoms: C19_22  and  O20_23 
ROOT
HETATM    1  O1          0      27.036  34.170  23.496  1.00  0.00    -0.286 OA
HETATM    2  C2          0      26.334  34.440  24.509  1.00  0.00     0.201 C 
HETATM    3  C3          0      25.886  35.719  24.792  1.00  0.00     0.067 C 
HETATM    4  C4          0      25.202  36.008  25.967  1.00  0.00     0.103 C 
HETATM    5  O13         0      24.961  35.027  26.819  1.00  0.00    -0.307 OA
HETATM    6  C14         0      25.397  33.803  26.616  1.00  0.00     0.107 C 
HETATM    7  C15         0      25.504  32.885  27.651  1.00  0.00     0.049 C 
HETATM    8  C16         0      26.195  31.691  27.487  1.00  0.00     0.093 C 
HETATM    9  C18         0      26.289  31.242  26.176  1.00  0.00     0.048 C 
HETATM   10  C19         0      26.141  32.125  25.115  1.00  0.00     0.096 C 
HETATM   11  C21         0      25.883  33.446  25.363  1.00  0.00     0.084 C 
ENDROOT
BRANCH  10  12
HETATM   12  O20         0      26.655  31.784  23.868  1.00  0.00    -0.359 OA
HETATM   13  H20         0      27.585  31.607  23.803  1.00  0.00     0.218 HD
ENDBRANCH  10  12
BRANCH   4  14
HETATM   14  C5          0      25.296  37.377  26.477  1.00  0.00     0.025 C 
HETATM   15  C6          0      24.181  38.138  26.799  1.00  0.00     0.004 C 
HETATM   16  C7          0      24.263  38.960  27.918  1.00  0.00     0.026 C 
HETATM   17  C8          0      25.453  39.124  28.618  1.00  0.00     0.112 C 
HETATM   18  C10         0      26.600  38.854  27.882  1.00  0.00     0.112 C 
HETATM   19  C12         0      26.508  37.963  26.819  1.00  0.00     0.028 C 
BRANCH  17  20
HETATM   20  O9          0      25.450  39.330  29.986  1.00  0.00    -0.357 OA
HETATM   21  H9          0      26.078  39.879  30.439  1.00  0.00     0.218 HD
ENDBRANCH  17  20
BRANCH  18  22
HETATM   22  O11         0      27.814  39.182  28.468  1.00  0.00    -0.357 OA
HETATM   23  H11         0      28.394  39.745  27.969  1.00  0.00     0.218 HD
ENDBRANCH  18  22
ENDBRANCH   4  14
BRANCH   8  24
HETATM   24  O17         0      27.009  31.175  28.502  1.00  0.00    -0.359 OA
HETATM   25  H17         0      26.727  30.451  29.049  1.00  0.00     0.218 HD
ENDBRANCH   8  24
TORSDOF 5
ENDMDL
MODEL 5
REMARK VINA RESULT:      -5.9      2.331      3.041
REMARK  5 active torsions:
REMARK  status: ('A' for Active; 'I' for Inactive)
REMARK    1  A    between atoms: C4_4  and  C5_5 
REMARK    2  A    between atoms: C8_8  and  O9_9 
REMARK    3  A    between atoms: C10_11  and  O11_12 
REMARK    4  A    between atoms: C16_18  and  O17_19 
REMARK    5  A    between atoms: C19_22  and  O20_23 
ROOT
HETATM    1  O1          0      29.079  35.945  20.239  1.00  0.00    -0.286 OA
HETATM    2  C2          0      29.027  36.762  21.199  1.00  0.00     0.201 C 
HETATM    3  C3          0      30.009  37.711  21.431  1.00  0.00     0.067 C 
HETATM    4  C4          0      29.979  38.530  22.553  1.00  0.00     0.103 C 
HETATM    5  O13         0      28.975  38.406  23.403  1.00  0.00    -0.307 OA
HETATM    6  C14         0      28.038  37.497  23.250  1.00  0.00     0.107 C 
HETATM    7  C15         0      27.231  37.094  24.305  1.00  0.00     0.049 C 
HETATM    8  C16         0      26.426  35.966  24.207  1.00  0.00     0.093 C 
HETATM    9  C18         0      26.070  35.609  22.912  1.00  0.00     0.048 C 
HETATM   10  C19         0      26.828  36.034  21.830  1.00  0.00     0.096 C 
HETATM   11  C21         0      27.926  36.825  22.038  1.00  0.00     0.084 C 
ENDROOT
BRANCH  10  12
HETATM   12  O20         0      26.741  35.344  20.625  1.00  0.00    -0.359 OA
HETATM   13  H20         0      26.447  34.441  20.649  1.00  0.00     0.218 HD
ENDBRANCH  10  12
BRANCH   4  14
HETATM   14  C5          0      31.261  39.038  23.046  1.00  0.00     0.025 C 
HETATM   15  C6          0      32.231  38.217  23.602  1.00  0.00     0.004 C 
HETATM   16  C7          0      33.561  38.500  23.308  1.00  0.00     0.026 C 
HETATM   17  C8          0      33.925  39.638  22.596  1.00  0.00     0.112 C 
HETATM   18  C10         0      33.000  40.672  22.645  1.00  0.00     0.112 C 
HETATM   19  C12         0      31.663  40.354  22.856  1.00  0.00     0.028 C 
BRANCH  17  20
HETATM   20  O9          0      35.019  39.625  21.750  1.00  0.00    -0.357 OA
HETATM   21  H9          0      35.302  38.859  21.264  1.00  0.00     0.218 HD
ENDBRANCH  17  20
BRANCH  18  22
HETATM   22  O11         0      33.393  41.892  22.114  1.00  0.00    -0.357 OA
HETATM   23  H11         0      34.319  42.006  21.936  1.00  0.00     0.218 HD
ENDBRANCH  18  22
ENDBRANCH   4  14
BRANCH   8  24
HETATM   24  O17         0      26.275  35.082  25.281  1.00  0.00    -0.359 OA
HETATM   25  H17         0      26.174  35.393  26.173  1.00  0.00     0.218 HD
ENDBRANCH   8  24
TORSDOF 5
ENDMDL
MODEL 6
REMARK VINA RESULT:      -5.8      5.738      8.431
REMARK  5 active torsions:
REMARK  status: ('A' for Active; 'I' for Inactive)
REMARK    1  A    between atoms: C4_4  and  C5_5 
REMARK    2  A    between atoms: C8_8  and  O9_9 
REMARK    3  A    between atoms: C10_11  and  O11_12 
REMARK    4  A    between atoms: C16_18  and  O17_19 
REMARK    5  A    between atoms: C19_22  and  O20_23 
ROOT
HETATM    1  O1          0      25.912  32.854  23.163  1.00  0.00    -0.286 OA
HETATM    2  C2          0      25.907  32.944  24.421  1.00  0.00     0.201 C 
HETATM    3  C3          0      25.442  34.061  25.093  1.00  0.00     0.067 C 
HETATM    4  C4          0      25.542  34.176  26.475  1.00  0.00     0.103 C 
HETATM    5  O13         0      26.079  33.179  27.157  1.00  0.00    -0.307 OA
HETATM    6  C14         0      26.570  32.112  26.566  1.00  0.00     0.107 C 
HETATM    7  C15         0      27.470  31.272  27.205  1.00  0.00     0.049 C 
HETATM    8  C16         0      28.176  30.303  26.503  1.00  0.00     0.093 C 
HETATM    9  C18         0      27.574  29.875  25.326  1.00  0.00     0.048 C 
HETATM   10  C19         0      26.634  30.671  24.685  1.00  0.00     0.096 C 
HETATM   11  C21         0      26.285  31.879  25.225  1.00  0.00     0.084 C 
ENDROOT
BRANCH  10  12
HETATM   12  O20         0      26.371  30.459  23.335  1.00  0.00    -0.359 OA
HETATM   13  H20         0      26.354  29.564  23.020  1.00  0.00     0.218 HD
ENDBRANCH  10  12
BRANCH   4  14
HETATM   14  C5          0      25.610  35.528  27.031  1.00  0.00     0.025 C 
HETATM   15  C6          0      26.778  36.277  27.048  1.00  0.00     0.004 C 
HETATM   16  C7          0      26.672  37.642  26.804  1.00  0.00     0.026 C 
HETATM   17  C8          0      25.436  38.267  26.681  1.00  0.00     0.112 C 
HETATM   18  C10         0      24.384  37.598  27.292  1.00  0.00     0.112 C 
HETATM   19  C12         0      24.480  36.220  27.447  1.00  0.00     0.028 C 
BRANCH  17  20
HETATM   20  O9          0      25.269  39.349  25.834  1.00  0.00    -0.357 OA
HETATM   21  H9          0      25.940  40.003  25.675  1.00  0.00     0.218 HD
ENDBRANCH  17  20
BRANCH  18  22
HETATM   22  O11         0      23.170  38.266  27.364  1.00  0.00    -0.357 OA
HETATM   23  H11         0      22.386  37.731  27.406  1.00  0.00     0.218 HD
ENDBRANCH  18  22
ENDBRANCH   4  14
BRANCH   8  24
HETATM   24  O17         0      29.523  30.038  26.779  1.00  0.00    -0.359 OA
HETATM   25  H17         0      29.814  29.180  27.062  1.00  0.00     0.218 HD
ENDBRANCH   8  24
TORSDOF 5
ENDMDL
MODEL 7
REMARK VINA RESULT:      -5.7      1.778      6.496
REMARK  5 active torsions:
REMARK  status: ('A' for Active; 'I' for Inactive)
REMARK    1  A    between atoms: C4_4  and  C5_5 
REMARK    2  A    between atoms: C8_8  and  O9_9 
REMARK    3  A    between atoms: C10_11  and  O11_12 
REMARK    4  A    between atoms: C16_18  and  O17_19 
REMARK    5  A    between atoms: C19_22  and  O20_23 
ROOT
HETATM    1  O1          0      30.601  41.046  20.718  1.00  0.00    -0.286 OA
HETATM    2  C2          0      30.478  40.209  21.654  1.00  0.00     0.201 C 
HETATM    3  C3          0      29.327  40.098  22.415  1.00  0.00     0.067 C 
HETATM    4  C4          0      29.256  39.238  23.506  1.00  0.00     0.103 C 
HETATM    5  O13         0      30.311  38.500  23.803  1.00  0.00    -0.307 OA
HETATM    6  C14         0      31.440  38.595  23.136  1.00  0.00     0.107 C 
HETATM    7  C15         0      32.641  38.145  23.665  1.00  0.00     0.049 C 
HETATM    8  C16         0      33.857  38.473  23.077  1.00  0.00     0.093 C 
HETATM    9  C18         0      33.790  38.781  21.723  1.00  0.00     0.048 C 
HETATM   10  C19         0      32.593  39.189  21.151  1.00  0.00     0.096 C 
HETATM   11  C21         0      31.466  39.273  21.922  1.00  0.00     0.084 C 
ENDROOT
BRANCH  10  12
HETATM   12  O20         0      32.618  39.896  19.953  1.00  0.00    -0.359 OA
HETATM   13  H20         0      31.906  39.759  19.340  1.00  0.00     0.218 HD
ENDBRANCH  10  12
BRANCH   4  14
HETATM   14  C5          0      28.318  39.589  24.574  1.00  0.00     0.025 C 
HETATM   15  C6          0      27.283  38.753  24.970  1.00  0.00     0.004 C 
HETATM   16  C7          0      26.991  38.690  26.329  1.00  0.00     0.026 C 
HETATM   17  C8          0      27.612  39.528  27.249  1.00  0.00     0.112 C 
HETATM   18  C10         0      28.119  40.704  26.712  1.00  0.00     0.112 C 
HETATM   19  C12         0      28.483  40.714  25.371  1.00  0.00     0.028 C 
BRANCH  17  20
HETATM   20  O9          0      27.873  39.096  28.537  1.00  0.00    -0.357 OA
HETATM   21  H9          0      27.893  39.672  29.293  1.00  0.00     0.218 HD
ENDBRANCH  17  20
BRANCH  18  22
HETATM   22  O11         0      28.579  41.658  27.609  1.00  0.00    -0.357 OA
HETATM   23  H11         0      28.840  41.348  28.469  1.00  0.00     0.218 HD
ENDBRANCH  18  22
ENDBRANCH   4  14
BRANCH   8  24
HETATM   24  O17         0      34.978  38.795  23.850  1.00  0.00    -0.359 OA
HETATM   25  H17         0      35.755  39.181  23.465  1.00  0.00     0.218 HD
ENDBRANCH   8  24
TORSDOF 5
ENDMDL
MODEL 8
REMARK VINA RESULT:      -5.6      2.561      6.845
REMARK  5 active torsions:
REMARK  status: ('A' for Active; 'I' for Inactive)
REMARK    1  A    between atoms: C4_4  and  C5_5 
REMARK    2  A    between atoms: C8_8  and  O9_9 
REMARK    3  A    between atoms: C10_11  and  O11_12 
REMARK    4  A    between atoms: C16_18  and  O17_19 
REMARK    5  A    between atoms: C19_22  and  O20_23 
ROOT
HETATM    1  O1          0      29.209  40.189  25.289  1.00  0.00    -0.286 OA
HETATM    2  C2          0      28.890  39.258  24.499  1.00  0.00     0.201 C 
HETATM    3  C3          0      27.740  38.503  24.655  1.00  0.00     0.067 C 
HETATM    4  C4          0      27.464  37.417  23.831  1.00  0.00     0.103 C 
HETATM    5  O13         0      28.316  37.120  22.866  1.00  0.00    -0.307 OA
HETATM    6  C14         0      29.440  37.781  22.698  1.00  0.00     0.107 C 
HETATM    7  C15         0      30.501  37.249  21.978  1.00  0.00     0.049 C 
HETATM    8  C16         0      31.763  37.830  22.017  1.00  0.00     0.093 C 
HETATM    9  C18         0      31.777  39.182  22.338  1.00  0.00     0.048 C 
HETATM   10  C19         0      30.711  39.757  23.016  1.00  0.00     0.096 C 
HETATM   11  C21         0      29.630  38.991  23.357  1.00  0.00     0.084 C 
ENDROOT
BRANCH  10  12
HETATM   12  O20         0      30.907  40.952  23.703  1.00  0.00    -0.359 OA
HETATM   13  H20         0      30.483  41.054  24.547  1.00  0.00     0.218 HD
ENDBRANCH  10  12
BRANCH   4  14
HETATM   14  C5          0      26.628  36.352  24.386  1.00  0.00     0.025 C 
HETATM   15  C6          0      26.405  35.151  23.728  1.00  0.00     0.004 C 
HETATM   16  C7          0      26.353  33.993  24.498  1.00  0.00     0.026 C 
HETATM   17  C8          0      26.388  34.039  25.887  1.00  0.00     0.112 C 
HETATM   18  C10         0      25.976  35.246  26.437  1.00  0.00     0.112 C 
HETATM   19  C12         0      26.118  36.401  25.677  1.00  0.00     0.028 C 
BRANCH  17  20
HETATM   20  O9          0      26.988  33.028  26.615  1.00  0.00    -0.357 OA
HETATM   21  H9          0      27.467  32.307  26.222  1.00  0.00     0.218 HD
ENDBRANCH  17  20
BRANCH  18  22
HETATM   22  O11         0      25.811  35.285  27.815  1.00  0.00    -0.357 OA
HETATM   23  H11         0      25.848  36.139  28.228  1.00  0.00     0.218 HD
ENDBRANCH  18  22
ENDBRANCH   4  14
BRANCH   8  24
HETATM   24  O17         0      32.923  37.050  22.065  1.00  0.00    -0.359 OA
HETATM   25  H17         0      33.784  37.428  21.931  1.00  0.00     0.218 HD
ENDBRANCH   8  24
TORSDOF 5
ENDMDL
MODEL 9
REMARK VINA RESULT:      -5.5      3.363      7.852
REMARK  5 active torsions:
REMARK  status: ('A' for Active; 'I' for Inactive)
REMARK    1  A    between atoms: C4_4  and  C5_5 
REMARK    2  A    between atoms: C8_8  and  O9_9 
REMARK    3  A    between atoms: C10_11  and  O11_12 
REMARK    4  A    between atoms: C16_18  and  O17_19 
REMARK    5  A    between atoms: C19_22  and  O20_23 
ROOT
HETATM    1  O1          0      32.650  44.704  22.607  1.00  0.00    -0.286 OA
HETATM    2  C2          0      33.236  43.595  22.472  1.00  0.00     0.201 C 
HETATM    3  C3          0      32.564  42.385  22.487  1.00  0.00     0.067 C 
HETATM    4  C4          0      33.243  41.173  22.439  1.00  0.00     0.103 C 
HETATM    5  O13         0      34.562  41.188  22.358  1.00  0.00    -0.307 OA
HETATM    6  C14         0      35.251  42.307  22.378  1.00  0.00     0.107 C 
HETATM    7  C15         0      36.602  42.329  22.693  1.00  0.00     0.049 C 
HETATM    8  C16         0      37.262  43.522  22.962  1.00  0.00     0.093 C 
HETATM    9  C18         0      36.684  44.652  22.397  1.00  0.00     0.048 C 
HETATM   10  C19         0      35.346  44.650  22.027  1.00  0.00     0.096 C 
HETATM   11  C21         0      34.594  43.521  22.203  1.00  0.00     0.084 C 
ENDROOT
BRANCH  10  12
HETATM   12  O20         0      34.678  45.862  21.882  1.00  0.00    -0.359 OA
HETATM   13  H20         0      34.429  46.132  21.007  1.00  0.00     0.218 HD
ENDBRANCH  10  12
BRANCH   4  14
HETATM   14  C5          0      32.588  40.013  23.046  1.00  0.00     0.025 C 
HETATM   15  C6          0      31.552  40.128  23.962  1.00  0.00     0.004 C 
HETATM   16  C7          0      30.516  39.204  23.882  1.00  0.00     0.026 C 
HETATM   17  C8          0      30.569  38.121  23.011  1.00  0.00     0.112 C 
HETATM   18  C10         0      31.851  37.746  22.630  1.00  0.00     0.112 C 
HETATM   19  C12         0      32.850  38.711  22.638  1.00  0.00     0.028 C 
BRANCH  17  20
HETATM   20  O9          0      29.418  37.622  22.428  1.00  0.00    -0.357 OA
HETATM   21  H9          0      29.055  37.948  21.612  1.00  0.00     0.218 HD
ENDBRANCH  17  20
BRANCH  18  22
HETATM   22  O11         0      31.973  36.562  21.918  1.00  0.00    -0.357 OA
HETATM   23  H11         0      32.816  36.387  21.516  1.00  0.00     0.218 HD
ENDBRANCH  18  22
ENDBRANCH   4  14
BRANCH   8  24
HETATM   24  O17         0      38.214  43.615  23.983  1.00  0.00    -0.359 OA
HETATM   25  H17         0      38.603  44.446  24.229  1.00  0.00     0.218 HD
ENDBRANCH   8  24
TORSDOF 5
ENDMDL
