MODEL 1
REMARK VINA RESULT:      -0.0      0.000      0.000
REMARK  5 active torsions:
REMARK  status: ('A' for Active; 'I' for Inactive)
REMARK    1  A    between atoms: C4_4  and  C5_5 
REMARK    2  A    between atoms: C8_8  and  O9_9 
REMARK    3  A    between atoms: C10_11  and  O11_12 
REMARK    4  A    between atoms: C16_18  and  O17_19 
REMARK    5  A    between atoms: C19_22  and  O20_23 
ROOT
HETATM    1  O1          0      70.005  89.061   1.198  1.00  0.00    -0.286 OA
HETATM    2  C2          0      69.789  90.304   1.189  1.00  0.00     0.201 C 
HETATM    3  C3          0      68.534  90.849   1.400  1.00  0.00     0.067 C 
HETATM    4  C4          0      68.303  92.215   1.284  1.00  0.00     0.103 C 
HETATM    5  O13         0      69.317  93.006   0.983  1.00  0.00    -0.307 OA
HETATM    6  C14         0      70.521  92.537   0.735  1.00  0.00     0.107 C 
HETATM    7  C15         0      71.467  93.280   0.045  1.00  0.00     0.049 C 
HETATM    8  C16         0      72.634  92.697  -0.434  1.00  0.00     0.093 C 
HETATM    9  C18         0      73.038  91.552   0.242  1.00  0.00     0.048 C 
HETATM   10  C19         0      72.126  90.810   0.981  1.00  0.00     0.096 C 
HETATM   11  C21         0      70.823  91.219   1.058  1.00  0.00     0.084 C 
ENDROOT
BRANCH  10  12
HETATM   12  O20         0      72.412  89.481   1.278  1.00  0.00    -0.359 OA
HETATM   13  H20         0      72.370  89.209   2.187  1.00  0.00     0.218 HD
ENDBRANCH  10  12
BRANCH   4  14
HETATM   14  C5          0      66.948  92.637   0.923  1.00  0.00     0.025 C 
HETATM   15  C6          0      66.683  93.827   0.262  1.00  0.00     0.004 C 
HETATM   16  C7          0      65.680  93.820  -0.702  1.00  0.00     0.026 C 
HETATM   17  C8          0      64.876  92.704  -0.909  1.00  0.00     0.112 C 
HETATM   18  C10         0      64.788  91.843   0.176  1.00  0.00     0.112 C 
HETATM   19  C12         0      65.844  91.809   1.079  1.00  0.00     0.028 C 
BRANCH  17  20
HETATM   20  O9          0      64.395  92.401  -2.171  1.00  0.00    -0.357 OA
HETATM   21  H9          0      64.916  92.463  -2.963  1.00  0.00     0.218 HD
ENDBRANCH  17  20
BRANCH  18  22
HETATM   22  O11         0      63.856  90.819   0.092  1.00  0.00    -0.357 OA
HETATM   23  H11         0      63.319  90.662   0.860  1.00  0.00     0.218 HD
ENDBRANCH  18  22
ENDBRANCH   4  14
BRANCH   8  24
HETATM   24  O17         0      73.156  93.034  -1.688  1.00  0.00    -0.359 OA
HETATM   25  H17         0      73.761  93.759  -1.798  1.00  0.00     0.218 HD
ENDBRANCH   8  24
TORSDOF 5
ENDMDL
MODEL 2
REMARK VINA RESULT:      -0.0      4.821      5.995
REMARK  5 active torsions:
REMARK  status: ('A' for Active; 'I' for Inactive)
REMARK    1  A    between atoms: C4_4  and  C5_5 
REMARK    2  A    between atoms: C8_8  and  O9_9 
REMARK    3  A    between atoms: C10_11  and  O11_12 
REMARK    4  A    between atoms: C16_18  and  O17_19 
REMARK    5  A    between atoms: C19_22  and  O20_23 
ROOT
HETATM    1  O1          0      68.097  94.759   2.901  1.00  0.00    -0.286 OA
HETATM    2  C2          0      66.954  95.233   2.658  1.00  0.00     0.201 C 
HETATM    3  C3          0      65.836  94.438   2.470  1.00  0.00     0.067 C 
HETATM    4  C4          0      64.610  94.980   2.102  1.00  0.00     0.103 C 
HETATM    5  O13         0      64.514  96.289   1.950  1.00  0.00    -0.307 OA
HETATM    6  C14         0      65.553  97.085   2.079  1.00  0.00     0.107 C 
HETATM    7  C15         0      65.563  98.365   1.543  1.00  0.00     0.049 C 
HETATM    8  C16         0      66.738  99.102   1.458  1.00  0.00     0.093 C 
HETATM    9  C18         0      67.722  98.746   2.373  1.00  0.00     0.048 C 
HETATM   10  C19         0      67.715  97.490   2.963  1.00  0.00     0.096 C 
HETATM   11  C21         0      66.722  96.600   2.655  1.00  0.00     0.084 C 
ENDROOT
BRANCH  10  12
HETATM   12  O20         0      68.891  96.989   3.512  1.00  0.00    -0.359 OA
HETATM   13  H20         0      69.431  97.581   4.023  1.00  0.00     0.218 HD
ENDBRANCH  10  12
BRANCH   4  14
HETATM   14  C5          0      63.691  94.115   1.360  1.00  0.00     0.025 C 
HETATM   15  C6          0      62.732  94.609   0.487  1.00  0.00     0.004 C 
HETATM   16  C7          0      62.496  93.895  -0.683  1.00  0.00     0.026 C 
HETATM   17  C8          0      63.094  92.661  -0.918  1.00  0.00     0.112 C 
HETATM   18  C10         0      63.498  91.986   0.226  1.00  0.00     0.112 C 
HETATM   19  C12         0      63.810  92.731   1.357  1.00  0.00     0.028 C 
BRANCH  17  20
HETATM   20  O9          0      63.433  92.271  -2.201  1.00  0.00    -0.357 OA
HETATM   21  H9          0      63.070  92.664  -2.986  1.00  0.00     0.218 HD
ENDBRANCH  17  20
BRANCH  18  22
HETATM   22  O11         0      63.925  90.676   0.064  1.00  0.00    -0.357 OA
HETATM   23  H11         0      63.461  90.008   0.556  1.00  0.00     0.218 HD
ENDBRANCH  18  22
ENDBRANCH   4  14
BRANCH   8  24
HETATM   24  O17         0      67.026  99.889   0.338  1.00  0.00    -0.359 OA
HETATM   25  H17         0      67.493 100.713   0.413  1.00  0.00     0.218 HD
ENDBRANCH   8  24
TORSDOF 5
ENDMDL
MODEL 3
REMARK VINA RESULT:      -0.0      6.753     10.028
REMARK  5 active torsions:
REMARK  status: ('A' for Active; 'I' for Inactive)
REMARK    1  A    between atoms: C4_4  and  C5_5 
REMARK    2  A    between atoms: C8_8  and  O9_9 
REMARK    3  A    between atoms: C10_11  and  O11_12 
REMARK    4  A    between atoms: C16_18  and  O17_19 
REMARK    5  A    between atoms: C19_22  and  O20_23 
ROOT
HETATM    1  O1          0      73.650  91.116   1.816  1.00  0.00    -0.286 OA
HETATM    2  C2          0      74.906  91.084   1.705  1.00  0.00     0.201 C 
HETATM    3  C3          0      75.634  89.907   1.753  1.00  0.00     0.067 C 
HETATM    4  C4          0      77.024  89.909   1.732  1.00  0.00     0.103 C 
HETATM    5  O13         0      77.656  91.067   1.643  1.00  0.00    -0.307 OA
HETATM    6  C14         0      77.015  92.214   1.632  1.00  0.00     0.107 C 
HETATM    7  C15         0      77.649  93.409   1.940  1.00  0.00     0.049 C 
HETATM    8  C16         0      76.924  94.571   2.176  1.00  0.00     0.093 C 
HETATM    9  C18         0      75.666  94.608   1.586  1.00  0.00     0.048 C 
HETATM   10  C19         0      75.023  93.433   1.223  1.00  0.00     0.096 C 
HETATM   11  C21         0      75.639  92.229   1.431  1.00  0.00     0.084 C 
ENDROOT
BRANCH  10  12
HETATM   12  O20         0      73.642  93.438   1.052  1.00  0.00    -0.359 OA
HETATM   13  H20         0      73.099  93.562   1.822  1.00  0.00     0.218 HD
ENDBRANCH  10  12
BRANCH   4  14
HETATM   14  C5          0      77.706  88.782   2.370  1.00  0.00     0.025 C 
HETATM   15  C6          0      78.983  88.878   2.902  1.00  0.00     0.004 C 
HETATM   16  C7          0      79.242  88.194   4.085  1.00  0.00     0.026 C 
HETATM   17  C8          0      78.306  87.334   4.650  1.00  0.00     0.112 C 
HETATM   18  C10         0      77.371  86.828   3.758  1.00  0.00     0.112 C 
HETATM   19  C12         0      77.068  87.574   2.625  1.00  0.00     0.028 C 
BRANCH  17  20
HETATM   20  O9          0      78.216  87.188   6.023  1.00  0.00    -0.357 OA
HETATM   21  H9          0      77.483  87.501   6.540  1.00  0.00     0.218 HD
ENDBRANCH  17  20
BRANCH  18  22
HETATM   22  O11         0      76.534  85.824   4.225  1.00  0.00    -0.357 OA
HETATM   23  H11         0      76.374  85.799   5.162  1.00  0.00     0.218 HD
ENDBRANCH  18  22
ENDBRANCH   4  14
BRANCH   8  24
HETATM   24  O17         0      77.288  95.465   3.189  1.00  0.00    -0.359 OA
HETATM   25  H17         0      77.239  95.225   4.107  1.00  0.00     0.218 HD
ENDBRANCH   8  24
TORSDOF 5
ENDMDL
MODEL 4
REMARK VINA RESULT:       0.0      4.829      5.694
REMARK  5 active torsions:
REMARK  status: ('A' for Active; 'I' for Inactive)
REMARK    1  A    between atoms: C4_4  and  C5_5 
REMARK    2  A    between atoms: C8_8  and  O9_9 
REMARK    3  A    between atoms: C10_11  and  O11_12 
REMARK    4  A    between atoms: C16_18  and  O17_19 
REMARK    5  A    between atoms: C19_22  and  O20_23 
ROOT
HETATM    1  O1          0      67.310  87.860   3.813  1.00  0.00    -0.286 OA
HETATM    2  C2          0      66.837  88.252   2.711  1.00  0.00     0.201 C 
HETATM    3  C3          0      65.736  89.087   2.622  1.00  0.00     0.067 C 
HETATM    4  C4          0      65.173  89.421   1.396  1.00  0.00     0.103 C 
HETATM    5  O13         0      65.721  88.941   0.293  1.00  0.00    -0.307 OA
HETATM    6  C14         0      66.744  88.116   0.324  1.00  0.00     0.107 C 
HETATM    7  C15         0      67.066  87.310  -0.759  1.00  0.00     0.049 C 
HETATM    8  C16         0      67.976  86.267  -0.638  1.00  0.00     0.093 C 
HETATM    9  C18         0      68.897  86.409   0.394  1.00  0.00     0.048 C 
HETATM   10  C19         0      68.627  87.243   1.470  1.00  0.00     0.096 C 
HETATM   11  C21         0      67.453  87.945   1.508  1.00  0.00     0.084 C 
ENDROOT
BRANCH  10  12
HETATM   12  O20         0      69.313  87.054   2.666  1.00  0.00    -0.359 OA
HETATM   13  H20         0      69.951  87.709   2.922  1.00  0.00     0.218 HD
ENDBRANCH  10  12
BRANCH   4  14
HETATM   14  C5          0      63.749  89.762   1.383  1.00  0.00     0.025 C 
HETATM   15  C6          0      62.944  89.589   0.267  1.00  0.00     0.004 C 
HETATM   16  C7          0      61.640  89.150   0.475  1.00  0.00     0.026 C 
HETATM   17  C8          0      61.110  89.016   1.754  1.00  0.00     0.112 C 
HETATM   18  C10         0      61.734  89.789   2.723  1.00  0.00     0.112 C 
HETATM   19  C12         0      63.065  90.143   2.531  1.00  0.00     0.028 C 
BRANCH  17  20
HETATM   20  O9          0      60.183  88.029   2.037  1.00  0.00    -0.357 OA
HETATM   21  H9          0      59.471  87.791   1.455  1.00  0.00     0.218 HD
ENDBRANCH  17  20
BRANCH  18  22
HETATM   22  O11         0      61.131  89.839   3.972  1.00  0.00    -0.357 OA
HETATM   23  H11         0      61.143  89.041   4.488  1.00  0.00     0.218 HD
ENDBRANCH  18  22
ENDBRANCH   4  14
BRANCH   8  24
HETATM   24  O17         0      67.766  85.038  -1.273  1.00  0.00    -0.359 OA
HETATM   25  H17         0      68.135  84.849  -2.128  1.00  0.00     0.218 HD
ENDBRANCH   8  24
TORSDOF 5
ENDMDL
MODEL 5
REMARK VINA RESULT:       0.0      4.141      7.285
REMARK  5 active torsions:
REMARK  status: ('A' for Active; 'I' for Inactive)
REMARK    1  A    between atoms: C4_4  and  C5_5 
REMARK    2  A    between atoms: C8_8  and  O9_9 
REMARK    3  A    between atoms: C10_11  and  O11_12 
REMARK    4  A    between atoms: C16_18  and  O17_19 
REMARK    5  A    between atoms: C19_22  and  O20_23 
ROOT
HETATM    1  O1          0      66.056  91.042  -3.638  1.00  0.00    -0.286 OA
HETATM    2  C2          0      66.962  91.909  -3.777  1.00  0.00     0.201 C 
HETATM    3  C3          0      68.002  91.769  -4.680  1.00  0.00     0.067 C 
HETATM    4  C4          0      69.042  92.689  -4.741  1.00  0.00     0.103 C 
HETATM    5  O13         0      69.018  93.729  -3.926  1.00  0.00    -0.307 OA
HETATM    6  C14         0      68.074  93.889  -3.024  1.00  0.00     0.107 C 
HETATM    7  C15         0      68.244  94.723  -1.929  1.00  0.00     0.049 C 
HETATM    8  C16         0      67.360  94.695  -0.857  1.00  0.00     0.093 C 
HETATM    9  C18         0      66.086  94.230  -1.158  1.00  0.00     0.048 C 
HETATM   10  C19         0      65.873  93.431  -2.274  1.00  0.00     0.096 C 
HETATM   11  C21         0      66.922  93.114  -3.092  1.00  0.00     0.084 C 
ENDROOT
BRANCH  10  12
HETATM   12  O20         0      64.736  92.630  -2.330  1.00  0.00    -0.359 OA
HETATM   13  H20         0      64.778  91.770  -1.930  1.00  0.00     0.218 HD
ENDBRANCH  10  12
BRANCH   4  14
HETATM   14  C5          0      70.335  92.207  -5.230  1.00  0.00     0.025 C 
HETATM   15  C6          0      71.542  92.785  -4.862  1.00  0.00     0.004 C 
HETATM   16  C7          0      72.624  91.937  -4.648  1.00  0.00     0.026 C 
HETATM   17  C8          0      72.549  90.575  -4.921  1.00  0.00     0.112 C 
HETATM   18  C10         0      71.575  90.222  -5.846  1.00  0.00     0.112 C 
HETATM   19  C12         0      70.461  91.044  -5.978  1.00  0.00     0.028 C 
BRANCH  17  20
HETATM   20  O9          0      73.253  89.660  -4.160  1.00  0.00    -0.357 OA
HETATM   21  H9          0      73.418  89.763  -3.229  1.00  0.00     0.218 HD
ENDBRANCH  17  20
BRANCH  18  22
HETATM   22  O11         0      71.581  88.909  -6.295  1.00  0.00    -0.357 OA
HETATM   23  H11         0      72.084  88.726  -7.080  1.00  0.00     0.218 HD
ENDBRANCH  18  22
ENDBRANCH   4  14
BRANCH   8  24
HETATM   24  O17         0      67.812  94.800   0.464  1.00  0.00    -0.359 OA
HETATM   25  H17         0      68.620  94.391   0.749  1.00  0.00     0.218 HD
ENDBRANCH   8  24
TORSDOF 5
ENDMDL
MODEL 6
REMARK VINA RESULT:       0.0      4.669      7.337
REMARK  5 active torsions:
REMARK  status: ('A' for Active; 'I' for Inactive)
REMARK    1  A    between atoms: C4_4  and  C5_5 
REMARK    2  A    between atoms: C8_8  and  O9_9 
REMARK    3  A    between atoms: C10_11  and  O11_12 
REMARK    4  A    between atoms: C16_18  and  O17_19 
REMARK    5  A    between atoms: C19_22  and  O20_23 
ROOT
HETATM    1  O1          0      69.631  94.153   6.314  1.00  0.00    -0.286 OA
HETATM    2  C2          0      69.898  93.378   5.355  1.00  0.00     0.201 C 
HETATM    3  C3          0      69.980  92.004   5.502  1.00  0.00     0.067 C 
HETATM    4  C4          0      70.376  91.181   4.453  1.00  0.00     0.103 C 
HETATM    5  O13         0      70.660  91.733   3.286  1.00  0.00    -0.307 OA
HETATM    6  C14         0      70.634  93.035   3.104  1.00  0.00     0.107 C 
HETATM    7  C15         0      71.298  93.638   2.045  1.00  0.00     0.049 C 
HETATM    8  C16         0      71.482  95.015   1.998  1.00  0.00     0.093 C 
HETATM    9  C18         0      70.556  95.755   2.723  1.00  0.00     0.048 C 
HETATM   10  C19         0      69.840  95.171   3.759  1.00  0.00     0.096 C 
HETATM   11  C21         0      70.036  93.850   4.059  1.00  0.00     0.084 C 
ENDROOT
BRANCH  10  12
HETATM   12  O20         0      69.268  95.983   4.733  1.00  0.00    -0.359 OA
HETATM   13  H20         0      68.445  95.704   5.117  1.00  0.00     0.218 HD
ENDBRANCH  10  12
BRANCH   4  14
HETATM   14  C5          0      71.007  89.908   4.802  1.00  0.00     0.025 C 
HETATM   15  C6          0      71.906  89.259   3.967  1.00  0.00     0.004 C 
HETATM   16  C7          0      72.992  88.623   4.559  1.00  0.00     0.026 C 
HETATM   17  C8          0      73.111  88.517   5.941  1.00  0.00     0.112 C 
HETATM   18  C10         0      71.913  88.613   6.635  1.00  0.00     0.112 C 
HETATM   19  C12         0      70.871  89.328   6.057  1.00  0.00     0.028 C 
BRANCH  17  20
HETATM   20  O9          0      74.354  88.530   6.548  1.00  0.00    -0.357 OA
HETATM   21  H9          0      74.859  89.321   6.700  1.00  0.00     0.218 HD
ENDBRANCH  17  20
BRANCH  18  22
HETATM   22  O11         0      71.948  88.327   7.992  1.00  0.00    -0.357 OA
HETATM   23  H11         0      72.594  87.693   8.281  1.00  0.00     0.218 HD
ENDBRANCH  18  22
ENDBRANCH   4  14
BRANCH   8  24
HETATM   24  O17         0      72.683  95.575   1.549  1.00  0.00    -0.359 OA
HETATM   25  H17         0      73.513  95.127   1.656  1.00  0.00     0.218 HD
ENDBRANCH   8  24
TORSDOF 5
ENDMDL
MODEL 7
REMARK VINA RESULT:       0.0      6.892      9.631
REMARK  5 active torsions:
REMARK  status: ('A' for Active; 'I' for Inactive)
REMARK    1  A    between atoms: C4_4  and  C5_5 
REMARK    2  A    between atoms: C8_8  and  O9_9 
REMARK    3  A    between atoms: C10_11  and  O11_12 
REMARK    4  A    between atoms: C16_18  and  O17_19 
REMARK    5  A    between atoms: C19_22  and  O20_23 
ROOT
HETATM    1  O1          0      63.259  91.281  -4.066  1.00  0.00    -0.286 OA
HETATM    2  C2          0      64.130  90.526  -4.581  1.00  0.00     0.201 C 
HETATM    3  C3          0      65.420  90.947  -4.855  1.00  0.00     0.067 C 
HETATM    4  C4          0      66.329  90.128  -5.516  1.00  0.00     0.103 C 
HETATM    5  O13         0      65.948  88.914  -5.870  1.00  0.00    -0.307 OA
HETATM    6  C14         0      64.723  88.478  -5.667  1.00  0.00     0.107 C 
HETATM    7  C15         0      64.206  87.399  -6.370  1.00  0.00     0.049 C 
HETATM    8  C16         0      62.848  87.105  -6.342  1.00  0.00     0.093 C 
HETATM    9  C18         0      62.170  87.567  -5.221  1.00  0.00     0.048 C 
HETATM   10  C19         0      62.683  88.614  -4.468  1.00  0.00     0.096 C 
HETATM   11  C21         0      63.875  89.185  -4.823  1.00  0.00     0.084 C 
ENDROOT
BRANCH  10  12
HETATM   12  O20         0      61.829  89.343  -3.646  1.00  0.00    -0.359 OA
HETATM   13  H20         0      61.727  89.059  -2.746  1.00  0.00     0.218 HD
ENDBRANCH  10  12
BRANCH   4  14
HETATM   14  C5          0      67.388  90.786  -6.283  1.00  0.00     0.025 C 
HETATM   15  C6          0      68.001  90.195  -7.378  1.00  0.00     0.004 C 
HETATM   16  C7          0      68.320  91.014  -8.457  1.00  0.00     0.026 C 
HETATM   17  C8          0      68.160  92.394  -8.398  1.00  0.00     0.112 C 
HETATM   18  C10         0      68.159  92.923  -7.115  1.00  0.00     0.112 C 
HETATM   19  C12         0      67.754  92.108  -6.064  1.00  0.00     0.028 C 
BRANCH  17  20
HETATM   20  O9          0      67.818  93.117  -9.528  1.00  0.00    -0.357 OA
HETATM   21  H9          0      68.183  93.968  -9.740  1.00  0.00     0.218 HD
ENDBRANCH  17  20
BRANCH  18  22
HETATM   22  O11         0      68.193  94.306  -7.005  1.00  0.00    -0.357 OA
HETATM   23  H11         0      67.563  94.706  -6.417  1.00  0.00     0.218 HD
ENDBRANCH  18  22
ENDBRANCH   4  14
BRANCH   8  24
HETATM   24  O17         0      62.169  86.686  -7.492  1.00  0.00    -0.359 OA
HETATM   25  H17         0      61.543  85.972  -7.470  1.00  0.00     0.218 HD
ENDBRANCH   8  24
TORSDOF 5
ENDMDL
MODEL 8
REMARK VINA RESULT:       0.0      7.293      7.967
REMARK  5 active torsions:
REMARK  status: ('A' for Active; 'I' for Inactive)
REMARK    1  A    between atoms: C4_4  and  C5_5 
REMARK    2  A    between atoms: C8_8  and  O9_9 
REMARK    3  A    between atoms: C10_11  and  O11_12 
REMARK    4  A    between atoms: C16_18  and  O17_19 
REMARK    5  A    between atoms: C19_22  and  O20_23 
ROOT
HETATM    1  O1          0      72.376  83.492  -3.084  1.00  0.00    -0.286 OA
HETATM    2  C2          0      71.591  84.479  -3.055  1.00  0.00     0.201 C 
HETATM    3  C3          0      70.257  84.367  -2.702  1.00  0.00     0.067 C 
HETATM    4  C4          0      69.389  85.451  -2.778  1.00  0.00     0.103 C 
HETATM    5  O13         0      69.864  86.617  -3.179  1.00  0.00    -0.307 OA
HETATM    6  C14         0      71.113  86.769  -3.561  1.00  0.00     0.107 C 
HETATM    7  C15         0      71.513  87.844  -4.342  1.00  0.00     0.049 C 
HETATM    8  C16         0      72.761  87.868  -4.952  1.00  0.00     0.093 C 
HETATM    9  C18         0      73.730  87.085  -4.336  1.00  0.00     0.048 C 
HETATM   10  C19         0      73.365  86.030  -3.511  1.00  0.00     0.096 C 
HETATM   11  C21         0      72.041  85.770  -3.288  1.00  0.00     0.084 C 
ENDROOT
BRANCH  10  12
HETATM   12  O20         0      74.281  85.013  -3.262  1.00  0.00    -0.359 OA
HETATM   13  H20         0      73.956  84.201  -2.892  1.00  0.00     0.218 HD
ENDBRANCH  10  12
BRANCH   4  14
HETATM   14  C5          0      67.969  85.159  -2.984  1.00  0.00     0.025 C 
HETATM   15  C6          0      67.101  86.049  -3.599  1.00  0.00     0.004 C 
HETATM   16  C7          0      66.133  85.523  -4.448  1.00  0.00     0.026 C 
HETATM   17  C8          0      65.945  84.151  -4.579  1.00  0.00     0.112 C 
HETATM   18  C10         0      66.391  83.400  -3.499  1.00  0.00     0.112 C 
HETATM   19  C12         0      67.419  83.913  -2.717  1.00  0.00     0.028 C 
BRANCH  17  20
HETATM   20  O9          0      65.543  83.602  -5.783  1.00  0.00    -0.357 OA
HETATM   21  H9          0      64.692  83.204  -5.925  1.00  0.00     0.218 HD
ENDBRANCH  17  20
BRANCH  18  22
HETATM   22  O11         0      66.060  82.052  -3.492  1.00  0.00    -0.357 OA
HETATM   23  H11         0      66.340  81.545  -2.739  1.00  0.00     0.218 HD
ENDBRANCH  18  22
ENDBRANCH   4  14
BRANCH   8  24
HETATM   24  O17         0      72.929  88.360  -6.251  1.00  0.00    -0.359 OA
HETATM   25  H17         0      73.665  88.099  -6.792  1.00  0.00     0.218 HD
ENDBRANCH   8  24
TORSDOF 5
ENDMDL
MODEL 9
REMARK VINA RESULT:       0.0      7.624      8.556
REMARK  5 active torsions:
REMARK  status: ('A' for Active; 'I' for Inactive)
REMARK    1  A    between atoms: C4_4  and  C5_5 
REMARK    2  A    between atoms: C8_8  and  O9_9 
REMARK    3  A    between atoms: C10_11  and  O11_12 
REMARK    4  A    between atoms: C16_18  and  O17_19 
REMARK    5  A    between atoms: C19_22  and  O20_23 
ROOT
HETATM    1  O1          0      71.070  90.879  -5.686  1.00  0.00    -0.286 OA
HETATM    2  C2          0      71.045  89.727  -6.200  1.00  0.00     0.201 C 
HETATM    3  C3          0      70.020  89.296  -7.026  1.00  0.00     0.067 C 
HETATM    4  C4          0      69.965  87.989  -7.496  1.00  0.00     0.103 C 
HETATM    5  O13         0      70.929  87.151  -7.157  1.00  0.00    -0.307 OA
HETATM    6  C14         0      71.904  87.499  -6.346  1.00  0.00     0.107 C 
HETATM    7  C15         0      72.671  86.555  -5.679  1.00  0.00     0.049 C 
HETATM    8  C16         0      73.520  86.919  -4.640  1.00  0.00     0.093 C 
HETATM    9  C18         0      73.952  88.239  -4.670  1.00  0.00     0.048 C 
HETATM   10  C19         0      73.234  89.200  -5.368  1.00  0.00     0.096 C 
HETATM   11  C21         0      72.101  88.842  -6.046  1.00  0.00     0.084 C 
ENDROOT
BRANCH  10  12
HETATM   12  O20         0      73.405  90.544  -5.047  1.00  0.00    -0.359 OA
HETATM   13  H20         0      72.988  91.191  -5.603  1.00  0.00     0.218 HD
ENDBRANCH  10  12
BRANCH   4  14
HETATM   14  C5          0      68.643  87.448  -7.818  1.00  0.00     0.025 C 
HETATM   15  C6          0      68.352  86.093  -7.768  1.00  0.00     0.004 C 
HETATM   16  C7          0      67.100  85.719  -7.291  1.00  0.00     0.026 C 
HETATM   17  C8          0      66.119  86.662  -7.000  1.00  0.00     0.112 C 
HETATM   18  C10         0      66.266  87.874  -7.661  1.00  0.00     0.112 C 
HETATM   19  C12         0      67.542  88.263  -8.052  1.00  0.00     0.028 C 
BRANCH  17  20
HETATM   20  O9          0      65.214  86.450  -5.975  1.00  0.00    -0.357 OA
HETATM   21  H9          0      64.749  85.633  -5.842  1.00  0.00     0.218 HD
ENDBRANCH  17  20
BRANCH  18  22
HETATM   22  O11         0      65.219  88.779  -7.555  1.00  0.00    -0.357 OA
HETATM   23  H11         0      65.183  89.472  -8.204  1.00  0.00     0.218 HD
ENDBRANCH  18  22
ENDBRANCH   4  14
BRANCH   8  24
HETATM   24  O17         0      73.649  86.128  -3.492  1.00  0.00    -0.359 OA
HETATM   25  H17         0      72.948  85.560  -3.197  1.00  0.00     0.218 HD
ENDBRANCH   8  24
TORSDOF 5
ENDMDL
