MODEL 1
REMARK VINA RESULT:      -5.7      0.000      0.000
REMARK  5 active torsions:
REMARK  status: ('A' for Active; 'I' for Inactive)
REMARK    1  A    between atoms: C4_4  and  C5_5 
REMARK    2  A    between atoms: C8_8  and  O9_9 
REMARK    3  A    between atoms: C10_11  and  O11_12 
REMARK    4  A    between atoms: C16_18  and  O17_19 
REMARK    5  A    between atoms: C19_22  and  O20_23 
ROOT
HETATM    1  O1          0      25.215  93.539 -13.319  1.00  0.00    -0.286 OA
HETATM    2  C2          0      26.271  93.586 -14.007  1.00  0.00     0.201 C 
HETATM    3  C3          0      26.294  94.031 -15.317  1.00  0.00     0.067 C 
HETATM    4  C4          0      27.451  93.978 -16.085  1.00  0.00     0.103 C 
HETATM    5  O13         0      28.557  93.507 -15.535  1.00  0.00    -0.307 OA
HETATM    6  C14         0      28.581  93.037 -14.307  1.00  0.00     0.107 C 
HETATM    7  C15         0      29.592  92.196 -13.867  1.00  0.00     0.049 C 
HETATM    8  C16         0      29.484  91.503 -12.667  1.00  0.00     0.093 C 
HETATM    9  C18         0      28.631  92.079 -11.733  1.00  0.00     0.048 C 
HETATM   10  C19         0      27.637  92.962 -12.134  1.00  0.00     0.096 C 
HETATM   11  C21         0      27.508  93.281 -13.458  1.00  0.00     0.084 C 
ENDROOT
BRANCH  10  12
HETATM   12  O20         0      26.546  93.183 -11.299  1.00  0.00    -0.359 OA
HETATM   13  H20         0      25.993  93.933 -11.480  1.00  0.00     0.218 HD
ENDBRANCH  10  12
BRANCH   4  14
HETATM   14  C5          0      27.288  93.876 -17.537  1.00  0.00     0.025 C 
HETATM   15  C6          0      28.262  94.290 -18.434  1.00  0.00     0.004 C 
HETATM   16  C7          0      28.456  93.519 -19.576  1.00  0.00     0.026 C 
HETATM   17  C8          0      27.622  92.450 -19.884  1.00  0.00     0.112 C 
HETATM   18  C10         0      26.360  92.514 -19.308  1.00  0.00     0.112 C 
HETATM   19  C12         0      26.212  93.220 -18.121  1.00  0.00     0.028 C 
BRANCH  17  20
HETATM   20  O9          0      28.113  91.333 -20.537  1.00  0.00    -0.357 OA
HETATM   21  H9          0      28.555  90.616 -20.096  1.00  0.00     0.218 HD
ENDBRANCH  17  20
BRANCH  18  22
HETATM   22  O11         0      25.428  91.577 -19.731  1.00  0.00    -0.357 OA
HETATM   23  H11         0      24.535  91.690 -19.426  1.00  0.00     0.218 HD
ENDBRANCH  18  22
ENDBRANCH   4  14
BRANCH   8  24
HETATM   24  O17         0      29.922  90.180 -12.546  1.00  0.00    -0.359 OA
HETATM   25  H17         0      29.745  89.532 -13.218  1.00  0.00     0.218 HD
ENDBRANCH   8  24
TORSDOF 5
ENDMDL
MODEL 2
REMARK VINA RESULT:      -5.7      4.965      7.389
REMARK  5 active torsions:
REMARK  status: ('A' for Active; 'I' for Inactive)
REMARK    1  A    between atoms: C4_4  and  C5_5 
REMARK    2  A    between atoms: C8_8  and  O9_9 
REMARK    3  A    between atoms: C10_11  and  O11_12 
REMARK    4  A    between atoms: C16_18  and  O17_19 
REMARK    5  A    between atoms: C19_22  and  O20_23 
ROOT
HETATM    1  O1          0      27.246  92.788 -18.743  1.00  0.00    -0.286 OA
HETATM    2  C2          0      26.692  92.396 -19.806  1.00  0.00     0.201 C 
HETATM    3  C3          0      27.398  92.137 -20.968  1.00  0.00     0.067 C 
HETATM    4  C4          0      26.753  91.804 -22.154  1.00  0.00     0.103 C 
HETATM    5  O13         0      25.435  91.717 -22.156  1.00  0.00    -0.307 OA
HETATM    6  C14         0      24.714  91.989 -21.090  1.00  0.00     0.107 C 
HETATM    7  C15         0      23.362  92.288 -21.178  1.00  0.00     0.049 C 
HETATM    8  C16         0      22.669  92.819 -20.097  1.00  0.00     0.093 C 
HETATM    9  C18         0      23.217  92.536 -18.852  1.00  0.00     0.048 C 
HETATM   10  C19         0      24.555  92.187 -18.733  1.00  0.00     0.096 C 
HETATM   11  C21         0      25.338  92.105 -19.852  1.00  0.00     0.084 C 
ENDROOT
BRANCH  10  12
HETATM   12  O20         0      25.189  92.333 -17.503  1.00  0.00    -0.359 OA
HETATM   13  H20         0      24.696  92.722 -16.791  1.00  0.00     0.218 HD
ENDBRANCH  10  12
BRANCH   4  14
HETATM   14  C5          0      27.439  92.133 -23.405  1.00  0.00     0.025 C 
HETATM   15  C6          0      28.776  91.835 -23.630  1.00  0.00     0.004 C 
HETATM   16  C7          0      29.136  91.412 -24.905  1.00  0.00     0.026 C 
HETATM   17  C8          0      28.227  91.413 -25.958  1.00  0.00     0.112 C 
HETATM   18  C10         0      27.161  92.290 -25.803  1.00  0.00     0.112 C 
HETATM   19  C12         0      26.768  92.629 -24.514  1.00  0.00     0.028 C 
BRANCH  17  20
HETATM   20  O9          0      28.295  90.455 -26.954  1.00  0.00    -0.357 OA
HETATM   21  H9          0      27.547  89.954 -27.257  1.00  0.00     0.218 HD
ENDBRANCH  17  20
BRANCH  18  22
HETATM   22  O11         0      26.331  92.469 -26.900  1.00  0.00    -0.357 OA
HETATM   23  H11         0      25.515  91.981 -26.907  1.00  0.00     0.218 HD
ENDBRANCH  18  22
ENDBRANCH   4  14
BRANCH   8  24
HETATM   24  O17         0      21.712  93.826 -20.268  1.00  0.00    -0.359 OA
HETATM   25  H17         0      21.939  94.674 -20.629  1.00  0.00     0.218 HD
ENDBRANCH   8  24
TORSDOF 5
ENDMDL
MODEL 3
REMARK VINA RESULT:      -5.3      6.910      9.363
REMARK  5 active torsions:
REMARK  status: ('A' for Active; 'I' for Inactive)
REMARK    1  A    between atoms: C4_4  and  C5_5 
REMARK    2  A    between atoms: C8_8  and  O9_9 
REMARK    3  A    between atoms: C10_11  and  O11_12 
REMARK    4  A    between atoms: C16_18  and  O17_19 
REMARK    5  A    between atoms: C19_22  and  O20_23 
ROOT
HETATM    1  O1          0      17.170  91.801 -21.118  1.00  0.00    -0.286 OA
HETATM    2  C2          0      18.026  92.237 -20.301  1.00  0.00     0.201 C 
HETATM    3  C3          0      19.212  92.830 -20.701  1.00  0.00     0.067 C 
HETATM    4  C4          0      20.183  93.209 -19.781  1.00  0.00     0.103 C 
HETATM    5  O13         0      19.951  93.013 -18.495  1.00  0.00    -0.307 OA
HETATM    6  C14         0      18.859  92.421 -18.065  1.00  0.00     0.107 C 
HETATM    7  C15         0      18.783  91.859 -16.798  1.00  0.00     0.049 C 
HETATM    8  C16         0      17.734  91.020 -16.443  1.00  0.00     0.093 C 
HETATM    9  C18         0      16.564  91.203 -17.170  1.00  0.00     0.048 C 
HETATM   10  C19         0      16.598  91.804 -18.421  1.00  0.00     0.096 C 
HETATM   11  C21         0      17.790  92.236 -18.935  1.00  0.00     0.084 C 
ENDROOT
BRANCH  10  12
HETATM   12  O20         0      15.544  91.595 -19.305  1.00  0.00    -0.359 OA
HETATM   13  H20         0      15.331  92.289 -19.917  1.00  0.00     0.218 HD
ENDBRANCH  10  12
BRANCH   4  14
HETATM   14  C5          0      21.570  93.248 -20.249  1.00  0.00     0.025 C 
HETATM   15  C6          0      22.631  93.601 -19.429  1.00  0.00     0.004 C 
HETATM   16  C7          0      23.826  92.905 -19.585  1.00  0.00     0.026 C 
HETATM   17  C8          0      24.005  91.984 -20.611  1.00  0.00     0.112 C 
HETATM   18  C10         0      23.171  92.166 -21.706  1.00  0.00     0.112 C 
HETATM   19  C12         0      21.944  92.789 -21.506  1.00  0.00     0.028 C 
BRANCH  17  20
HETATM   20  O9          0      24.803  90.868 -20.431  1.00  0.00    -0.357 OA
HETATM   21  H9          0      25.752  90.895 -20.413  1.00  0.00     0.218 HD
ENDBRANCH  17  20
BRANCH  18  22
HETATM   22  O11         0      23.433  91.397 -22.831  1.00  0.00    -0.357 OA
HETATM   23  H11         0      22.684  91.104 -23.336  1.00  0.00     0.218 HD
ENDBRANCH  18  22
ENDBRANCH   4  14
BRANCH   8  24
HETATM   24  O17         0      17.946  89.875 -15.666  1.00  0.00    -0.359 OA
HETATM   25  H17         0      18.717  89.332 -15.779  1.00  0.00     0.218 HD
ENDBRANCH   8  24
TORSDOF 5
ENDMDL
MODEL 4
REMARK VINA RESULT:      -5.2     11.880     14.206
REMARK  5 active torsions:
REMARK  status: ('A' for Active; 'I' for Inactive)
REMARK    1  A    between atoms: C4_4  and  C5_5 
REMARK    2  A    between atoms: C8_8  and  O9_9 
REMARK    3  A    between atoms: C10_11  and  O11_12 
REMARK    4  A    between atoms: C16_18  and  O17_19 
REMARK    5  A    between atoms: C19_22  and  O20_23 
ROOT
HETATM    1  O1          0      14.621  93.587 -17.253  1.00  0.00    -0.286 OA
HETATM    2  C2          0      14.746  92.400 -16.843  1.00  0.00     0.201 C 
HETATM    3  C3          0      13.837  91.801 -15.988  1.00  0.00     0.067 C 
HETATM    4  C4          0      14.053  90.529 -15.470  1.00  0.00     0.103 C 
HETATM    5  O13         0      15.145  89.876 -15.826  1.00  0.00    -0.307 OA
HETATM    6  C14         0      16.058  90.413 -16.605  1.00  0.00     0.107 C 
HETATM    7  C15         0      17.354  89.921 -16.659  1.00  0.00     0.049 C 
HETATM    8  C16         0      18.373  90.636 -17.278  1.00  0.00     0.093 C 
HETATM    9  C18         0      17.951  91.532 -18.252  1.00  0.00     0.048 C 
HETATM   10  C19         0      16.647  92.009 -18.256  1.00  0.00     0.096 C 
HETATM   11  C21         0      15.765  91.579 -17.303  1.00  0.00     0.084 C 
ENDROOT
BRANCH  10  12
HETATM   12  O20         0      16.358  93.193 -18.927  1.00  0.00    -0.359 OA
HETATM   13  H20         0      16.214  93.975 -18.408  1.00  0.00     0.218 HD
ENDBRANCH  10  12
BRANCH   4  14
HETATM   14  C5          0      13.433  90.216 -14.182  1.00  0.00     0.025 C 
HETATM   15  C6          0      14.158  90.109 -13.004  1.00  0.00     0.004 C 
HETATM   16  C7          0      13.577  90.605 -11.841  1.00  0.00     0.026 C 
HETATM   17  C8          0      12.266  91.069 -11.822  1.00  0.00     0.112 C 
HETATM   18  C10         0      11.456  90.561 -12.829  1.00  0.00     0.112 C 
HETATM   19  C12         0      12.055  90.151 -14.015  1.00  0.00     0.028 C 
BRANCH  17  20
HETATM   20  O9          0      11.894  92.109 -10.989  1.00  0.00    -0.357 OA
HETATM   21  H9          0      11.806  93.011 -11.276  1.00  0.00     0.218 HD
ENDBRANCH  17  20
BRANCH  18  22
HETATM   22  O11         0      10.100  90.841 -12.746  1.00  0.00    -0.357 OA
HETATM   23  H11         0       9.758  91.497 -13.343  1.00  0.00     0.218 HD
ENDBRANCH  18  22
ENDBRANCH   4  14
BRANCH   8  24
HETATM   24  O17         0      19.660  90.693 -16.732  1.00  0.00    -0.359 OA
HETATM   25  H17         0      20.296  91.337 -17.021  1.00  0.00     0.218 HD
ENDBRANCH   8  24
TORSDOF 5
ENDMDL
MODEL 5
REMARK VINA RESULT:      -5.1     11.338     13.060
REMARK  5 active torsions:
REMARK  status: ('A' for Active; 'I' for Inactive)
REMARK    1  A    between atoms: C4_4  and  C5_5 
REMARK    2  A    between atoms: C8_8  and  O9_9 
REMARK    3  A    between atoms: C10_11  and  O11_12 
REMARK    4  A    between atoms: C16_18  and  O17_19 
REMARK    5  A    between atoms: C19_22  and  O20_23 
ROOT
HETATM    1  O1          0      12.659  89.875 -16.273  1.00  0.00    -0.286 OA
HETATM    2  C2          0      13.458  90.684 -15.728  1.00  0.00     0.201 C 
HETATM    3  C3          0      14.713  90.962 -16.243  1.00  0.00     0.067 C 
HETATM    4  C4          0      15.614  91.778 -15.568  1.00  0.00     0.103 C 
HETATM    5  O13         0      15.246  92.314 -14.418  1.00  0.00    -0.307 OA
HETATM    6  C14         0      14.081  92.054 -13.866  1.00  0.00     0.107 C 
HETATM    7  C15         0      13.846  92.271 -12.516  1.00  0.00     0.049 C 
HETATM    8  C16         0      12.715  91.763 -11.889  1.00  0.00     0.093 C 
HETATM    9  C18         0      11.635  91.523 -12.731  1.00  0.00     0.048 C 
HETATM   10  C19         0      11.829  91.347 -14.094  1.00  0.00     0.096 C 
HETATM   11  C21         0      13.091  91.427 -14.616  1.00  0.00     0.084 C 
ENDROOT
BRANCH  10  12
HETATM   12  O20         0      10.854  90.692 -14.841  1.00  0.00    -0.359 OA
HETATM   13  H20         0      10.075  90.392 -14.389  1.00  0.00     0.218 HD
ENDBRANCH  10  12
BRANCH   4  14
HETATM   14  C5          0      17.039  91.553 -15.817  1.00  0.00     0.025 C 
HETATM   15  C6          0      17.513  90.470 -16.543  1.00  0.00     0.004 C 
HETATM   16  C7          0      18.595  90.686 -17.390  1.00  0.00     0.026 C 
HETATM   17  C8          0      19.269  91.903 -17.416  1.00  0.00     0.112 C 
HETATM   18  C10         0      19.144  92.660 -16.259  1.00  0.00     0.112 C 
HETATM   19  C12         0      18.011  92.484 -15.475  1.00  0.00     0.028 C 
BRANCH  17  20
HETATM   20  O9          0      19.827  92.378 -18.590  1.00  0.00    -0.357 OA
HETATM   21  H9          0      19.696  93.261 -18.917  1.00  0.00     0.218 HD
ENDBRANCH  17  20
BRANCH  18  22
HETATM   22  O11         0      19.945  93.789 -16.158  1.00  0.00    -0.357 OA
HETATM   23  H11         0      20.695  93.733 -15.577  1.00  0.00     0.218 HD
ENDBRANCH  18  22
ENDBRANCH   4  14
BRANCH   8  24
HETATM   24  O17         0      12.775  91.225 -10.599  1.00  0.00    -0.359 OA
HETATM   25  H17         0      13.316  90.471 -10.398  1.00  0.00     0.218 HD
ENDBRANCH   8  24
TORSDOF 5
ENDMDL
MODEL 6
REMARK VINA RESULT:      -5.1     11.890     13.694
REMARK  5 active torsions:
REMARK  status: ('A' for Active; 'I' for Inactive)
REMARK    1  A    between atoms: C4_4  and  C5_5 
REMARK    2  A    between atoms: C8_8  and  O9_9 
REMARK    3  A    between atoms: C10_11  and  O11_12 
REMARK    4  A    between atoms: C16_18  and  O17_19 
REMARK    5  A    between atoms: C19_22  and  O20_23 
ROOT
HETATM    1  O1          0      14.156  90.598 -12.249  1.00  0.00    -0.286 OA
HETATM    2  C2          0      14.238  90.348 -13.483  1.00  0.00     0.201 C 
HETATM    3  C3          0      15.444  90.114 -14.122  1.00  0.00     0.067 C 
HETATM    4  C4          0      15.517  89.942 -15.500  1.00  0.00     0.103 C 
HETATM    5  O13         0      14.400  89.985 -16.205  1.00  0.00    -0.307 OA
HETATM    6  C14         0      13.234  90.242 -15.653  1.00  0.00     0.107 C 
HETATM    7  C15         0      12.151  90.679 -16.402  1.00  0.00     0.049 C 
HETATM    8  C16         0      11.011  91.189 -15.792  1.00  0.00     0.093 C 
HETATM    9  C18         0      10.798  90.754 -14.489  1.00  0.00     0.048 C 
HETATM   10  C19         0      11.851  90.267 -13.727  1.00  0.00     0.096 C 
HETATM   11  C21         0      13.106  90.197 -14.269  1.00  0.00     0.084 C 
ENDROOT
BRANCH  10  12
HETATM   12  O20         0      11.737  90.251 -12.341  1.00  0.00    -0.359 OA
HETATM   13  H20         0      11.126  90.855 -11.937  1.00  0.00     0.218 HD
ENDBRANCH  10  12
BRANCH   4  14
HETATM   14  C5          0      16.777  90.300 -16.153  1.00  0.00     0.025 C 
HETATM   15  C6          0      17.003  90.105 -17.508  1.00  0.00     0.004 C 
HETATM   16  C7          0      17.726  91.081 -18.188  1.00  0.00     0.026 C 
HETATM   17  C8          0      18.320  92.146 -17.520  1.00  0.00     0.112 C 
HETATM   18  C10         0      18.578  91.916 -16.175  1.00  0.00     0.112 C 
HETATM   19  C12         0      17.784  90.997 -15.498  1.00  0.00     0.028 C 
BRANCH  17  20
HETATM   20  O9          0      18.433  93.386 -18.122  1.00  0.00    -0.357 OA
HETATM   21  H9          0      19.124  93.615 -18.734  1.00  0.00     0.218 HD
ENDBRANCH  17  20
BRANCH  18  22
HETATM   22  O11         0      19.337  92.867 -15.508  1.00  0.00    -0.357 OA
HETATM   23  H11         0      18.876  93.629 -15.176  1.00  0.00     0.218 HD
ENDBRANCH  18  22
ENDBRANCH   4  14
BRANCH   8  24
HETATM   24  O17         0      10.335  92.295 -16.319  1.00  0.00    -0.359 OA
HETATM   25  H17         0      10.784  93.109 -16.511  1.00  0.00     0.218 HD
ENDBRANCH   8  24
TORSDOF 5
ENDMDL
MODEL 7
REMARK VINA RESULT:      -5.0      5.565      7.781
REMARK  5 active torsions:
REMARK  status: ('A' for Active; 'I' for Inactive)
REMARK    1  A    between atoms: C4_4  and  C5_5 
REMARK    2  A    between atoms: C8_8  and  O9_9 
REMARK    3  A    between atoms: C10_11  and  O11_12 
REMARK    4  A    between atoms: C16_18  and  O17_19 
REMARK    5  A    between atoms: C19_22  and  O20_23 
ROOT
HETATM    1  O1          0      24.534  93.256 -18.278  1.00  0.00    -0.286 OA
HETATM    2  C2          0      24.617  92.801 -19.452  1.00  0.00     0.201 C 
HETATM    3  C3          0      25.823  92.472 -20.046  1.00  0.00     0.067 C 
HETATM    4  C4          0      25.895  92.070 -21.375  1.00  0.00     0.103 C 
HETATM    5  O13         0      24.777  91.983 -22.073  1.00  0.00    -0.307 OA
HETATM    6  C14         0      23.610  92.319 -21.569  1.00  0.00     0.107 C 
HETATM    7  C15         0      22.522  92.614 -22.378  1.00  0.00     0.049 C 
HETATM    8  C16         0      21.378  93.209 -21.860  1.00  0.00     0.093 C 
HETATM    9  C18         0      21.171  93.001 -20.501  1.00  0.00     0.048 C 
HETATM   10  C19         0      22.230  92.659 -19.671  1.00  0.00     0.096 C 
HETATM   11  C21         0      23.484  92.509 -20.197  1.00  0.00     0.084 C 
ENDROOT
BRANCH  10  12
HETATM   12  O20         0      22.119  92.877 -18.302  1.00  0.00    -0.359 OA
HETATM   13  H20         0      21.422  93.445 -17.997  1.00  0.00     0.218 HD
ENDBRANCH  10  12
BRANCH   4  14
HETATM   14  C5          0      27.151  92.322 -22.084  1.00  0.00     0.025 C 
HETATM   15  C6          0      28.392  91.997 -21.555  1.00  0.00     0.004 C 
HETATM   16  C7          0      29.355  91.501 -22.428  1.00  0.00     0.026 C 
HETATM   17  C8          0      29.141  91.456 -23.801  1.00  0.00     0.112 C 
HETATM   18  C10         0      28.189  92.353 -24.269  1.00  0.00     0.112 C 
HETATM   19  C12         0      27.187  92.766 -23.399  1.00  0.00     0.028 C 
BRANCH  17  20
HETATM   20  O9          0      29.689  90.446 -24.571  1.00  0.00    -0.357 OA
HETATM   21  H9          0      29.531  89.521 -24.419  1.00  0.00     0.218 HD
ENDBRANCH  17  20
BRANCH  18  22
HETATM   22  O11         0      28.072  92.483 -25.646  1.00  0.00    -0.357 OA
HETATM   23  H11         0      28.780  92.131 -26.173  1.00  0.00     0.218 HD
ENDBRANCH  18  22
ENDBRANCH   4  14
BRANCH   8  24
HETATM   24  O17         0      20.691  94.204 -22.564  1.00  0.00    -0.359 OA
HETATM   25  H17         0      19.811  94.065 -22.894  1.00  0.00     0.218 HD
ENDBRANCH   8  24
TORSDOF 5
ENDMDL
MODEL 8
REMARK VINA RESULT:      -5.0      5.910      9.081
REMARK  5 active torsions:
REMARK  status: ('A' for Active; 'I' for Inactive)
REMARK    1  A    between atoms: C4_4  and  C5_5 
REMARK    2  A    between atoms: C8_8  and  O9_9 
REMARK    3  A    between atoms: C10_11  and  O11_12 
REMARK    4  A    between atoms: C16_18  and  O17_19 
REMARK    5  A    between atoms: C19_22  and  O20_23 
ROOT
HETATM    1  O1          0      24.200  91.574 -18.274  1.00  0.00    -0.286 OA
HETATM    2  C2          0      23.419  92.191 -19.050  1.00  0.00     0.201 C 
HETATM    3  C3          0      22.141  92.575 -18.679  1.00  0.00     0.067 C 
HETATM    4  C4          0      21.265  93.161 -19.585  1.00  0.00     0.103 C 
HETATM    5  O13         0      21.678  93.372 -20.822  1.00  0.00    -0.307 OA
HETATM    6  C14         0      22.867  92.992 -21.236  1.00  0.00     0.107 C 
HETATM    7  C15         0      23.158  92.840 -22.584  1.00  0.00     0.049 C 
HETATM    8  C16         0      24.318  92.202 -23.005  1.00  0.00     0.093 C 
HETATM    9  C18         0      25.363  92.219 -22.088  1.00  0.00     0.048 C 
HETATM   10  C19         0      25.112  92.415 -20.737  1.00  0.00     0.096 C 
HETATM   11  C21         0      23.828  92.611 -20.306  1.00  0.00     0.084 C 
ENDROOT
BRANCH  10  12
HETATM   12  O20         0      26.058  92.005 -19.803  1.00  0.00    -0.359 OA
HETATM   13  H20         0      25.762  91.477 -19.071  1.00  0.00     0.218 HD
ENDBRANCH  10  12
BRANCH   4  14
HETATM   14  C5          0      19.832  92.986 -19.341  1.00  0.00     0.025 C 
HETATM   15  C6          0      18.871  93.191 -20.320  1.00  0.00     0.004 C 
HETATM   16  C7          0      17.784  92.324 -20.348  1.00  0.00     0.026 C 
HETATM   17  C8          0      17.586  91.369 -19.356  1.00  0.00     0.112 C 
HETATM   18  C10         0      18.202  91.656 -18.145  1.00  0.00     0.112 C 
HETATM   19  C12         0      19.338  92.456 -18.155  1.00  0.00     0.028 C 
BRANCH  17  20
HETATM   20  O9          0      17.002  90.151 -19.652  1.00  0.00    -0.357 OA
HETATM   21  H9          0      17.046  89.737 -20.506  1.00  0.00     0.218 HD
ENDBRANCH  17  20
BRANCH  18  22
HETATM   22  O11         0      17.885  90.838 -17.070  1.00  0.00    -0.357 OA
HETATM   23  H11         0      18.287  91.049 -16.236  1.00  0.00     0.218 HD
ENDBRANCH  18  22
ENDBRANCH   4  14
BRANCH   8  24
HETATM   24  O17         0      24.316  91.333 -24.102  1.00  0.00    -0.359 OA
HETATM   25  H17         0      23.810  90.530 -24.102  1.00  0.00     0.218 HD
ENDBRANCH   8  24
TORSDOF 5
ENDMDL
MODEL 9
REMARK VINA RESULT:      -4.9      5.314      8.238
REMARK  5 active torsions:
REMARK  status: ('A' for Active; 'I' for Inactive)
REMARK    1  A    between atoms: C4_4  and  C5_5 
REMARK    2  A    between atoms: C8_8  and  O9_9 
REMARK    3  A    between atoms: C10_11  and  O11_12 
REMARK    4  A    between atoms: C16_18  and  O17_19 
REMARK    5  A    between atoms: C19_22  and  O20_23 
ROOT
HETATM    1  O1          0      19.950  93.522 -21.655  1.00  0.00    -0.286 OA
HETATM    2  C2          0      20.573  93.257 -20.591  1.00  0.00     0.201 C 
HETATM    3  C3          0      21.955  93.212 -20.521  1.00  0.00     0.067 C 
HETATM    4  C4          0      22.613  92.818 -19.362  1.00  0.00     0.103 C 
HETATM    5  O13         0      21.894  92.501 -18.300  1.00  0.00    -0.307 OA
HETATM    6  C14         0      20.579  92.491 -18.323  1.00  0.00     0.107 C 
HETATM    7  C15         0      19.837  91.794 -17.381  1.00  0.00     0.049 C 
HETATM    8  C16         0      18.475  91.575 -17.553  1.00  0.00     0.093 C 
HETATM    9  C18         0      17.832  92.495 -18.373  1.00  0.00     0.048 C 
HETATM   10  C19         0      18.552  93.243 -19.295  1.00  0.00     0.096 C 
HETATM   11  C21         0      19.908  93.086 -19.386  1.00  0.00     0.084 C 
ENDROOT
BRANCH  10  12
HETATM   12  O20         0      17.887  93.813 -20.376  1.00  0.00    -0.359 OA
HETATM   13  H20         0      18.064  93.464 -21.242  1.00  0.00     0.218 HD
ENDBRANCH  10  12
BRANCH   4  14
HETATM   14  C5          0      23.943  92.224 -19.516  1.00  0.00     0.025 C 
HETATM   15  C6          0      24.460  91.846 -20.746  1.00  0.00     0.004 C 
HETATM   16  C7          0      25.814  92.068 -20.973  1.00  0.00     0.026 C 
HETATM   17  C8          0      26.656  92.526 -19.966  1.00  0.00     0.112 C 
HETATM   18  C10         0      26.212  92.269 -18.676  1.00  0.00     0.112 C 
HETATM   19  C12         0      24.845  92.135 -18.463  1.00  0.00     0.028 C 
BRANCH  17  20
HETATM   20  O9          0      27.728  93.352 -20.259  1.00  0.00    -0.357 OA
HETATM   21  H9          0      28.301  93.727 -19.600  1.00  0.00     0.218 HD
ENDBRANCH  17  20
BRANCH  18  22
HETATM   22  O11         0      27.097  92.534 -17.641  1.00  0.00    -0.357 OA
HETATM   23  H11         0      26.720  92.752 -16.797  1.00  0.00     0.218 HD
ENDBRANCH  18  22
ENDBRANCH   4  14
BRANCH   8  24
HETATM   24  O17         0      17.884  90.353 -17.213  1.00  0.00    -0.359 OA
HETATM   25  H17         0      17.101  90.310 -16.678  1.00  0.00     0.218 HD
ENDBRANCH   8  24
TORSDOF 5
ENDMDL
