MODEL 1
REMARK VINA RESULT:      -6.6      0.000      0.000
REMARK  5 active torsions:
REMARK  status: ('A' for Active; 'I' for Inactive)
REMARK    1  A    between atoms: C4_4  and  C5_5 
REMARK    2  A    between atoms: C8_8  and  O9_9 
REMARK    3  A    between atoms: C10_11  and  O11_12 
REMARK    4  A    between atoms: C16_18  and  O17_19 
REMARK    5  A    between atoms: C19_22  and  O20_23 
ROOT
HETATM    1  O1          0      50.939  90.538 -24.334  1.00  0.00    -0.286 OA
HETATM    2  C2          0      51.739  91.036 -23.495  1.00  0.00     0.201 C 
HETATM    3  C3          0      51.478  92.215 -22.818  1.00  0.00     0.067 C 
HETATM    4  C4          0      52.421  92.796 -21.977  1.00  0.00     0.103 C 
HETATM    5  O13         0      53.582  92.188 -21.810  1.00  0.00    -0.307 OA
HETATM    6  C14         0      53.894  91.087 -22.456  1.00  0.00     0.107 C 
HETATM    7  C15         0      55.210  90.672 -22.601  1.00  0.00     0.049 C 
HETATM    8  C16         0      55.555  89.661 -23.491  1.00  0.00     0.093 C 
HETATM    9  C18         0      54.531  88.772 -23.794  1.00  0.00     0.048 C 
HETATM   10  C19         0      53.203  89.138 -23.616  1.00  0.00     0.096 C 
HETATM   11  C21         0      52.901  90.377 -23.123  1.00  0.00     0.084 C 
ENDROOT
BRANCH  10  12
HETATM   12  O20         0      52.210  88.450 -24.307  1.00  0.00    -0.359 OA
HETATM   13  H20         0      51.407  88.243 -23.843  1.00  0.00     0.218 HD
ENDBRANCH  10  12
BRANCH   4  14
HETATM   14  C5          0      52.351  94.247 -21.793  1.00  0.00     0.025 C 
HETATM   15  C6          0      53.406  94.992 -21.287  1.00  0.00     0.004 C 
HETATM   16  C7          0      53.634  96.247 -21.842  1.00  0.00     0.026 C 
HETATM   17  C8          0      52.763  96.801 -22.774  1.00  0.00     0.112 C 
HETATM   18  C10         0      51.471  96.295 -22.733  1.00  0.00     0.112 C 
HETATM   19  C12         0      51.282  95.005 -22.252  1.00  0.00     0.028 C 
BRANCH  17  20
HETATM   20  O9          0      53.233  97.626 -23.781  1.00  0.00    -0.357 OA
HETATM   21  H9          0      53.856  98.329 -23.639  1.00  0.00     0.218 HD
ENDBRANCH  17  20
BRANCH  18  22
HETATM   22  O11         0      50.518  96.941 -23.507  1.00  0.00    -0.357 OA
HETATM   23  H11         0      49.923  97.529 -23.056  1.00  0.00     0.218 HD
ENDBRANCH  18  22
ENDBRANCH   4  14
BRANCH   8  24
HETATM   24  O17         0      56.717  89.737 -24.266  1.00  0.00    -0.359 OA
HETATM   25  H17         0      56.688  89.970 -25.187  1.00  0.00     0.218 HD
ENDBRANCH   8  24
TORSDOF 5
ENDMDL
MODEL 2
REMARK VINA RESULT:      -6.6      1.928      7.006
REMARK  5 active torsions:
REMARK  status: ('A' for Active; 'I' for Inactive)
REMARK    1  A    between atoms: C4_4  and  C5_5 
REMARK    2  A    between atoms: C8_8  and  O9_9 
REMARK    3  A    between atoms: C10_11  and  O11_12 
REMARK    4  A    between atoms: C16_18  and  O17_19 
REMARK    5  A    between atoms: C19_22  and  O20_23 
ROOT
HETATM    1  O1          0      55.766  93.436 -20.710  1.00  0.00    -0.286 OA
HETATM    2  C2          0      54.851  92.789 -21.290  1.00  0.00     0.201 C 
HETATM    3  C3          0      54.953  91.438 -21.577  1.00  0.00     0.067 C 
HETATM    4  C4          0      53.975  90.773 -22.308  1.00  0.00     0.103 C 
HETATM    5  O13         0      52.917  91.451 -22.717  1.00  0.00    -0.307 OA
HETATM    6  C14         0      52.789  92.742 -22.504  1.00  0.00     0.107 C 
HETATM    7  C15         0      51.917  93.523 -23.249  1.00  0.00     0.049 C 
HETATM    8  C16         0      51.969  94.911 -23.199  1.00  0.00     0.093 C 
HETATM    9  C18         0      52.516  95.436 -22.035  1.00  0.00     0.048 C 
HETATM   10  C19         0      53.356  94.667 -21.241  1.00  0.00     0.096 C 
HETATM   11  C21         0      53.633  93.375 -21.598  1.00  0.00     0.084 C 
ENDROOT
BRANCH  10  12
HETATM   12  O20         0      54.223  95.299 -20.356  1.00  0.00    -0.359 OA
HETATM   13  H20         0      54.004  95.286 -19.432  1.00  0.00     0.218 HD
ENDBRANCH  10  12
BRANCH   4  14
HETATM   14  C5          0      54.393  89.594 -23.068  1.00  0.00     0.025 C 
HETATM   15  C6          0      55.692  89.414 -23.523  1.00  0.00     0.004 C 
HETATM   16  C7          0      56.218  88.126 -23.477  1.00  0.00     0.026 C 
HETATM   17  C8          0      55.438  87.032 -23.120  1.00  0.00     0.112 C 
HETATM   18  C10         0      54.073  87.207 -23.305  1.00  0.00     0.112 C 
HETATM   19  C12         0      53.561  88.499 -23.261  1.00  0.00     0.028 C 
BRANCH  17  20
HETATM   20  O9          0      55.989  85.960 -22.441  1.00  0.00    -0.357 OA
HETATM   21  H9          0      56.335  86.016 -21.558  1.00  0.00     0.218 HD
ENDBRANCH  17  20
BRANCH  18  22
HETATM   22  O11         0      53.268  86.088 -23.145  1.00  0.00    -0.357 OA
HETATM   23  H11         0      53.681  85.308 -22.794  1.00  0.00     0.218 HD
ENDBRANCH  18  22
ENDBRANCH   4  14
BRANCH   8  24
HETATM   24  O17         0      51.802  95.689 -24.350  1.00  0.00    -0.359 OA
HETATM   25  H17         0      52.100  95.391 -25.201  1.00  0.00     0.218 HD
ENDBRANCH   8  24
TORSDOF 5
ENDMDL
MODEL 3
REMARK VINA RESULT:      -6.3      1.994      3.608
REMARK  5 active torsions:
REMARK  status: ('A' for Active; 'I' for Inactive)
REMARK    1  A    between atoms: C4_4  and  C5_5 
REMARK    2  A    between atoms: C8_8  and  O9_9 
REMARK    3  A    between atoms: C10_11  and  O11_12 
REMARK    4  A    between atoms: C16_18  and  O17_19 
REMARK    5  A    between atoms: C19_22  and  O20_23 
ROOT
HETATM    1  O1          0      57.011  89.340 -20.820  1.00  0.00    -0.286 OA
HETATM    2  C2          0      56.115  89.716 -21.625  1.00  0.00     0.201 C 
HETATM    3  C3          0      55.654  91.020 -21.678  1.00  0.00     0.067 C 
HETATM    4  C4          0      54.595  91.385 -22.502  1.00  0.00     0.103 C 
HETATM    5  O13         0      54.037  90.462 -23.265  1.00  0.00    -0.307 OA
HETATM    6  C14         0      54.412  89.202 -23.226  1.00  0.00     0.107 C 
HETATM    7  C15         0      53.598  88.182 -23.698  1.00  0.00     0.049 C 
HETATM    8  C16         0      53.881  86.849 -23.426  1.00  0.00     0.093 C 
HETATM    9  C18         0      55.216  86.576 -23.155  1.00  0.00     0.048 C 
HETATM   10  C19         0      56.070  87.583 -22.726  1.00  0.00     0.096 C 
HETATM   11  C21         0      55.597  88.859 -22.584  1.00  0.00     0.084 C 
ENDROOT
BRANCH  10  12
HETATM   12  O20         0      57.240  87.243 -22.056  1.00  0.00    -0.359 OA
HETATM   13  H20         0      58.059  87.596 -22.382  1.00  0.00     0.218 HD
ENDBRANCH  10  12
BRANCH   4  14
HETATM   14  C5          0      53.794  92.540 -22.092  1.00  0.00     0.025 C 
HETATM   15  C6          0      54.319  93.820 -21.985  1.00  0.00     0.004 C 
HETATM   16  C7          0      53.515  94.881 -22.388  1.00  0.00     0.026 C 
HETATM   17  C8          0      52.188  94.692 -22.758  1.00  0.00     0.112 C 
HETATM   18  C10         0      51.599  93.547 -22.239  1.00  0.00     0.112 C 
HETATM   19  C12         0      52.417  92.468 -21.924  1.00  0.00     0.028 C 
BRANCH  17  20
HETATM   20  O9          0      51.604  95.482 -23.733  1.00  0.00    -0.357 OA
HETATM   21  H9          0      51.907  96.355 -23.956  1.00  0.00     0.218 HD
ENDBRANCH  17  20
BRANCH  18  22
HETATM   22  O11         0      50.230  93.407 -22.420  1.00  0.00    -0.357 OA
HETATM   23  H11         0      49.931  92.605 -22.832  1.00  0.00     0.218 HD
ENDBRANCH  18  22
ENDBRANCH   4  14
BRANCH   8  24
HETATM   24  O17         0      52.866  85.937 -23.117  1.00  0.00    -0.359 OA
HETATM   25  H17         0      52.634  85.734 -22.218  1.00  0.00     0.218 HD
ENDBRANCH   8  24
TORSDOF 5
ENDMDL
MODEL 4
REMARK VINA RESULT:      -6.2      1.660      2.044
REMARK  5 active torsions:
REMARK  status: ('A' for Active; 'I' for Inactive)
REMARK    1  A    between atoms: C4_4  and  C5_5 
REMARK    2  A    between atoms: C8_8  and  O9_9 
REMARK    3  A    between atoms: C10_11  and  O11_12 
REMARK    4  A    between atoms: C16_18  and  O17_19 
REMARK    5  A    between atoms: C19_22  and  O20_23 
ROOT
HETATM    1  O1          0      52.171  88.734 -24.377  1.00  0.00    -0.286 OA
HETATM    2  C2          0      52.857  89.357 -23.521  1.00  0.00     0.201 C 
HETATM    3  C3          0      52.550  90.641 -23.103  1.00  0.00     0.067 C 
HETATM    4  C4          0      53.380  91.342 -22.236  1.00  0.00     0.103 C 
HETATM    5  O13         0      54.475  90.752 -21.788  1.00  0.00    -0.307 OA
HETATM    6  C14         0      54.831  89.549 -22.182  1.00  0.00     0.107 C 
HETATM    7  C15         0      56.134  89.093 -22.047  1.00  0.00     0.049 C 
HETATM    8  C16         0      56.563  87.936 -22.687  1.00  0.00     0.093 C 
HETATM    9  C18         0      55.558  87.026 -22.991  1.00  0.00     0.048 C 
HETATM   10  C19         0      54.237  87.441 -23.088  1.00  0.00     0.096 C 
HETATM   11  C21         0      53.919  88.753 -22.866  1.00  0.00     0.084 C 
ENDROOT
BRANCH  10  12
HETATM   12  O20         0      53.329  86.661 -23.798  1.00  0.00    -0.359 OA
HETATM   13  H20         0      53.496  86.514 -24.721  1.00  0.00     0.218 HD
ENDBRANCH  10  12
BRANCH   4  14
HETATM   14  C5          0      53.349  92.804 -22.314  1.00  0.00     0.025 C 
HETATM   15  C6          0      54.346  93.545 -22.931  1.00  0.00     0.004 C 
HETATM   16  C7          0      53.959  94.663 -23.663  1.00  0.00     0.026 C 
HETATM   17  C8          0      52.641  95.109 -23.672  1.00  0.00     0.112 C 
HETATM   18  C10         0      51.889  94.716 -22.573  1.00  0.00     0.112 C 
HETATM   19  C12         0      52.247  93.548 -21.911  1.00  0.00     0.028 C 
BRANCH  17  20
HETATM   20  O9          0      52.103  95.707 -24.798  1.00  0.00    -0.357 OA
HETATM   21  H9          0      51.359  95.359 -25.275  1.00  0.00     0.218 HD
ENDBRANCH  17  20
BRANCH  18  22
HETATM   22  O11         0      50.631  95.285 -22.437  1.00  0.00    -0.357 OA
HETATM   23  H11         0      50.426  95.679 -21.597  1.00  0.00     0.218 HD
ENDBRANCH  18  22
ENDBRANCH   4  14
BRANCH   8  24
HETATM   24  O17         0      57.831  87.855 -23.273  1.00  0.00    -0.359 OA
HETATM   25  H17         0      58.625  87.901 -22.754  1.00  0.00     0.218 HD
ENDBRANCH   8  24
TORSDOF 5
ENDMDL
MODEL 5
REMARK VINA RESULT:      -6.1      4.221      8.178
REMARK  5 active torsions:
REMARK  status: ('A' for Active; 'I' for Inactive)
REMARK    1  A    between atoms: C4_4  and  C5_5 
REMARK    2  A    between atoms: C8_8  and  O9_9 
REMARK    3  A    between atoms: C10_11  and  O11_12 
REMARK    4  A    between atoms: C16_18  and  O17_19 
REMARK    5  A    between atoms: C19_22  and  O20_23 
ROOT
HETATM    1  O1          0      57.153  91.564 -21.414  1.00  0.00    -0.286 OA
HETATM    2  C2          0      57.113  90.616 -22.246  1.00  0.00     0.201 C 
HETATM    3  C3          0      58.215  90.216 -22.981  1.00  0.00     0.067 C 
HETATM    4  C4          0      58.119  89.238 -23.965  1.00  0.00     0.103 C 
HETATM    5  O13         0      56.946  88.669 -24.182  1.00  0.00    -0.307 OA
HETATM    6  C14         0      55.861  89.038 -23.538  1.00  0.00     0.107 C 
HETATM    7  C15         0      54.592  88.751 -24.020  1.00  0.00     0.049 C 
HETATM    8  C16         0      53.461  89.354 -23.482  1.00  0.00     0.093 C 
HETATM    9  C18         0      53.600  89.798 -22.173  1.00  0.00     0.048 C 
HETATM   10  C19         0      54.858  90.051 -21.643  1.00  0.00     0.096 C 
HETATM   11  C21         0      55.972  89.846 -22.411  1.00  0.00     0.084 C 
ENDROOT
BRANCH  10  12
HETATM   12  O20         0      54.975  90.884 -20.535  1.00  0.00    -0.359 OA
HETATM   13  H20         0      54.624  90.577 -19.708  1.00  0.00     0.218 HD
ENDBRANCH  10  12
BRANCH   4  14
HETATM   14  C5          0      59.090  89.292 -25.059  1.00  0.00     0.025 C 
HETATM   15  C6          0      60.422  89.626 -24.867  1.00  0.00     0.004 C 
HETATM   16  C7          0      61.374  88.938 -25.614  1.00  0.00     0.026 C 
HETATM   17  C8          0      61.008  88.044 -26.614  1.00  0.00     0.112 C 
HETATM   18  C10         0      59.742  88.253 -27.145  1.00  0.00     0.112 C 
HETATM   19  C12         0      58.785  88.867 -26.346  1.00  0.00     0.028 C 
BRANCH  17  20
HETATM   20  O9          0      61.778  86.926 -26.881  1.00  0.00    -0.357 OA
HETATM   21  H9          0      61.741  86.442 -27.698  1.00  0.00     0.218 HD
ENDBRANCH  17  20
BRANCH  18  22
HETATM   22  O11         0      59.402  87.514 -28.269  1.00  0.00    -0.357 OA
HETATM   23  H11         0      59.582  87.910 -29.114  1.00  0.00     0.218 HD
ENDBRANCH  18  22
ENDBRANCH   4  14
BRANCH   8  24
HETATM   24  O17         0      52.405  89.779 -24.295  1.00  0.00    -0.359 OA
HETATM   25  H17         0      51.517  89.846 -23.965  1.00  0.00     0.218 HD
ENDBRANCH   8  24
TORSDOF 5
ENDMDL
MODEL 6
REMARK VINA RESULT:      -6.1      3.969      7.176
REMARK  5 active torsions:
REMARK  status: ('A' for Active; 'I' for Inactive)
REMARK    1  A    between atoms: C4_4  and  C5_5 
REMARK    2  A    between atoms: C8_8  and  O9_9 
REMARK    3  A    between atoms: C10_11  and  O11_12 
REMARK    4  A    between atoms: C16_18  and  O17_19 
REMARK    5  A    between atoms: C19_22  and  O20_23 
ROOT
HETATM    1  O1          0      60.011  87.327 -22.310  1.00  0.00    -0.286 OA
HETATM    2  C2          0      59.202  88.041 -22.963  1.00  0.00     0.201 C 
HETATM    3  C3          0      57.981  88.450 -22.453  1.00  0.00     0.067 C 
HETATM    4  C4          0      57.065  89.150 -23.230  1.00  0.00     0.103 C 
HETATM    5  O13         0      57.384  89.444 -24.478  1.00  0.00    -0.307 OA
HETATM    6  C14         0      58.514  89.048 -25.022  1.00  0.00     0.107 C 
HETATM    7  C15         0      58.683  88.996 -26.398  1.00  0.00     0.049 C 
HETATM    8  C16         0      59.770  88.343 -26.968  1.00  0.00     0.093 C 
HETATM    9  C18         0      60.886  88.236 -26.147  1.00  0.00     0.048 C 
HETATM   10  C19         0      60.759  88.329 -24.767  1.00  0.00     0.096 C 
HETATM   11  C21         0      59.527  88.546 -24.212  1.00  0.00     0.084 C 
ENDROOT
BRANCH  10  12
HETATM   12  O20         0      61.757  87.800 -23.955  1.00  0.00    -0.359 OA
HETATM   13  H20         0      61.690  87.942 -23.018  1.00  0.00     0.218 HD
ENDBRANCH  10  12
BRANCH   4  14
HETATM   14  C5          0      55.650  89.019 -22.876  1.00  0.00     0.025 C 
HETATM   15  C6          0      55.007  89.893 -22.012  1.00  0.00     0.004 C 
HETATM   16  C7          0      53.696  90.248 -22.311  1.00  0.00     0.026 C 
HETATM   17  C8          0      53.000  89.652 -23.357  1.00  0.00     0.112 C 
HETATM   18  C10         0      53.472  88.401 -23.730  1.00  0.00     0.112 C 
HETATM   19  C12         0      54.809  88.103 -23.496  1.00  0.00     0.028 C 
BRANCH  17  20
HETATM   20  O9          0      52.061  90.366 -24.081  1.00  0.00    -0.357 OA
HETATM   21  H9          0      52.175  91.271 -24.345  1.00  0.00     0.218 HD
ENDBRANCH  17  20
BRANCH  18  22
HETATM   22  O11         0      52.704  87.683 -24.635  1.00  0.00    -0.357 OA
HETATM   23  H11         0      53.070  86.868 -24.959  1.00  0.00     0.218 HD
ENDBRANCH  18  22
ENDBRANCH   4  14
BRANCH   8  24
HETATM   24  O17         0      59.632  87.571 -28.126  1.00  0.00    -0.359 OA
HETATM   25  H17         0      59.742  87.945 -28.992  1.00  0.00     0.218 HD
ENDBRANCH   8  24
TORSDOF 5
ENDMDL
MODEL 7
REMARK VINA RESULT:      -5.4      6.139      9.203
REMARK  5 active torsions:
REMARK  status: ('A' for Active; 'I' for Inactive)
REMARK    1  A    between atoms: C4_4  and  C5_5 
REMARK    2  A    between atoms: C8_8  and  O9_9 
REMARK    3  A    between atoms: C10_11  and  O11_12 
REMARK    4  A    between atoms: C16_18  and  O17_19 
REMARK    5  A    between atoms: C19_22  and  O20_23 
ROOT
HETATM    1  O1          0      60.482  91.184 -26.813  1.00  0.00    -0.286 OA
HETATM    2  C2          0      60.097  90.049 -26.419  1.00  0.00     0.201 C 
HETATM    3  C3          0      58.867  89.841 -25.818  1.00  0.00     0.067 C 
HETATM    4  C4          0      58.510  88.601 -25.300  1.00  0.00     0.103 C 
HETATM    5  O13         0      59.364  87.598 -25.408  1.00  0.00    -0.307 OA
HETATM    6  C14         0      60.559  87.751 -25.935  1.00  0.00     0.107 C 
HETATM    7  C15         0      61.585  86.848 -25.696  1.00  0.00     0.049 C 
HETATM    8  C16         0      62.899  87.141 -26.039  1.00  0.00     0.093 C 
HETATM    9  C18         0      63.046  88.073 -27.059  1.00  0.00     0.048 C 
HETATM   10  C19         0      62.021  88.961 -27.356  1.00  0.00     0.096 C 
HETATM   11  C21         0      60.851  88.908 -26.649  1.00  0.00     0.084 C 
ENDROOT
BRANCH  10  12
HETATM   12  O20         0      62.316  90.135 -28.043  1.00  0.00    -0.359 OA
HETATM   13  H20         0      63.122  90.588 -27.824  1.00  0.00     0.218 HD
ENDBRANCH  10  12
BRANCH   4  14
HETATM   14  C5          0      57.541  88.587 -24.203  1.00  0.00     0.025 C 
HETATM   15  C6          0      56.297  89.195 -24.290  1.00  0.00     0.004 C 
HETATM   16  C7          0      55.219  88.545 -23.698  1.00  0.00     0.026 C 
HETATM   17  C8          0      55.391  87.399 -22.929  1.00  0.00     0.112 C 
HETATM   18  C10         0      56.662  87.248 -22.390  1.00  0.00     0.112 C 
HETATM   19  C12         0      57.734  87.837 -23.050  1.00  0.00     0.028 C 
BRANCH  17  20
HETATM   20  O9          0      54.423  86.411 -22.904  1.00  0.00    -0.357 OA
HETATM   21  H9          0      53.511  86.570 -22.688  1.00  0.00     0.218 HD
ENDBRANCH  17  20
BRANCH  18  22
HETATM   22  O11         0      56.835  86.228 -21.465  1.00  0.00    -0.357 OA
HETATM   23  H11         0      56.050  85.790 -21.156  1.00  0.00     0.218 HD
ENDBRANCH  18  22
ENDBRANCH   4  14
BRANCH   8  24
HETATM   24  O17         0      63.966  86.789 -25.204  1.00  0.00    -0.359 OA
HETATM   25  H17         0      64.764  86.406 -25.549  1.00  0.00     0.218 HD
ENDBRANCH   8  24
TORSDOF 5
ENDMDL
MODEL 8
REMARK VINA RESULT:      -5.4      4.703      7.711
REMARK  5 active torsions:
REMARK  status: ('A' for Active; 'I' for Inactive)
REMARK    1  A    between atoms: C4_4  and  C5_5 
REMARK    2  A    between atoms: C8_8  and  O9_9 
REMARK    3  A    between atoms: C10_11  and  O11_12 
REMARK    4  A    between atoms: C16_18  and  O17_19 
REMARK    5  A    between atoms: C19_22  and  O20_23 
ROOT
HETATM    1  O1          0      60.145  91.328 -22.841  1.00  0.00    -0.286 OA
HETATM    2  C2          0      59.362  90.601 -23.513  1.00  0.00     0.201 C 
HETATM    3  C3          0      57.995  90.568 -23.293  1.00  0.00     0.067 C 
HETATM    4  C4          0      57.169  89.683 -23.977  1.00  0.00     0.103 C 
HETATM    5  O13         0      57.708  88.872 -24.870  1.00  0.00    -0.307 OA
HETATM    6  C14         0      59.005  88.837 -25.090  1.00  0.00     0.107 C 
HETATM    7  C15         0      59.613  87.751 -25.703  1.00  0.00     0.049 C 
HETATM    8  C16         0      60.994  87.603 -25.703  1.00  0.00     0.093 C 
HETATM    9  C18         0      61.711  88.785 -25.560  1.00  0.00     0.048 C 
HETATM   10  C19         0      61.119  89.905 -24.993  1.00  0.00     0.096 C 
HETATM   11  C21         0      59.813  89.850 -24.588  1.00  0.00     0.084 C 
ENDROOT
BRANCH  10  12
HETATM   12  O20         0      61.926  90.906 -24.462  1.00  0.00    -0.359 OA
HETATM   13  H20         0      62.353  91.501 -25.066  1.00  0.00     0.218 HD
ENDBRANCH  10  12
BRANCH   4  14
HETATM   14  C5          0      55.929  89.276 -23.314  1.00  0.00     0.025 C 
HETATM   15  C6          0      54.903  90.165 -23.027  1.00  0.00     0.004 C 
HETATM   16  C7          0      53.597  89.711 -23.179  1.00  0.00     0.026 C 
HETATM   17  C8          0      53.316  88.382 -23.475  1.00  0.00     0.112 C 
HETATM   18  C10         0      54.314  87.485 -23.119  1.00  0.00     0.112 C 
HETATM   19  C12         0      55.624  87.945 -23.057  1.00  0.00     0.028 C 
BRANCH  17  20
HETATM   20  O9          0      52.221  88.044 -24.252  1.00  0.00    -0.357 OA
HETATM   21  H9          0      52.045  88.418 -25.107  1.00  0.00     0.218 HD
ENDBRANCH  17  20
BRANCH  18  22
HETATM   22  O11         0      54.010  86.135 -23.217  1.00  0.00    -0.357 OA
HETATM   23  H11         0      53.524  85.858 -23.985  1.00  0.00     0.218 HD
ENDBRANCH  18  22
ENDBRANCH   4  14
BRANCH   8  24
HETATM   24  O17         0      61.594  86.352 -25.520  1.00  0.00    -0.359 OA
HETATM   25  H17         0      61.788  85.779 -26.253  1.00  0.00     0.218 HD
ENDBRANCH   8  24
TORSDOF 5
ENDMDL
MODEL 9
REMARK VINA RESULT:      -5.3      2.304      6.643
REMARK  5 active torsions:
REMARK  status: ('A' for Active; 'I' for Inactive)
REMARK    1  A    between atoms: C4_4  and  C5_5 
REMARK    2  A    between atoms: C8_8  and  O9_9 
REMARK    3  A    between atoms: C10_11  and  O11_12 
REMARK    4  A    between atoms: C16_18  and  O17_19 
REMARK    5  A    between atoms: C19_22  and  O20_23 
ROOT
HETATM    1  O1          0      56.019  95.699 -22.633  1.00  0.00    -0.286 OA
HETATM    2  C2          0      54.852  95.345 -22.954  1.00  0.00     0.201 C 
HETATM    3  C3          0      54.221  94.245 -22.398  1.00  0.00     0.067 C 
HETATM    4  C4          0      52.976  93.817 -22.843  1.00  0.00     0.103 C 
HETATM    5  O13         0      52.379  94.495 -23.807  1.00  0.00    -0.307 OA
HETATM    6  C14         0      52.949  95.524 -24.395  1.00  0.00     0.107 C 
HETATM    7  C15         0      52.531  95.981 -25.636  1.00  0.00     0.049 C 
HETATM    8  C16         0      53.289  96.892 -26.362  1.00  0.00     0.093 C 
HETATM    9  C18         0      54.137  97.688 -25.602  1.00  0.00     0.048 C 
HETATM   10  C19         0      54.538  97.283 -24.336  1.00  0.00     0.096 C 
HETATM   11  C21         0      54.080  96.099 -23.826  1.00  0.00     0.084 C 
ENDROOT
BRANCH  10  12
HETATM   12  O20         0      55.687  97.834 -23.778  1.00  0.00    -0.359 OA
HETATM   13  H20         0      56.351  98.169 -24.368  1.00  0.00     0.218 HD
ENDBRANCH  10  12
BRANCH   4  14
HETATM   14  C5          0      52.658  92.397 -22.679  1.00  0.00     0.025 C 
HETATM   15  C6          0      51.520  91.815 -23.217  1.00  0.00     0.004 C 
HETATM   16  C7          0      51.637  90.528 -23.734  1.00  0.00     0.026 C 
HETATM   17  C8          0      52.810  89.793 -23.601  1.00  0.00     0.112 C 
HETATM   18  C10         0      53.621  90.182 -22.544  1.00  0.00     0.112 C 
HETATM   19  C12         0      53.545  91.497 -22.102  1.00  0.00     0.028 C 
BRANCH  17  20
HETATM   20  O9          0      53.202  88.901 -24.584  1.00  0.00    -0.357 OA
HETATM   21  H9          0      53.654  89.158 -25.380  1.00  0.00     0.218 HD
ENDBRANCH  17  20
BRANCH  18  22
HETATM   22  O11         0      54.705  89.366 -22.251  1.00  0.00    -0.357 OA
HETATM   23  H11         0      55.488  89.487 -22.775  1.00  0.00     0.218 HD
ENDBRANCH  18  22
ENDBRANCH   4  14
BRANCH   8  24
HETATM   24  O17         0      53.433  96.779 -27.750  1.00  0.00    -0.359 OA
HETATM   25  H17         0      53.923  96.067 -28.144  1.00  0.00     0.218 HD
ENDBRANCH   8  24
TORSDOF 5
ENDMDL
