MODEL 1
REMARK VINA RESULT:      -5.2      0.000      0.000
REMARK  5 active torsions:
REMARK  status: ('A' for Active; 'I' for Inactive)
REMARK    1  A    between atoms: C4_4  and  C5_5 
REMARK    2  A    between atoms: C8_8  and  O9_9 
REMARK    3  A    between atoms: C10_11  and  O11_12 
REMARK    4  A    between atoms: C16_18  and  O17_19 
REMARK    5  A    between atoms: C19_22  and  O20_23 
ROOT
HETATM    1  O1          0      29.763  57.596  17.697  1.00  0.00    -0.286 OA
HETATM    2  C2          0      28.798  56.889  17.297  1.00  0.00     0.201 C 
HETATM    3  C3          0      28.861  55.508  17.221  1.00  0.00     0.067 C 
HETATM    4  C4          0      27.821  54.760  16.680  1.00  0.00     0.103 C 
HETATM    5  O13         0      26.743  55.391  16.248  1.00  0.00    -0.307 OA
HETATM    6  C14         0      26.649  56.703  16.262  1.00  0.00     0.107 C 
HETATM    7  C15         0      25.732  57.377  15.468  1.00  0.00     0.049 C 
HETATM    8  C16         0      25.805  58.754  15.293  1.00  0.00     0.093 C 
HETATM    9  C18         0      26.448  59.443  16.315  1.00  0.00     0.048 C 
HETATM   10  C19         0      27.335  58.787  17.157  1.00  0.00     0.096 C 
HETATM   11  C21         0      27.568  57.449  16.991  1.00  0.00     0.084 C 
ENDROOT
BRANCH  10  12
HETATM   12  O20         0      28.277  59.530  17.864  1.00  0.00    -0.359 OA
HETATM   13  H20         0      28.465  60.411  17.564  1.00  0.00     0.218 HD
ENDBRANCH  10  12
BRANCH   4  14
HETATM   14  C5          0      28.165  53.466  16.089  1.00  0.00     0.025 C 
HETATM   15  C6          0      29.456  52.959  16.086  1.00  0.00     0.004 C 
HETATM   16  C7          0      29.612  51.592  16.290  1.00  0.00     0.026 C 
HETATM   17  C8          0      28.519  50.735  16.359  1.00  0.00     0.112 C 
HETATM   18  C10         0      27.372  51.207  15.735  1.00  0.00     0.112 C 
HETATM   19  C12         0      27.201  52.582  15.621  1.00  0.00     0.028 C 
BRANCH  17  20
HETATM   20  O9          0      28.547  49.615  17.170  1.00  0.00    -0.357 OA
HETATM   21  H9          0      28.743  48.740  16.856  1.00  0.00     0.218 HD
ENDBRANCH  17  20
BRANCH  18  22
HETATM   22  O11         0      26.314  50.318  15.610  1.00  0.00    -0.357 OA
HETATM   23  H11         0      26.276  49.805  14.811  1.00  0.00     0.218 HD
ENDBRANCH  18  22
ENDBRANCH   4  14
BRANCH   8  24
HETATM   24  O17         0      25.561  59.345  14.048  1.00  0.00    -0.359 OA
HETATM   25  H17         0      24.810  59.102  13.519  1.00  0.00     0.218 HD
ENDBRANCH   8  24
TORSDOF 5
ENDMDL
MODEL 2
REMARK VINA RESULT:      -5.1      1.720      7.116
REMARK  5 active torsions:
REMARK  status: ('A' for Active; 'I' for Inactive)
REMARK    1  A    between atoms: C4_4  and  C5_5 
REMARK    2  A    between atoms: C8_8  and  O9_9 
REMARK    3  A    between atoms: C10_11  and  O11_12 
REMARK    4  A    between atoms: C16_18  and  O17_19 
REMARK    5  A    between atoms: C19_22  and  O20_23 
ROOT
HETATM    1  O1          0      25.830  51.551  16.533  1.00  0.00    -0.286 OA
HETATM    2  C2          0      26.961  52.105  16.464  1.00  0.00     0.201 C 
HETATM    3  C3          0      27.176  53.421  16.835  1.00  0.00     0.067 C 
HETATM    4  C4          0      28.409  54.037  16.653  1.00  0.00     0.103 C 
HETATM    5  O13         0      29.399  53.335  16.131  1.00  0.00    -0.307 OA
HETATM    6  C14         0      29.238  52.094  15.727  1.00  0.00     0.107 C 
HETATM    7  C15         0      30.117  51.495  14.837  1.00  0.00     0.049 C 
HETATM    8  C16         0      29.810  50.288  14.220  1.00  0.00     0.093 C 
HETATM    9  C18         0      28.901  49.493  14.907  1.00  0.00     0.048 C 
HETATM   10  C19         0      28.038  50.052  15.840  1.00  0.00     0.096 C 
HETATM   11  C21         0      28.094  51.395  16.097  1.00  0.00     0.084 C 
ENDROOT
BRANCH  10  12
HETATM   12  O20         0      26.877  49.369  16.187  1.00  0.00    -0.359 OA
HETATM   13  H20         0      26.044  49.746  15.930  1.00  0.00     0.218 HD
ENDBRANCH  10  12
BRANCH   4  14
HETATM   14  C5          0      28.412  55.492  16.486  1.00  0.00     0.025 C 
HETATM   15  C6          0      27.420  56.172  15.794  1.00  0.00     0.004 C 
HETATM   16  C7          0      27.010  57.402  16.299  1.00  0.00     0.026 C 
HETATM   17  C8          0      27.655  58.000  17.376  1.00  0.00     0.112 C 
HETATM   18  C10         0      28.965  57.582  17.573  1.00  0.00     0.112 C 
HETATM   19  C12         0      29.326  56.313  17.134  1.00  0.00     0.028 C 
BRANCH  17  20
HETATM   20  O9          0      26.954  58.779  18.279  1.00  0.00    -0.357 OA
HETATM   21  H9          0      26.410  59.517  18.029  1.00  0.00     0.218 HD
ENDBRANCH  17  20
BRANCH  18  22
HETATM   22  O11         0      29.713  58.279  18.510  1.00  0.00    -0.357 OA
HETATM   23  H11         0      29.567  59.217  18.566  1.00  0.00     0.218 HD
ENDBRANCH  18  22
ENDBRANCH   4  14
BRANCH   8  24
HETATM   24  O17         0      30.122  50.056  12.876  1.00  0.00    -0.359 OA
HETATM   25  H17         0      29.685  50.524  12.174  1.00  0.00     0.218 HD
ENDBRANCH   8  24
TORSDOF 5
ENDMDL
MODEL 3
REMARK VINA RESULT:      -4.6      1.673      3.200
REMARK  5 active torsions:
REMARK  status: ('A' for Active; 'I' for Inactive)
REMARK    1  A    between atoms: C4_4  and  C5_5 
REMARK    2  A    between atoms: C8_8  and  O9_9 
REMARK    3  A    between atoms: C10_11  and  O11_12 
REMARK    4  A    between atoms: C16_18  and  O17_19 
REMARK    5  A    between atoms: C19_22  and  O20_23 
ROOT
HETATM    1  O1          0      25.358  54.610  16.299  1.00  0.00    -0.286 OA
HETATM    2  C2          0      26.617  54.630  16.217  1.00  0.00     0.201 C 
HETATM    3  C3          0      27.363  53.519  15.859  1.00  0.00     0.067 C 
HETATM    4  C4          0      28.753  53.539  15.876  1.00  0.00     0.103 C 
HETATM    5  O13         0      29.367  54.656  16.223  1.00  0.00    -0.307 OA
HETATM    6  C14         0      28.708  55.727  16.607  1.00  0.00     0.107 C 
HETATM    7  C15         0      29.316  56.737  17.338  1.00  0.00     0.049 C 
HETATM    8  C16         0      28.567  57.732  17.956  1.00  0.00     0.093 C 
HETATM    9  C18         0      27.322  57.968  17.387  1.00  0.00     0.048 C 
HETATM   10  C19         0      26.705  56.996  16.611  1.00  0.00     0.096 C 
HETATM   11  C21         0      27.336  55.802  16.390  1.00  0.00     0.084 C 
ENDROOT
BRANCH  10  12
HETATM   12  O20         0      25.328  57.052  16.418  1.00  0.00    -0.359 OA
HETATM   13  H20         0      24.871  56.239  16.238  1.00  0.00     0.218 HD
ENDBRANCH  10  12
BRANCH   4  14
HETATM   14  C5          0      29.438  52.263  16.085  1.00  0.00     0.025 C 
HETATM   15  C6          0      29.489  51.630  17.319  1.00  0.00     0.004 C 
HETATM   16  C7          0      29.386  50.243  17.336  1.00  0.00     0.026 C 
HETATM   17  C8          0      29.368  49.498  16.162  1.00  0.00     0.112 C 
HETATM   18  C10         0      29.946  50.127  15.067  1.00  0.00     0.112 C 
HETATM   19  C12         0      29.959  51.517  15.036  1.00  0.00     0.028 C 
BRANCH  17  20
HETATM   20  O9          0      28.639  48.325  16.077  1.00  0.00    -0.357 OA
HETATM   21  H9          0      28.381  47.808  16.832  1.00  0.00     0.218 HD
ENDBRANCH  17  20
BRANCH  18  22
HETATM   22  O11         0      30.125  49.361  13.924  1.00  0.00    -0.357 OA
HETATM   23  H11         0      30.983  48.973  13.797  1.00  0.00     0.218 HD
ENDBRANCH  18  22
ENDBRANCH   4  14
BRANCH   8  24
HETATM   24  O17         0      28.895  58.206  19.231  1.00  0.00    -0.359 OA
HETATM   25  H17         0      28.227  58.435  19.866  1.00  0.00     0.218 HD
ENDBRANCH   8  24
TORSDOF 5
ENDMDL
MODEL 4
REMARK VINA RESULT:      -4.6      1.630      2.887
REMARK  5 active torsions:
REMARK  status: ('A' for Active; 'I' for Inactive)
REMARK    1  A    between atoms: C4_4  and  C5_5 
REMARK    2  A    between atoms: C8_8  and  O9_9 
REMARK    3  A    between atoms: C10_11  and  O11_12 
REMARK    4  A    between atoms: C16_18  and  O17_19 
REMARK    5  A    between atoms: C19_22  and  O20_23 
ROOT
HETATM    1  O1          0      24.835  55.832  16.917  1.00  0.00    -0.286 OA
HETATM    2  C2          0      26.005  55.497  16.584  1.00  0.00     0.201 C 
HETATM    3  C3          0      26.324  54.226  16.137  1.00  0.00     0.067 C 
HETATM    4  C4          0      27.637  53.854  15.875  1.00  0.00     0.103 C 
HETATM    5  O13         0      28.595  54.749  16.039  1.00  0.00    -0.307 OA
HETATM    6  C14         0      28.352  55.958  16.497  1.00  0.00     0.107 C 
HETATM    7  C15         0      29.353  56.748  17.043  1.00  0.00     0.049 C 
HETATM    8  C16         0      29.053  57.906  17.750  1.00  0.00     0.093 C 
HETATM    9  C18         0      27.833  58.489  17.431  1.00  0.00     0.048 C 
HETATM   10  C19         0      26.825  57.739  16.840  1.00  0.00     0.096 C 
HETATM   11  C21         0      27.041  56.418  16.554  1.00  0.00     0.084 C 
ENDROOT
BRANCH  10  12
HETATM   12  O20         0      25.509  58.182  16.924  1.00  0.00    -0.359 OA
HETATM   13  H20         0      24.848  57.562  17.210  1.00  0.00     0.218 HD
ENDBRANCH  10  12
BRANCH   4  14
HETATM   14  C5          0      27.970  52.434  16.003  1.00  0.00     0.025 C 
HETATM   15  C6          0      29.099  51.871  15.425  1.00  0.00     0.004 C 
HETATM   16  C7          0      29.775  50.895  16.151  1.00  0.00     0.026 C 
HETATM   17  C8          0      29.273  50.398  17.349  1.00  0.00     0.112 C 
HETATM   18  C10         0      27.900  50.539  17.505  1.00  0.00     0.112 C 
HETATM   19  C12         0      27.263  51.576  16.835  1.00  0.00     0.028 C 
BRANCH  17  20
HETATM   20  O9          0      30.125  49.999  18.363  1.00  0.00    -0.357 OA
HETATM   21  H9          0      31.035  50.265  18.423  1.00  0.00     0.218 HD
ENDBRANCH  17  20
BRANCH  18  22
HETATM   22  O11         0      27.322  49.895  18.590  1.00  0.00    -0.357 OA
HETATM   23  H11         0      26.648  50.370  19.063  1.00  0.00     0.218 HD
ENDBRANCH  18  22
ENDBRANCH   4  14
BRANCH   8  24
HETATM   24  O17         0      29.754  58.254  18.910  1.00  0.00    -0.359 OA
HETATM   25  H17         0      30.101  59.129  19.040  1.00  0.00     0.218 HD
ENDBRANCH   8  24
TORSDOF 5
ENDMDL
MODEL 5
REMARK VINA RESULT:      -4.4      2.501      6.021
REMARK  5 active torsions:
REMARK  status: ('A' for Active; 'I' for Inactive)
REMARK    1  A    between atoms: C4_4  and  C5_5 
REMARK    2  A    between atoms: C8_8  and  O9_9 
REMARK    3  A    between atoms: C10_11  and  O11_12 
REMARK    4  A    between atoms: C16_18  and  O17_19 
REMARK    5  A    between atoms: C19_22  and  O20_23 
ROOT
HETATM    1  O1          0      27.006  59.249  18.523  1.00  0.00    -0.286 OA
HETATM    2  C2          0      26.829  58.611  17.450  1.00  0.00     0.201 C 
HETATM    3  C3          0      25.797  58.892  16.571  1.00  0.00     0.067 C 
HETATM    4  C4          0      25.562  58.108  15.447  1.00  0.00     0.103 C 
HETATM    5  O13         0      26.362  57.083  15.210  1.00  0.00    -0.307 OA
HETATM    6  C14         0      27.333  56.750  16.032  1.00  0.00     0.107 C 
HETATM    7  C15         0      27.903  55.485  16.015  1.00  0.00     0.049 C 
HETATM    8  C16         0      28.739  55.056  17.038  1.00  0.00     0.093 C 
HETATM    9  C18         0      29.375  56.072  17.741  1.00  0.00     0.048 C 
HETATM   10  C19         0      28.857  57.361  17.742  1.00  0.00     0.096 C 
HETATM   11  C21         0      27.721  57.636  17.031  1.00  0.00     0.084 C 
ENDROOT
BRANCH  10  12
HETATM   12  O20         0      29.220  58.239  18.758  1.00  0.00    -0.359 OA
HETATM   13  H20         0      30.092  58.160  19.125  1.00  0.00     0.218 HD
ENDBRANCH  10  12
BRANCH   4  14
HETATM   14  C5          0      24.192  58.066  14.933  1.00  0.00     0.025 C 
HETATM   15  C6          0      23.611  59.126  14.253  1.00  0.00     0.004 C 
HETATM   16  C7          0      22.780  58.825  13.179  1.00  0.00     0.026 C 
HETATM   17  C8          0      22.429  57.514  12.874  1.00  0.00     0.112 C 
HETATM   18  C10         0      22.522  56.627  13.937  1.00  0.00     0.112 C 
HETATM   19  C12         0      23.424  56.909  14.956  1.00  0.00     0.028 C 
BRANCH  17  20
HETATM   20  O9          0      22.217  57.124  11.563  1.00  0.00    -0.357 OA
HETATM   21  H9          0      21.356  56.977  11.189  1.00  0.00     0.218 HD
ENDBRANCH  17  20
BRANCH  18  22
HETATM   22  O11         0      22.007  55.353  13.740  1.00  0.00    -0.357 OA
HETATM   23  H11         0      21.623  54.923  14.495  1.00  0.00     0.218 HD
ENDBRANCH  18  22
ENDBRANCH   4  14
BRANCH   8  24
HETATM   24  O17         0      28.677  53.748  17.531  1.00  0.00    -0.359 OA
HETATM   25  H17         0      28.120  53.090  17.132  1.00  0.00     0.218 HD
ENDBRANCH   8  24
TORSDOF 5
ENDMDL
MODEL 6
REMARK VINA RESULT:      -4.3      1.844      6.805
REMARK  5 active torsions:
REMARK  status: ('A' for Active; 'I' for Inactive)
REMARK    1  A    between atoms: C4_4  and  C5_5 
REMARK    2  A    between atoms: C8_8  and  O9_9 
REMARK    3  A    between atoms: C10_11  and  O11_12 
REMARK    4  A    between atoms: C16_18  and  O17_19 
REMARK    5  A    between atoms: C19_22  and  O20_23 
ROOT
HETATM    1  O1          0      28.606  52.825  19.969  1.00  0.00    -0.286 OA
HETATM    2  C2          0      28.901  53.247  18.817  1.00  0.00     0.201 C 
HETATM    3  C3          0      28.881  54.590  18.481  1.00  0.00     0.067 C 
HETATM    4  C4          0      29.110  55.019  17.179  1.00  0.00     0.103 C 
HETATM    5  O13         0      29.372  54.116  16.250  1.00  0.00    -0.307 OA
HETATM    6  C14         0      29.366  52.827  16.507  1.00  0.00     0.107 C 
HETATM    7  C15         0      29.240  51.881  15.500  1.00  0.00     0.049 C 
HETATM    8  C16         0      28.979  50.547  15.790  1.00  0.00     0.093 C 
HETATM    9  C18         0      29.375  50.134  17.057  1.00  0.00     0.048 C 
HETATM   10  C19         0      29.556  51.059  18.076  1.00  0.00     0.096 C 
HETATM   11  C21         0      29.359  52.390  17.828  1.00  0.00     0.084 C 
ENDROOT
BRANCH  10  12
HETATM   12  O20         0      29.518  50.630  19.399  1.00  0.00    -0.359 OA
HETATM   13  H20         0      30.165  49.994  19.679  1.00  0.00     0.218 HD
ENDBRANCH  10  12
BRANCH   4  14
HETATM   14  C5          0      28.504  56.290  16.776  1.00  0.00     0.025 C 
HETATM   15  C6          0      27.500  56.375  15.823  1.00  0.00     0.004 C 
HETATM   16  C7          0      26.483  57.300  16.038  1.00  0.00     0.026 C 
HETATM   17  C8          0      26.531  58.203  17.095  1.00  0.00     0.112 C 
HETATM   18  C10         0      27.807  58.463  17.578  1.00  0.00     0.112 C 
HETATM   19  C12         0      28.783  57.486  17.424  1.00  0.00     0.028 C 
BRANCH  17  20
HETATM   20  O9          0      25.371  58.620  17.724  1.00  0.00    -0.357 OA
HETATM   21  H9          0      24.564  58.120  17.728  1.00  0.00     0.218 HD
ENDBRANCH  17  20
BRANCH  18  22
HETATM   22  O11         0      27.932  59.493  18.500  1.00  0.00    -0.357 OA
HETATM   23  H11         0      27.440  59.407  19.309  1.00  0.00     0.218 HD
ENDBRANCH  18  22
ENDBRANCH   4  14
BRANCH   8  24
HETATM   24  O17         0      28.096  49.791  15.012  1.00  0.00    -0.359 OA
HETATM   25  H17         0      28.074  48.843  15.061  1.00  0.00     0.218 HD
ENDBRANCH   8  24
TORSDOF 5
ENDMDL
MODEL 7
REMARK VINA RESULT:      -4.2      1.492      6.511
REMARK  5 active torsions:
REMARK  status: ('A' for Active; 'I' for Inactive)
REMARK    1  A    between atoms: C4_4  and  C5_5 
REMARK    2  A    between atoms: C8_8  and  O9_9 
REMARK    3  A    between atoms: C10_11  and  O11_12 
REMARK    4  A    between atoms: C16_18  and  O17_19 
REMARK    5  A    between atoms: C19_22  and  O20_23 
ROOT
HETATM    1  O1          0      29.427  51.859  17.859  1.00  0.00    -0.286 OA
HETATM    2  C2          0      28.806  52.750  17.218  1.00  0.00     0.201 C 
HETATM    3  C3          0      28.981  54.103  17.452  1.00  0.00     0.067 C 
HETATM    4  C4          0      28.209  55.060  16.803  1.00  0.00     0.103 C 
HETATM    5  O13         0      27.302  54.660  15.930  1.00  0.00    -0.307 OA
HETATM    6  C14         0      27.070  53.386  15.698  1.00  0.00     0.107 C 
HETATM    7  C15         0      25.889  52.954  15.111  1.00  0.00     0.049 C 
HETATM    8  C16         0      25.539  51.609  15.101  1.00  0.00     0.093 C 
HETATM    9  C18         0      26.605  50.724  15.202  1.00  0.00     0.048 C 
HETATM   10  C19         0      27.816  51.136  15.741  1.00  0.00     0.096 C 
HETATM   11  C21         0      27.967  52.430  16.161  1.00  0.00     0.084 C 
ENDROOT
BRANCH  10  12
HETATM   12  O20         0      28.701  50.183  16.234  1.00  0.00    -0.359 OA
HETATM   13  H20         0      29.297  49.769  15.621  1.00  0.00     0.218 HD
ENDBRANCH  10  12
BRANCH   4  14
HETATM   14  C5          0      28.008  56.337  17.491  1.00  0.00     0.025 C 
HETATM   15  C6          0      28.789  56.744  18.564  1.00  0.00     0.004 C 
HETATM   16  C7          0      29.128  58.091  18.639  1.00  0.00     0.026 C 
HETATM   17  C8          0      28.601  59.027  17.756  1.00  0.00     0.112 C 
HETATM   18  C10         0      27.399  58.656  17.168  1.00  0.00     0.112 C 
HETATM   19  C12         0      27.123  57.302  17.028  1.00  0.00     0.028 C 
BRANCH  17  20
HETATM   20  O9          0      29.344  60.125  17.359  1.00  0.00    -0.357 OA
HETATM   21  H9          0      29.540  60.862  17.925  1.00  0.00     0.218 HD
ENDBRANCH  17  20
BRANCH  18  22
HETATM   22  O11         0      26.736  59.625  16.428  1.00  0.00    -0.357 OA
HETATM   23  H11         0      26.034  60.093  16.864  1.00  0.00     0.218 HD
ENDBRANCH  18  22
ENDBRANCH   4  14
BRANCH   8  24
HETATM   24  O17         0      24.219  51.198  15.316  1.00  0.00    -0.359 OA
HETATM   25  H17         0      24.006  50.300  15.540  1.00  0.00     0.218 HD
ENDBRANCH   8  24
TORSDOF 5
ENDMDL
MODEL 8
REMARK VINA RESULT:      -3.9      3.598      5.812
REMARK  5 active torsions:
REMARK  status: ('A' for Active; 'I' for Inactive)
REMARK    1  A    between atoms: C4_4  and  C5_5 
REMARK    2  A    between atoms: C8_8  and  O9_9 
REMARK    3  A    between atoms: C10_11  and  O11_12 
REMARK    4  A    between atoms: C16_18  and  O17_19 
REMARK    5  A    between atoms: C19_22  and  O20_23 
ROOT
HETATM    1  O1          0      22.388  58.573  17.880  1.00  0.00    -0.286 OA
HETATM    2  C2          0      23.202  58.092  17.046  1.00  0.00     0.201 C 
HETATM    3  C3          0      24.532  57.854  17.346  1.00  0.00     0.067 C 
HETATM    4  C4          0      25.431  57.419  16.379  1.00  0.00     0.103 C 
HETATM    5  O13         0      24.991  57.211  15.151  1.00  0.00    -0.307 OA
HETATM    6  C14         0      23.747  57.457  14.803  1.00  0.00     0.107 C 
HETATM    7  C15         0      23.379  57.629  13.477  1.00  0.00     0.049 C 
HETATM    8  C16         0      22.131  58.136  13.133  1.00  0.00     0.093 C 
HETATM    9  C18         0      21.140  57.951  14.089  1.00  0.00     0.048 C 
HETATM   10  C19         0      21.474  57.731  15.419  1.00  0.00     0.096 C 
HETATM   11  C21         0      22.790  57.677  15.788  1.00  0.00     0.084 C 
ENDROOT
BRANCH  10  12
HETATM   12  O20         0      20.528  57.980  16.408  1.00  0.00    -0.359 OA
HETATM   13  H20         0      20.142  58.847  16.447  1.00  0.00     0.218 HD
ENDBRANCH  10  12
BRANCH   4  14
HETATM   14  C5          0      26.842  57.760  16.574  1.00  0.00     0.025 C 
HETATM   15  C6          0      27.263  59.024  16.962  1.00  0.00     0.004 C 
HETATM   16  C7          0      28.329  59.103  17.853  1.00  0.00     0.026 C 
HETATM   17  C8          0      29.040  57.972  18.242  1.00  0.00     0.112 C 
HETATM   18  C10         0      28.968  56.908  17.353  1.00  0.00     0.112 C 
HETATM   19  C12         0      27.851  56.807  16.533  1.00  0.00     0.028 C 
BRANCH  17  20
HETATM   20  O9          0      29.581  57.878  19.511  1.00  0.00    -0.357 OA
HETATM   21  H9          0      29.685  58.618  20.098  1.00  0.00     0.218 HD
ENDBRANCH  17  20
BRANCH  18  22
HETATM   22  O11         0      29.806  55.829  17.595  1.00  0.00    -0.357 OA
HETATM   23  H11         0      30.706  55.908  17.300  1.00  0.00     0.218 HD
ENDBRANCH  18  22
ENDBRANCH   4  14
BRANCH   8  24
HETATM   24  O17         0      21.978  59.043  12.080  1.00  0.00    -0.359 OA
HETATM   25  H17         0      22.378  59.904  12.100  1.00  0.00     0.218 HD
ENDBRANCH   8  24
TORSDOF 5
ENDMDL
MODEL 9
REMARK VINA RESULT:      -3.8      3.721      6.214
REMARK  5 active torsions:
REMARK  status: ('A' for Active; 'I' for Inactive)
REMARK    1  A    between atoms: C4_4  and  C5_5 
REMARK    2  A    between atoms: C8_8  and  O9_9 
REMARK    3  A    between atoms: C10_11  and  O11_12 
REMARK    4  A    between atoms: C16_18  and  O17_19 
REMARK    5  A    between atoms: C19_22  and  O20_23 
ROOT
HETATM    1  O1          0      23.477  54.934  15.953  1.00  0.00    -0.286 OA
HETATM    2  C2          0      24.170  55.876  15.479  1.00  0.00     0.201 C 
HETATM    3  C3          0      25.381  56.265  16.025  1.00  0.00     0.067 C 
HETATM    4  C4          0      26.074  57.372  15.547  1.00  0.00     0.103 C 
HETATM    5  O13         0      25.565  58.051  14.534  1.00  0.00    -0.307 OA
HETATM    6  C14         0      24.400  57.747  14.004  1.00  0.00     0.107 C 
HETATM    7  C15         0      23.685  58.658  13.240  1.00  0.00     0.049 C 
HETATM    8  C16         0      22.357  58.428  12.900  1.00  0.00     0.093 C 
HETATM    9  C18         0      21.977  57.092  12.886  1.00  0.00     0.048 C 
HETATM   10  C19         0      22.699  56.146  13.601  1.00  0.00     0.096 C 
HETATM   11  C21         0      23.803  56.530  14.313  1.00  0.00     0.084 C 
ENDROOT
BRANCH  10  12
HETATM   12  O20         0      22.092  54.940  13.939  1.00  0.00    -0.359 OA
HETATM   13  H20         0      21.144  54.893  13.903  1.00  0.00     0.218 HD
ENDBRANCH  10  12
BRANCH   4  14
HETATM   14  C5          0      26.959  58.064  16.486  1.00  0.00     0.025 C 
HETATM   15  C6          0      26.795  59.398  16.830  1.00  0.00     0.004 C 
HETATM   16  C7          0      27.037  59.758  18.152  1.00  0.00     0.026 C 
HETATM   17  C8          0      27.554  58.851  19.071  1.00  0.00     0.112 C 
HETATM   18  C10         0      28.257  57.794  18.510  1.00  0.00     0.112 C 
HETATM   19  C12         0      27.936  57.400  17.216  1.00  0.00     0.028 C 
BRANCH  17  20
HETATM   20  O9          0      27.197  58.914  20.406  1.00  0.00    -0.357 OA
HETATM   21  H9          0      26.957  58.154  20.924  1.00  0.00     0.218 HD
ENDBRANCH  17  20
BRANCH  18  22
HETATM   22  O11         0      28.952  56.968  19.382  1.00  0.00    -0.357 OA
HETATM   23  H11         0      29.616  57.377  19.924  1.00  0.00     0.218 HD
ENDBRANCH  18  22
ENDBRANCH   4  14
BRANCH   8  24
HETATM   24  O17         0      21.414  59.462  12.907  1.00  0.00    -0.359 OA
HETATM   25  H17         0      21.674  60.375  12.937  1.00  0.00     0.218 HD
ENDBRANCH   8  24
TORSDOF 5
ENDMDL
