MODEL 1
REMARK VINA RESULT:      -0.3      0.000      0.000
REMARK  5 active torsions:
REMARK  status: ('A' for Active; 'I' for Inactive)
REMARK    1  A    between atoms: C4_4  and  C5_5 
REMARK    2  A    between atoms: C8_8  and  O9_9 
REMARK    3  A    between atoms: C10_11  and  O11_12 
REMARK    4  A    between atoms: C16_18  and  O17_19 
REMARK    5  A    between atoms: C19_22  and  O20_23 
ROOT
HETATM    1  O1          0      35.921   4.195 -15.194  1.00  0.00    -0.286 OA
HETATM    2  C2          0      36.690   5.170 -15.419  1.00  0.00     0.201 C 
HETATM    3  C3          0      37.890   5.348 -14.753  1.00  0.00     0.067 C 
HETATM    4  C4          0      38.668   6.484 -14.945  1.00  0.00     0.103 C 
HETATM    5  O13         0      38.253   7.400 -15.803  1.00  0.00    -0.307 OA
HETATM    6  C14         0      37.104   7.297 -16.433  1.00  0.00     0.107 C 
HETATM    7  C15         0      36.483   8.398 -17.005  1.00  0.00     0.049 C 
HETATM    8  C16         0      35.165   8.338 -17.441  1.00  0.00     0.093 C 
HETATM    9  C18         0      34.712   7.065 -17.766  1.00  0.00     0.048 C 
HETATM   10  C19         0      35.340   5.940 -17.248  1.00  0.00     0.096 C 
HETATM   11  C21         0      36.423   6.085 -16.426  1.00  0.00     0.084 C 
ENDROOT
BRANCH  10  12
HETATM   12  O20         0      34.649   4.732 -17.211  1.00  0.00    -0.359 OA
HETATM   13  H20         0      34.329   4.428 -16.370  1.00  0.00     0.218 HD
ENDBRANCH  10  12
BRANCH   4  14
HETATM   14  C5          0      39.539   6.895 -13.842  1.00  0.00     0.025 C 
HETATM   15  C6          0      40.033   8.185 -13.714  1.00  0.00     0.004 C 
HETATM   16  C7          0      40.113   8.719 -12.432  1.00  0.00     0.026 C 
HETATM   17  C8          0      39.841   7.954 -11.304  1.00  0.00     0.112 C 
HETATM   18  C10         0      39.983   6.584 -11.484  1.00  0.00     0.112 C 
HETATM   19  C12         0      39.813   6.065 -12.762  1.00  0.00     0.028 C 
BRANCH  17  20
HETATM   20  O9          0      39.272   8.525 -10.180  1.00  0.00    -0.357 OA
HETATM   21  H9          0      38.444   8.992 -10.186  1.00  0.00     0.218 HD
ENDBRANCH  17  20
BRANCH  18  22
HETATM   22  O11         0      39.909   5.790 -10.349  1.00  0.00    -0.357 OA
HETATM   23  H11         0      39.724   6.230  -9.527  1.00  0.00     0.218 HD
ENDBRANCH  18  22
ENDBRANCH   4  14
BRANCH   8  24
HETATM   24  O17         0      34.282   9.405 -17.243  1.00  0.00    -0.359 OA
HETATM   25  H17         0      34.327  10.194 -17.769  1.00  0.00     0.218 HD
ENDBRANCH   8  24
TORSDOF 5
ENDMDL
MODEL 2
REMARK VINA RESULT:      -0.2      2.147      2.264
REMARK  5 active torsions:
REMARK  status: ('A' for Active; 'I' for Inactive)
REMARK    1  A    between atoms: C4_4  and  C5_5 
REMARK    2  A    between atoms: C8_8  and  O9_9 
REMARK    3  A    between atoms: C10_11  and  O11_12 
REMARK    4  A    between atoms: C16_18  and  O17_19 
REMARK    5  A    between atoms: C19_22  and  O20_23 
ROOT
HETATM    1  O1          0      36.484   4.455 -14.953  1.00  0.00    -0.286 OA
HETATM    2  C2          0      37.516   5.129 -15.221  1.00  0.00     0.201 C 
HETATM    3  C3          0      38.279   5.752 -14.248  1.00  0.00     0.067 C 
HETATM    4  C4          0      39.350   6.574 -14.577  1.00  0.00     0.103 C 
HETATM    5  O13         0      39.653   6.742 -15.852  1.00  0.00    -0.307 OA
HETATM    6  C14         0      38.938   6.204 -16.817  1.00  0.00     0.107 C 
HETATM    7  C15         0      38.991   6.682 -18.119  1.00  0.00     0.049 C 
HETATM    8  C16         0      38.059   6.287 -19.070  1.00  0.00     0.093 C 
HETATM    9  C18         0      37.455   5.059 -18.827  1.00  0.00     0.048 C 
HETATM   10  C19         0      37.426   4.529 -17.544  1.00  0.00     0.096 C 
HETATM   11  C21         0      38.010   5.214 -16.513  1.00  0.00     0.084 C 
ENDROOT
BRANCH  10  12
HETATM   12  O20         0      36.478   3.561 -17.229  1.00  0.00    -0.359 OA
HETATM   13  H20         0      35.560   3.798 -17.294  1.00  0.00     0.218 HD
ENDBRANCH  10  12
BRANCH   4  14
HETATM   14  C5          0      39.705   7.627 -13.624  1.00  0.00     0.025 C 
HETATM   15  C6          0      39.718   8.973 -13.961  1.00  0.00     0.004 C 
HETATM   16  C7          0      39.266   9.880 -13.008  1.00  0.00     0.026 C 
HETATM   17  C8          0      38.938   9.480 -11.718  1.00  0.00     0.112 C 
HETATM   18  C10         0      39.542   8.299 -11.306  1.00  0.00     0.112 C 
HETATM   19  C12         0      39.907   7.372 -12.274  1.00  0.00     0.028 C 
BRANCH  17  20
HETATM   20  O9          0      37.929  10.113 -11.014  1.00  0.00    -0.357 OA
HETATM   21  H9          0      37.027   9.814 -11.000  1.00  0.00     0.218 HD
ENDBRANCH  17  20
BRANCH  18  22
HETATM   22  O11         0      39.401   7.955  -9.969  1.00  0.00    -0.357 OA
HETATM   23  H11         0      38.563   7.594  -9.704  1.00  0.00     0.218 HD
ENDBRANCH  18  22
ENDBRANCH   4  14
BRANCH   8  24
HETATM   24  O17         0      37.532   7.194 -19.996  1.00  0.00    -0.359 OA
HETATM   25  H17         0      37.659   7.084 -20.931  1.00  0.00     0.218 HD
ENDBRANCH   8  24
TORSDOF 5
ENDMDL
MODEL 3
REMARK VINA RESULT:      -0.2      2.315      2.507
REMARK  5 active torsions:
REMARK  status: ('A' for Active; 'I' for Inactive)
REMARK    1  A    between atoms: C4_4  and  C5_5 
REMARK    2  A    between atoms: C8_8  and  O9_9 
REMARK    3  A    between atoms: C10_11  and  O11_12 
REMARK    4  A    between atoms: C16_18  and  O17_19 
REMARK    5  A    between atoms: C19_22  and  O20_23 
ROOT
HETATM    1  O1          0      36.171   5.807 -16.407  1.00  0.00    -0.286 OA
HETATM    2  C2          0      37.343   6.265 -16.504  1.00  0.00     0.201 C 
HETATM    3  C3          0      38.130   6.552 -15.401  1.00  0.00     0.067 C 
HETATM    4  C4          0      39.377   7.150 -15.533  1.00  0.00     0.103 C 
HETATM    5  O13         0      39.823   7.430 -16.745  1.00  0.00    -0.307 OA
HETATM    6  C14         0      39.101   7.212 -17.822  1.00  0.00     0.107 C 
HETATM    7  C15         0      39.372   7.850 -19.025  1.00  0.00     0.049 C 
HETATM    8  C16         0      38.467   7.817 -20.079  1.00  0.00     0.093 C 
HETATM    9  C18         0      37.597   6.734 -20.071  1.00  0.00     0.048 C 
HETATM   10  C19         0      37.339   6.044 -18.895  1.00  0.00     0.096 C 
HETATM   11  C21         0      37.960   6.423 -17.736  1.00  0.00     0.084 C 
ENDROOT
BRANCH  10  12
HETATM   12  O20         0      36.181   5.278 -18.794  1.00  0.00    -0.359 OA
HETATM   13  H20         0      36.276   4.343 -18.657  1.00  0.00     0.218 HD
ENDBRANCH  10  12
BRANCH   4  14
HETATM   14  C5          0      39.860   7.947 -14.403  1.00  0.00     0.025 C 
HETATM   15  C6          0      40.065   9.317 -14.482  1.00  0.00     0.004 C 
HETATM   16  C7          0      39.729  10.084 -13.372  1.00  0.00     0.026 C 
HETATM   17  C8          0      39.330   9.499 -12.175  1.00  0.00     0.112 C 
HETATM   18  C10         0      39.758   8.190 -11.998  1.00  0.00     0.112 C 
HETATM   19  C12         0      40.005   7.418 -13.127  1.00  0.00     0.028 C 
BRANCH  17  20
HETATM   20  O9          0      38.407  10.123 -11.354  1.00  0.00    -0.357 OA
HETATM   21  H9          0      38.589  10.916 -10.862  1.00  0.00     0.218 HD
ENDBRANCH  17  20
BRANCH  18  22
HETATM   22  O11         0      39.551   7.625 -10.748  1.00  0.00    -0.357 OA
HETATM   23  H11         0      38.667   7.340 -10.546  1.00  0.00     0.218 HD
ENDBRANCH  18  22
ENDBRANCH   4  14
BRANCH   8  24
HETATM   24  O17         0      38.232   8.944 -20.874  1.00  0.00    -0.359 OA
HETATM   25  H17         0      37.565   8.948 -21.549  1.00  0.00     0.218 HD
ENDBRANCH   8  24
TORSDOF 5
ENDMDL
MODEL 4
REMARK VINA RESULT:      -0.2     14.196     17.135
REMARK  5 active torsions:
REMARK  status: ('A' for Active; 'I' for Inactive)
REMARK    1  A    between atoms: C4_4  and  C5_5 
REMARK    2  A    between atoms: C8_8  and  O9_9 
REMARK    3  A    between atoms: C10_11  and  O11_12 
REMARK    4  A    between atoms: C16_18  and  O17_19 
REMARK    5  A    between atoms: C19_22  and  O20_23 
ROOT
HETATM    1  O1          0      38.676  -4.722 -19.737  1.00  0.00    -0.286 OA
HETATM    2  C2          0      39.179  -5.720 -20.323  1.00  0.00     0.201 C 
HETATM    3  C3          0      39.225  -5.836 -21.701  1.00  0.00     0.067 C 
HETATM    4  C4          0      39.691  -6.991 -22.320  1.00  0.00     0.103 C 
HETATM    5  O13         0      40.117  -7.988 -21.565  1.00  0.00    -0.307 OA
HETATM    6  C14         0      40.061  -7.943 -20.252  1.00  0.00     0.107 C 
HETATM    7  C15         0      40.121  -9.094 -19.478  1.00  0.00     0.049 C 
HETATM    8  C16         0      39.807  -9.070 -18.124  1.00  0.00     0.093 C 
HETATM    9  C18         0      39.962  -7.835 -17.508  1.00  0.00     0.048 C 
HETATM   10  C19         0      39.955  -6.666 -18.257  1.00  0.00     0.096 C 
HETATM   11  C21         0      39.810  -6.732 -19.616  1.00  0.00     0.084 C 
ENDROOT
BRANCH  10  12
HETATM   12  O20         0      39.673  -5.457 -17.629  1.00  0.00    -0.359 OA
HETATM   13  H20         0      39.831  -4.656 -18.114  1.00  0.00     0.218 HD
ENDBRANCH  10  12
BRANCH   4  14
HETATM   14  C5          0      39.172  -7.291 -23.656  1.00  0.00     0.025 C 
HETATM   15  C6          0      38.939  -8.584 -24.099  1.00  0.00     0.004 C 
HETATM   16  C7          0      37.815  -8.802 -24.889  1.00  0.00     0.026 C 
HETATM   17  C8          0      37.023  -7.749 -25.337  1.00  0.00     0.112 C 
HETATM   18  C10         0      37.667  -6.520 -25.386  1.00  0.00     0.112 C 
HETATM   19  C12         0      38.735  -6.299 -24.524  1.00  0.00     0.028 C 
BRANCH  17  20
HETATM   20  O9          0      35.659  -7.910 -25.506  1.00  0.00    -0.357 OA
HETATM   21  H9          0      35.262  -8.681 -25.894  1.00  0.00     0.218 HD
ENDBRANCH  17  20
BRANCH  18  22
HETATM   22  O11         0      36.986  -5.478 -26.001  1.00  0.00    -0.357 OA
HETATM   23  H11         0      37.179  -5.321 -26.918  1.00  0.00     0.218 HD
ENDBRANCH  18  22
ENDBRANCH   4  14
BRANCH   8  24
HETATM   24  O17         0      39.081 -10.105 -17.526  1.00  0.00    -0.359 OA
HETATM   25  H17         0      39.424 -10.593 -16.786  1.00  0.00     0.218 HD
ENDBRANCH   8  24
TORSDOF 5
ENDMDL
MODEL 5
REMARK VINA RESULT:      -0.2      2.099      6.623
REMARK  5 active torsions:
REMARK  status: ('A' for Active; 'I' for Inactive)
REMARK    1  A    between atoms: C4_4  and  C5_5 
REMARK    2  A    between atoms: C8_8  and  O9_9 
REMARK    3  A    between atoms: C10_11  and  O11_12 
REMARK    4  A    between atoms: C16_18  and  O17_19 
REMARK    5  A    between atoms: C19_22  and  O20_23 
ROOT
HETATM    1  O1          0      39.540   4.388 -12.135  1.00  0.00    -0.286 OA
HETATM    2  C2          0      38.668   5.284 -12.307  1.00  0.00     0.201 C 
HETATM    3  C3          0      37.707   5.213 -13.301  1.00  0.00     0.067 C 
HETATM    4  C4          0      36.823   6.260 -13.535  1.00  0.00     0.103 C 
HETATM    5  O13         0      36.897   7.336 -12.772  1.00  0.00    -0.307 OA
HETATM    6  C14         0      37.815   7.470 -11.840  1.00  0.00     0.107 C 
HETATM    7  C15         0      38.156   8.711 -11.322  1.00  0.00     0.049 C 
HETATM    8  C16         0      39.288   8.879 -10.534  1.00  0.00     0.093 C 
HETATM    9  C18         0      39.721   7.733  -9.878  1.00  0.00     0.048 C 
HETATM   10  C19         0      39.360   6.475 -10.341  1.00  0.00     0.096 C 
HETATM   11  C21         0      38.557   6.363 -11.444  1.00  0.00     0.084 C 
ENDROOT
BRANCH  10  12
HETATM   12  O20         0      40.120   5.370  -9.972  1.00  0.00    -0.359 OA
HETATM   13  H20         0      40.979   5.270 -10.363  1.00  0.00     0.218 HD
ENDBRANCH  10  12
BRANCH   4  14
HETATM   14  C5          0      36.286   6.393 -14.891  1.00  0.00     0.025 C 
HETATM   15  C6          0      37.085   6.346 -16.024  1.00  0.00     0.004 C 
HETATM   16  C7          0      36.578   5.695 -17.144  1.00  0.00     0.026 C 
HETATM   17  C8          0      35.270   5.224 -17.183  1.00  0.00     0.112 C 
HETATM   18  C10         0      34.399   5.857 -16.306  1.00  0.00     0.112 C 
HETATM   19  C12         0      34.922   6.426 -15.151  1.00  0.00     0.028 C 
BRANCH  17  20
HETATM   20  O9          0      34.950   4.079 -17.891  1.00  0.00    -0.357 OA
HETATM   21  H9          0      35.040   3.999 -18.834  1.00  0.00     0.218 HD
ENDBRANCH  17  20
BRANCH  18  22
HETATM   22  O11         0      33.050   5.559 -16.437  1.00  0.00    -0.357 OA
HETATM   23  H11         0      32.654   5.717 -17.286  1.00  0.00     0.218 HD
ENDBRANCH  18  22
ENDBRANCH   4  14
BRANCH   8  24
HETATM   24  O17         0      40.107  10.006 -10.665  1.00  0.00    -0.359 OA
HETATM   25  H17         0      40.168  10.486 -11.482  1.00  0.00     0.218 HD
ENDBRANCH   8  24
TORSDOF 5
ENDMDL
MODEL 6
REMARK VINA RESULT:      -0.2     15.170     17.940
REMARK  5 active torsions:
REMARK  status: ('A' for Active; 'I' for Inactive)
REMARK    1  A    between atoms: C4_4  and  C5_5 
REMARK    2  A    between atoms: C8_8  and  O9_9 
REMARK    3  A    between atoms: C10_11  and  O11_12 
REMARK    4  A    between atoms: C16_18  and  O17_19 
REMARK    5  A    between atoms: C19_22  and  O20_23 
ROOT
HETATM    1  O1          0      38.752  -4.885 -21.947  1.00  0.00    -0.286 OA
HETATM    2  C2          0      39.236  -6.045 -21.836  1.00  0.00     0.201 C 
HETATM    3  C3          0      39.365  -6.910 -22.909  1.00  0.00     0.067 C 
HETATM    4  C4          0      39.805  -8.218 -22.742  1.00  0.00     0.103 C 
HETATM    5  O13         0      40.125  -8.630 -21.528  1.00  0.00    -0.307 OA
HETATM    6  C14         0      39.986  -7.861 -20.470  1.00  0.00     0.107 C 
HETATM    7  C15         0      39.931  -8.387 -19.187  1.00  0.00     0.049 C 
HETATM    8  C16         0      39.532  -7.610 -18.106  1.00  0.00     0.093 C 
HETATM    9  C18         0      39.715  -6.242 -18.266  1.00  0.00     0.048 C 
HETATM   10  C19         0      39.821  -5.689 -19.535  1.00  0.00     0.096 C 
HETATM   11  C21         0      39.762  -6.499 -20.636  1.00  0.00     0.084 C 
ENDROOT
BRANCH  10  12
HETATM   12  O20         0      39.566  -4.332 -19.709  1.00  0.00    -0.359 OA
HETATM   13  H20         0      40.009  -3.719 -19.135  1.00  0.00     0.218 HD
ENDBRANCH  10  12
BRANCH   4  14
HETATM   14  C5          0      39.359  -9.206 -23.726  1.00  0.00     0.025 C 
HETATM   15  C6          0      38.151  -9.879 -23.622  1.00  0.00     0.004 C 
HETATM   16  C7          0      37.440 -10.115 -24.795  1.00  0.00     0.026 C 
HETATM   17  C8          0      37.973  -9.812 -26.043  1.00  0.00     0.112 C 
HETATM   18  C10         0      39.360  -9.753 -26.083  1.00  0.00     0.112 C 
HETATM   19  C12         0      40.041  -9.432 -24.915  1.00  0.00     0.028 C 
BRANCH  17  20
HETATM   20  O9          0      37.156  -9.400 -27.081  1.00  0.00    -0.357 OA
HETATM   21  H9          0      37.209  -9.748 -27.964  1.00  0.00     0.218 HD
ENDBRANCH  17  20
BRANCH  18  22
HETATM   22  O11         0      39.948  -9.643 -27.335  1.00  0.00    -0.357 OA
HETATM   23  H11         0      39.372  -9.451 -28.066  1.00  0.00     0.218 HD
ENDBRANCH  18  22
ENDBRANCH   4  14
BRANCH   8  24
HETATM   24  O17         0      38.711  -8.130 -17.098  1.00  0.00    -0.359 OA
HETATM   25  H17         0      38.917  -8.015 -16.178  1.00  0.00     0.218 HD
ENDBRANCH   8  24
TORSDOF 5
ENDMDL
MODEL 7
REMARK VINA RESULT:      -0.2      3.678      4.297
REMARK  5 active torsions:
REMARK  status: ('A' for Active; 'I' for Inactive)
REMARK    1  A    between atoms: C4_4  and  C5_5 
REMARK    2  A    between atoms: C8_8  and  O9_9 
REMARK    3  A    between atoms: C10_11  and  O11_12 
REMARK    4  A    between atoms: C16_18  and  O17_19 
REMARK    5  A    between atoms: C19_22  and  O20_23 
ROOT
HETATM    1  O1          0      35.475   2.640 -15.578  1.00  0.00    -0.286 OA
HETATM    2  C2          0      36.730   2.547 -15.671  1.00  0.00     0.201 C 
HETATM    3  C3          0      37.582   2.811 -14.613  1.00  0.00     0.067 C 
HETATM    4  C4          0      38.963   2.801 -14.770  1.00  0.00     0.103 C 
HETATM    5  O13         0      39.465   2.512 -15.957  1.00  0.00    -0.307 OA
HETATM    6  C14         0      38.701   2.290 -17.004  1.00  0.00     0.107 C 
HETATM    7  C15         0      39.189   2.384 -18.299  1.00  0.00     0.049 C 
HETATM    8  C16         0      38.334   2.403 -19.394  1.00  0.00     0.093 C 
HETATM    9  C18         0      37.097   1.806 -19.182  1.00  0.00     0.048 C 
HETATM   10  C19         0      36.598   1.653 -17.896  1.00  0.00     0.096 C 
HETATM   11  C21         0      37.338   2.079 -16.826  1.00  0.00     0.084 C 
ENDROOT
BRANCH  10  12
HETATM   12  O20         0      35.231   1.473 -17.713  1.00  0.00    -0.359 OA
HETATM   13  H20         0      34.640   1.903 -18.320  1.00  0.00     0.218 HD
ENDBRANCH  10  12
BRANCH   4  14
HETATM   14  C5          0      39.747   3.636 -13.858  1.00  0.00     0.025 C 
HETATM   15  C6          0      40.125   4.935 -14.165  1.00  0.00     0.004 C 
HETATM   16  C7          0      40.104   5.873 -13.138  1.00  0.00     0.026 C 
HETATM   17  C8          0      39.846   5.507 -11.821  1.00  0.00     0.112 C 
HETATM   18  C10         0      40.111   4.176 -11.527  1.00  0.00     0.112 C 
HETATM   19  C12         0      40.042   3.246 -12.558  1.00  0.00     0.028 C 
BRANCH  17  20
HETATM   20  O9          0      39.183   6.366 -10.963  1.00  0.00    -0.357 OA
HETATM   21  H9          0      39.586   7.127 -10.562  1.00  0.00     0.218 HD
ENDBRANCH  17  20
BRANCH  18  22
HETATM   22  O11         0      40.053   3.803 -10.192  1.00  0.00    -0.357 OA
HETATM   23  H11         0      40.316   2.915  -9.982  1.00  0.00     0.218 HD
ENDBRANCH  18  22
ENDBRANCH   4  14
BRANCH   8  24
HETATM   24  O17         0      38.567   3.243 -20.488  1.00  0.00    -0.359 OA
HETATM   25  H17         0      38.999   2.930 -21.275  1.00  0.00     0.218 HD
ENDBRANCH   8  24
TORSDOF 5
ENDMDL
MODEL 8
REMARK VINA RESULT:      -0.2      3.012      3.835
REMARK  5 active torsions:
REMARK  status: ('A' for Active; 'I' for Inactive)
REMARK    1  A    between atoms: C4_4  and  C5_5 
REMARK    2  A    between atoms: C8_8  and  O9_9 
REMARK    3  A    between atoms: C10_11  and  O11_12 
REMARK    4  A    between atoms: C16_18  and  O17_19 
REMARK    5  A    between atoms: C19_22  and  O20_23 
ROOT
HETATM    1  O1          0      36.480   0.731 -16.224  1.00  0.00    -0.286 OA
HETATM    2  C2          0      37.237   1.732 -16.103  1.00  0.00     0.201 C 
HETATM    3  C3          0      38.344   1.740 -15.271  1.00  0.00     0.067 C 
HETATM    4  C4          0      39.101   2.890 -15.078  1.00  0.00     0.103 C 
HETATM    5  O13         0      38.761   3.991 -15.724  1.00  0.00    -0.307 OA
HETATM    6  C14         0      37.698   4.048 -16.496  1.00  0.00     0.107 C 
HETATM    7  C15         0      37.113   5.256 -16.846  1.00  0.00     0.049 C 
HETATM    8  C16         0      35.858   5.304 -17.442  1.00  0.00     0.093 C 
HETATM    9  C18         0      35.488   4.153 -18.126  1.00  0.00     0.048 C 
HETATM   10  C19         0      36.087   2.935 -17.833  1.00  0.00     0.096 C 
HETATM   11  C21         0      37.061   2.871 -16.875  1.00  0.00     0.084 C 
ENDROOT
BRANCH  10  12
HETATM   12  O20         0      35.437   1.756 -18.183  1.00  0.00    -0.359 OA
HETATM   13  H20         0      35.772   0.941 -17.829  1.00  0.00     0.218 HD
ENDBRANCH  10  12
BRANCH   4  14
HETATM   14  C5          0      39.822   3.011 -13.809  1.00  0.00     0.025 C 
HETATM   15  C6          0      40.124   4.235 -13.230  1.00  0.00     0.004 C 
HETATM   16  C7          0      40.033   4.333 -11.845  1.00  0.00     0.026 C 
HETATM   17  C8          0      39.783   3.220 -11.050  1.00  0.00     0.112 C 
HETATM   18  C10         0      40.125   2.005 -11.630  1.00  0.00     0.112 C 
HETATM   19  C12         0      40.125   1.912 -13.016  1.00  0.00     0.028 C 
BRANCH  17  20
HETATM   20  O9          0      39.058   3.334  -9.877  1.00  0.00    -0.357 OA
HETATM   21  H9          0      38.421   2.692  -9.585  1.00  0.00     0.218 HD
ENDBRANCH  17  20
BRANCH  18  22
HETATM   22  O11         0      40.074   0.883 -10.814  1.00  0.00    -0.357 OA
HETATM   23  H11         0      40.728   0.820 -10.128  1.00  0.00     0.218 HD
ENDBRANCH  18  22
ENDBRANCH   4  14
BRANCH   8  24
HETATM   24  O17         0      34.923   6.285 -17.094  1.00  0.00    -0.359 OA
HETATM   25  H17         0      34.976   6.756 -16.270  1.00  0.00     0.218 HD
ENDBRANCH   8  24
TORSDOF 5
ENDMDL
MODEL 9
REMARK VINA RESULT:      -0.2     15.162     18.048
REMARK  5 active torsions:
REMARK  status: ('A' for Active; 'I' for Inactive)
REMARK    1  A    between atoms: C4_4  and  C5_5 
REMARK    2  A    between atoms: C8_8  and  O9_9 
REMARK    3  A    between atoms: C10_11  and  O11_12 
REMARK    4  A    between atoms: C16_18  and  O17_19 
REMARK    5  A    between atoms: C19_22  and  O20_23 
ROOT
HETATM    1  O1          0      37.988  -5.000 -20.919  1.00  0.00    -0.286 OA
HETATM    2  C2          0      38.546  -5.947 -21.537  1.00  0.00     0.201 C 
HETATM    3  C3          0      38.402  -6.142 -22.900  1.00  0.00     0.067 C 
HETATM    4  C4          0      38.944  -7.252 -23.539  1.00  0.00     0.103 C 
HETATM    5  O13         0      39.629  -8.125 -22.822  1.00  0.00    -0.307 OA
HETATM    6  C14         0      39.765  -8.007 -21.520  1.00  0.00     0.107 C 
HETATM    7  C15         0      40.118  -9.085 -20.721  1.00  0.00     0.049 C 
HETATM    8  C16         0      40.012  -9.023 -19.337  1.00  0.00     0.093 C 
HETATM    9  C18         0      40.064  -7.742 -18.801  1.00  0.00     0.048 C 
HETATM   10  C19         0      39.761  -6.637 -19.585  1.00  0.00     0.096 C 
HETATM   11  C21         0      39.426  -6.809 -20.900  1.00  0.00     0.084 C 
ENDROOT
BRANCH  10  12
HETATM   12  O20         0      39.392  -5.446 -18.968  1.00  0.00    -0.359 OA
HETATM   13  H20         0      40.041  -4.998 -18.439  1.00  0.00     0.218 HD
ENDBRANCH  10  12
BRANCH   4  14
HETATM   14  C5          0      38.284  -7.708 -24.764  1.00  0.00     0.025 C 
HETATM   15  C6          0      37.421  -6.906 -25.497  1.00  0.00     0.004 C 
HETATM   16  C7          0      37.478  -6.999 -26.884  1.00  0.00     0.026 C 
HETATM   17  C8          0      38.267  -7.950 -27.520  1.00  0.00     0.112 C 
HETATM   18  C10         0      38.569  -9.064 -26.748  1.00  0.00     0.112 C 
HETATM   19  C12         0      38.589  -8.923 -25.365  1.00  0.00     0.028 C 
BRANCH  17  20
HETATM   20  O9          0      38.860  -7.678 -28.740  1.00  0.00    -0.357 OA
HETATM   21  H9          0      39.667  -7.186 -28.837  1.00  0.00     0.218 HD
ENDBRANCH  17  20
BRANCH  18  22
HETATM   22  O11         0      39.191 -10.125 -27.390  1.00  0.00    -0.357 OA
HETATM   23  H11         0      39.102 -10.982 -26.989  1.00  0.00     0.218 HD
ENDBRANCH  18  22
ENDBRANCH   4  14
BRANCH   8  24
HETATM   24  O17         0      39.554 -10.115 -18.591  1.00  0.00    -0.359 OA
HETATM   25  H17         0      39.581 -10.117 -17.641  1.00  0.00     0.218 HD
ENDBRANCH   8  24
TORSDOF 5
ENDMDL
