MODEL 1
REMARK VINA RESULT:      -6.6      0.000      0.000
REMARK  5 active torsions:
REMARK  status: ('A' for Active; 'I' for Inactive)
REMARK    1  A    between atoms: C4_4  and  C5_5 
REMARK    2  A    between atoms: C8_8  and  O9_9 
REMARK    3  A    between atoms: C10_11  and  O11_12 
REMARK    4  A    between atoms: C16_18  and  O17_19 
REMARK    5  A    between atoms: C19_22  and  O20_23 
ROOT
HETATM    1  O1          0      42.329  66.667 -20.034  1.00  0.00    -0.286 OA
HETATM    2  C2          0      42.497  67.900 -19.822  1.00  0.00     0.201 C 
HETATM    3  C3          0      43.519  68.392 -19.028  1.00  0.00     0.067 C 
HETATM    4  C4          0      43.620  69.746 -18.727  1.00  0.00     0.103 C 
HETATM    5  O13         0      42.726  70.577 -19.232  1.00  0.00    -0.307 OA
HETATM    6  C14         0      41.715  70.157 -19.961  1.00  0.00     0.107 C 
HETATM    7  C15         0      40.580  70.933 -20.153  1.00  0.00     0.049 C 
HETATM    8  C16         0      39.422  70.395 -20.702  1.00  0.00     0.093 C 
HETATM    9  C18         0      39.617  69.276 -21.502  1.00  0.00     0.048 C 
HETATM   10  C19         0      40.763  68.504 -21.368  1.00  0.00     0.096 C 
HETATM   11  C21         0      41.717  68.856 -20.453  1.00  0.00     0.084 C 
ENDROOT
BRANCH  10  12
HETATM   12  O20         0      40.757  67.191 -21.831  1.00  0.00    -0.359 OA
HETATM   13  H20         0      41.488  66.904 -22.365  1.00  0.00     0.218 HD
ENDBRANCH  10  12
BRANCH   4  14
HETATM   14  C5          0      44.288  70.105 -17.474  1.00  0.00     0.025 C 
HETATM   15  C6          0      45.648  70.366 -17.395  1.00  0.00     0.004 C 
HETATM   16  C7          0      46.060  71.390 -16.549  1.00  0.00     0.026 C 
HETATM   17  C8          0      45.167  72.044 -15.707  1.00  0.00     0.112 C 
HETATM   18  C10         0      44.024  71.319 -15.398  1.00  0.00     0.112 C 
HETATM   19  C12         0      43.586  70.359 -16.303  1.00  0.00     0.028 C 
BRANCH  17  20
HETATM   20  O9          0      45.334  73.383 -15.398  1.00  0.00    -0.357 OA
HETATM   21  H9          0      46.070  73.722 -14.901  1.00  0.00     0.218 HD
ENDBRANCH  17  20
BRANCH  18  22
HETATM   22  O11         0      43.193  71.842 -14.418  1.00  0.00    -0.357 OA
HETATM   23  H11         0      43.614  72.242 -13.665  1.00  0.00     0.218 HD
ENDBRANCH  18  22
ENDBRANCH   4  14
BRANCH   8  24
HETATM   24  O17         0      38.157  70.741 -20.216  1.00  0.00    -0.359 OA
HETATM   25  H17         0      38.048  71.354 -19.499  1.00  0.00     0.218 HD
ENDBRANCH   8  24
TORSDOF 5
ENDMDL
MODEL 2
REMARK VINA RESULT:      -6.1      2.281      6.541
REMARK  5 active torsions:
REMARK  status: ('A' for Active; 'I' for Inactive)
REMARK    1  A    between atoms: C4_4  and  C5_5 
REMARK    2  A    between atoms: C8_8  and  O9_9 
REMARK    3  A    between atoms: C10_11  and  O11_12 
REMARK    4  A    between atoms: C16_18  and  O17_19 
REMARK    5  A    between atoms: C19_22  and  O20_23 
ROOT
HETATM    1  O1          0      45.228  71.583 -20.033  1.00  0.00    -0.286 OA
HETATM    2  C2          0      44.782  70.483 -19.604  1.00  0.00     0.201 C 
HETATM    3  C3          0      44.526  69.403 -20.431  1.00  0.00     0.067 C 
HETATM    4  C4          0      43.939  68.239 -19.948  1.00  0.00     0.103 C 
HETATM    5  O13         0      43.641  68.164 -18.663  1.00  0.00    -0.307 OA
HETATM    6  C14         0      43.829  69.174 -17.841  1.00  0.00     0.107 C 
HETATM    7  C15         0      43.172  69.257 -16.622  1.00  0.00     0.049 C 
HETATM    8  C16         0      43.174  70.432 -15.880  1.00  0.00     0.093 C 
HETATM    9  C18         0      44.247  71.280 -16.127  1.00  0.00     0.048 C 
HETATM   10  C19         0      44.957  71.193 -17.317  1.00  0.00     0.096 C 
HETATM   11  C21         0      44.608  70.253 -18.248  1.00  0.00     0.084 C 
ENDROOT
BRANCH  10  12
HETATM   12  O20         0      45.711  72.282 -17.741  1.00  0.00    -0.359 OA
HETATM   13  H20         0      46.334  72.657 -17.131  1.00  0.00     0.218 HD
ENDBRANCH  10  12
BRANCH   4  14
HETATM   14  C5          0      43.169  67.433 -20.898  1.00  0.00     0.025 C 
HETATM   15  C6          0      42.915  66.083 -20.705  1.00  0.00     0.004 C 
HETATM   16  C7          0      41.663  65.603 -21.078  1.00  0.00     0.026 C 
HETATM   17  C8          0      40.743  66.406 -21.743  1.00  0.00     0.112 C 
HETATM   18  C10         0      41.299  67.477 -22.432  1.00  0.00     0.112 C 
HETATM   19  C12         0      42.510  67.991 -21.985  1.00  0.00     0.028 C 
BRANCH  17  20
HETATM   20  O9          0      39.384  66.247 -21.539  1.00  0.00    -0.357 OA
HETATM   21  H9          0      38.944  65.405 -21.547  1.00  0.00     0.218 HD
ENDBRANCH  17  20
BRANCH  18  22
HETATM   22  O11         0      40.453  68.196 -23.264  1.00  0.00    -0.357 OA
HETATM   23  H11         0      40.670  69.109 -23.412  1.00  0.00     0.218 HD
ENDBRANCH  18  22
ENDBRANCH   4  14
BRANCH   8  24
HETATM   24  O17         0      42.029  70.871 -15.206  1.00  0.00    -0.359 OA
HETATM   25  H17         0      41.277  71.215 -15.673  1.00  0.00     0.218 HD
ENDBRANCH   8  24
TORSDOF 5
ENDMDL
MODEL 3
REMARK VINA RESULT:      -6.1      1.858      3.040
REMARK  5 active torsions:
REMARK  status: ('A' for Active; 'I' for Inactive)
REMARK    1  A    between atoms: C4_4  and  C5_5 
REMARK    2  A    between atoms: C8_8  and  O9_9 
REMARK    3  A    between atoms: C10_11  and  O11_12 
REMARK    4  A    between atoms: C16_18  and  O17_19 
REMARK    5  A    between atoms: C19_22  and  O20_23 
ROOT
HETATM    1  O1          0      40.166  70.887 -20.233  1.00  0.00    -0.286 OA
HETATM    2  C2          0      41.269  70.314 -20.021  1.00  0.00     0.201 C 
HETATM    3  C3          0      42.220  70.814 -19.147  1.00  0.00     0.067 C 
HETATM    4  C4          0      43.468  70.219 -19.010  1.00  0.00     0.103 C 
HETATM    5  O13         0      43.738  69.138 -19.719  1.00  0.00    -0.307 OA
HETATM    6  C14         0      42.886  68.643 -20.590  1.00  0.00     0.107 C 
HETATM    7  C15         0      43.290  67.784 -21.602  1.00  0.00     0.049 C 
HETATM    8  C16         0      42.448  67.469 -22.662  1.00  0.00     0.093 C 
HETATM    9  C18         0      41.091  67.601 -22.392  1.00  0.00     0.048 C 
HETATM   10  C19         0      40.654  68.417 -21.357  1.00  0.00     0.096 C 
HETATM   11  C21         0      41.566  69.082 -20.585  1.00  0.00     0.084 C 
ENDROOT
BRANCH  10  12
HETATM   12  O20         0      39.343  68.883 -21.366  1.00  0.00    -0.359 OA
HETATM   13  H20         0      39.191  69.789 -21.125  1.00  0.00     0.218 HD
ENDBRANCH  10  12
BRANCH   4  14
HETATM   14  C5          0      44.576  71.077 -18.584  1.00  0.00     0.025 C 
HETATM   15  C6          0      45.375  71.772 -19.479  1.00  0.00     0.004 C 
HETATM   16  C7          0      45.784  73.053 -19.119  1.00  0.00     0.026 C 
HETATM   17  C8          0      45.521  73.574 -17.857  1.00  0.00     0.112 C 
HETATM   18  C10         0      45.304  72.622 -16.870  1.00  0.00     0.112 C 
HETATM   19  C12         0      44.814  71.377 -17.249  1.00  0.00     0.028 C 
BRANCH  17  20
HETATM   20  O9          0      45.290  74.927 -17.683  1.00  0.00    -0.357 OA
HETATM   21  H9          0      45.001  75.507 -18.378  1.00  0.00     0.218 HD
ENDBRANCH  17  20
BRANCH  18  22
HETATM   22  O11         0      45.225  73.079 -15.562  1.00  0.00    -0.357 OA
HETATM   23  H11         0      46.037  73.357 -15.154  1.00  0.00     0.218 HD
ENDBRANCH  18  22
ENDBRANCH   4  14
BRANCH   8  24
HETATM   24  O17         0      42.931  67.363 -23.971  1.00  0.00    -0.359 OA
HETATM   25  H17         0      42.345  67.320 -24.717  1.00  0.00     0.218 HD
ENDBRANCH   8  24
TORSDOF 5
ENDMDL
MODEL 4
REMARK VINA RESULT:      -6.1      3.660      6.760
REMARK  5 active torsions:
REMARK  status: ('A' for Active; 'I' for Inactive)
REMARK    1  A    between atoms: C4_4  and  C5_5 
REMARK    2  A    between atoms: C8_8  and  O9_9 
REMARK    3  A    between atoms: C10_11  and  O11_12 
REMARK    4  A    between atoms: C16_18  and  O17_19 
REMARK    5  A    between atoms: C19_22  and  O20_23 
ROOT
HETATM    1  O1          0      47.071  73.766 -16.851  1.00  0.00    -0.286 OA
HETATM    2  C2          0      46.431  73.337 -17.851  1.00  0.00     0.201 C 
HETATM    3  C3          0      45.328  72.508 -17.736  1.00  0.00     0.067 C 
HETATM    4  C4          0      44.704  71.966 -18.854  1.00  0.00     0.103 C 
HETATM    5  O13         0      45.170  72.273 -20.052  1.00  0.00    -0.307 OA
HETATM    6  C14         0      46.236  73.025 -20.215  1.00  0.00     0.107 C 
HETATM    7  C15         0      46.956  73.025 -21.402  1.00  0.00     0.049 C 
HETATM    8  C16         0      48.211  73.616 -21.485  1.00  0.00     0.093 C 
HETATM    9  C18         0      48.451  74.617 -20.551  1.00  0.00     0.048 C 
HETATM   10  C19         0      47.717  74.674 -19.374  1.00  0.00     0.096 C 
HETATM   11  C21         0      46.738  73.748 -19.139  1.00  0.00     0.084 C 
ENDROOT
BRANCH  10  12
HETATM   12  O20         0      48.232  75.371 -18.284  1.00  0.00    -0.359 OA
HETATM   13  H20         0      49.118  75.173 -18.008  1.00  0.00     0.218 HD
ENDBRANCH  10  12
BRANCH   4  14
HETATM   14  C5          0      43.996  70.697 -18.677  1.00  0.00     0.025 C 
HETATM   15  C6          0      44.179  69.610 -19.519  1.00  0.00     0.004 C 
HETATM   16  C7          0      44.187  68.343 -18.944  1.00  0.00     0.026 C 
HETATM   17  C8          0      43.890  68.151 -17.600  1.00  0.00     0.112 C 
HETATM   18  C10         0      43.127  69.158 -17.025  1.00  0.00     0.112 C 
HETATM   19  C12         0      43.203  70.436 -17.567  1.00  0.00     0.028 C 
BRANCH  17  20
HETATM   20  O9          0      44.498  67.140 -16.877  1.00  0.00    -0.357 OA
HETATM   21  H9          0      44.862  66.355 -17.270  1.00  0.00     0.218 HD
ENDBRANCH  17  20
BRANCH  18  22
HETATM   22  O11         0      42.644  68.928 -15.745  1.00  0.00    -0.357 OA
HETATM   23  H11         0      42.563  69.683 -15.173  1.00  0.00     0.218 HD
ENDBRANCH  18  22
ENDBRANCH   4  14
BRANCH   8  24
HETATM   24  O17         0      49.249  73.024 -22.212  1.00  0.00    -0.359 OA
HETATM   25  H17         0      49.399  72.087 -22.196  1.00  0.00     0.218 HD
ENDBRANCH   8  24
TORSDOF 5
ENDMDL
MODEL 5
REMARK VINA RESULT:      -6.1      3.671      6.578
REMARK  5 active torsions:
REMARK  status: ('A' for Active; 'I' for Inactive)
REMARK    1  A    between atoms: C4_4  and  C5_5 
REMARK    2  A    between atoms: C8_8  and  O9_9 
REMARK    3  A    between atoms: C10_11  and  O11_12 
REMARK    4  A    between atoms: C16_18  and  O17_19 
REMARK    5  A    between atoms: C19_22  and  O20_23 
ROOT
HETATM    1  O1          0      44.360  72.494 -14.066  1.00  0.00    -0.286 OA
HETATM    2  C2          0      45.303  72.590 -14.900  1.00  0.00     0.201 C 
HETATM    3  C3          0      46.474  73.278 -14.633  1.00  0.00     0.067 C 
HETATM    4  C4          0      47.453  73.456 -15.604  1.00  0.00     0.103 C 
HETATM    5  O13         0      47.259  72.934 -16.802  1.00  0.00    -0.307 OA
HETATM    6  C14         0      46.150  72.303 -17.120  1.00  0.00     0.107 C 
HETATM    7  C15         0      45.770  72.111 -18.440  1.00  0.00     0.049 C 
HETATM    8  C16         0      44.491  71.679 -18.768  1.00  0.00     0.093 C 
HETATM    9  C18         0      43.838  70.968 -17.769  1.00  0.00     0.048 C 
HETATM   10  C19         0      44.223  71.100 -16.442  1.00  0.00     0.096 C 
HETATM   11  C21         0      45.264  71.926 -16.116  1.00  0.00     0.084 C 
ENDROOT
BRANCH  10  12
HETATM   12  O20         0      43.326  70.753 -15.436  1.00  0.00    -0.359 OA
HETATM   13  H20         0      42.917  69.897 -15.480  1.00  0.00     0.218 HD
ENDBRANCH  10  12
BRANCH   4  14
HETATM   14  C5          0      48.316  74.632 -15.478  1.00  0.00     0.025 C 
HETATM   15  C6          0      49.064  75.131 -16.534  1.00  0.00     0.004 C 
HETATM   16  C7          0      49.172  76.513 -16.650  1.00  0.00     0.026 C 
HETATM   17  C8          0      48.667  77.369 -15.677  1.00  0.00     0.112 C 
HETATM   18  C10         0      48.525  76.797 -14.420  1.00  0.00     0.112 C 
HETATM   19  C12         0      48.334  75.423 -14.337  1.00  0.00     0.028 C 
BRANCH  17  20
HETATM   20  O9          0      48.160  78.610 -16.019  1.00  0.00    -0.357 OA
HETATM   21  H9          0      47.655  78.776 -16.806  1.00  0.00     0.218 HD
ENDBRANCH  17  20
BRANCH  18  22
HETATM   22  O11         0      48.207  77.651 -13.374  1.00  0.00    -0.357 OA
HETATM   23  H11         0      47.591  78.350 -13.561  1.00  0.00     0.218 HD
ENDBRANCH  18  22
ENDBRANCH   4  14
BRANCH   8  24
HETATM   24  O17         0      43.802  72.206 -19.866  1.00  0.00    -0.359 OA
HETATM   25  H17         0      43.800  71.770 -20.710  1.00  0.00     0.218 HD
ENDBRANCH   8  24
TORSDOF 5
ENDMDL
MODEL 6
REMARK VINA RESULT:      -5.8      2.681      6.865
REMARK  5 active torsions:
REMARK  status: ('A' for Active; 'I' for Inactive)
REMARK    1  A    between atoms: C4_4  and  C5_5 
REMARK    2  A    between atoms: C8_8  and  O9_9 
REMARK    3  A    between atoms: C10_11  and  O11_12 
REMARK    4  A    between atoms: C16_18  and  O17_19 
REMARK    5  A    between atoms: C19_22  and  O20_23 
ROOT
HETATM    1  O1          0      42.488  70.769 -15.186  1.00  0.00    -0.286 OA
HETATM    2  C2          0      43.372  70.813 -16.085  1.00  0.00     0.201 C 
HETATM    3  C3          0      43.224  70.193 -17.314  1.00  0.00     0.067 C 
HETATM    4  C4          0      44.255  70.171 -18.248  1.00  0.00     0.103 C 
HETATM    5  O13         0      45.391  70.777 -17.953  1.00  0.00    -0.307 OA
HETATM    6  C14         0      45.597  71.348 -16.786  1.00  0.00     0.107 C 
HETATM    7  C15         0      46.875  71.622 -16.321  1.00  0.00     0.049 C 
HETATM    8  C16         0      47.100  71.985 -14.999  1.00  0.00     0.093 C 
HETATM    9  C18         0      46.011  72.560 -14.355  1.00  0.00     0.048 C 
HETATM   10  C19         0      44.721  72.344 -14.821  1.00  0.00     0.096 C 
HETATM   11  C21         0      44.521  71.573 -15.933  1.00  0.00     0.084 C 
ENDROOT
BRANCH  10  12
HETATM   12  O20         0      43.645  72.538 -13.960  1.00  0.00    -0.359 OA
HETATM   13  H20         0      43.798  73.026 -13.160  1.00  0.00     0.218 HD
ENDBRANCH  10  12
BRANCH   4  14
HETATM   14  C5          0      44.276  69.056 -19.196  1.00  0.00     0.025 C 
HETATM   15  C6          0      45.408  68.702 -19.915  1.00  0.00     0.004 C 
HETATM   16  C7          0      45.649  67.346 -20.111  1.00  0.00     0.026 C 
HETATM   17  C8          0      44.729  66.378 -19.724  1.00  0.00     0.112 C 
HETATM   18  C10         0      43.421  66.832 -19.615  1.00  0.00     0.112 C 
HETATM   19  C12         0      43.210  68.176 -19.334  1.00  0.00     0.028 C 
BRANCH  17  20
HETATM   20  O9          0      45.150  65.135 -19.285  1.00  0.00    -0.357 OA
HETATM   21  H9          0      44.598  64.361 -19.284  1.00  0.00     0.218 HD
ENDBRANCH  17  20
BRANCH  18  22
HETATM   22  O11         0      42.438  65.873 -19.417  1.00  0.00    -0.357 OA
HETATM   23  H11         0      42.668  64.973 -19.617  1.00  0.00     0.218 HD
ENDBRANCH  18  22
ENDBRANCH   4  14
BRANCH   8  24
HETATM   24  O17         0      48.205  71.504 -14.288  1.00  0.00    -0.359 OA
HETATM   25  H17         0      48.167  70.692 -13.796  1.00  0.00     0.218 HD
ENDBRANCH   8  24
TORSDOF 5
ENDMDL
MODEL 7
REMARK VINA RESULT:      -5.8      2.623      7.096
REMARK  5 active torsions:
REMARK  status: ('A' for Active; 'I' for Inactive)
REMARK    1  A    between atoms: C4_4  and  C5_5 
REMARK    2  A    between atoms: C8_8  and  O9_9 
REMARK    3  A    between atoms: C10_11  and  O11_12 
REMARK    4  A    between atoms: C16_18  and  O17_19 
REMARK    5  A    between atoms: C19_22  and  O20_23 
ROOT
HETATM    1  O1          0      44.744  69.618 -21.182  1.00  0.00    -0.286 OA
HETATM    2  C2          0      44.184  68.807 -20.394  1.00  0.00     0.201 C 
HETATM    3  C3          0      43.395  67.757 -20.832  1.00  0.00     0.067 C 
HETATM    4  C4          0      42.708  66.941 -19.941  1.00  0.00     0.103 C 
HETATM    5  O13         0      42.832  67.169 -18.646  1.00  0.00    -0.307 OA
HETATM    6  C14         0      43.538  68.175 -18.178  1.00  0.00     0.107 C 
HETATM    7  C15         0      43.357  68.659 -16.890  1.00  0.00     0.049 C 
HETATM    8  C16         0      43.912  69.867 -16.488  1.00  0.00     0.093 C 
HETATM    9  C18         0      45.033  70.266 -17.206  1.00  0.00     0.048 C 
HETATM   10  C19         0      45.270  69.766 -18.479  1.00  0.00     0.096 C 
HETATM   11  C21         0      44.402  68.861 -19.025  1.00  0.00     0.084 C 
ENDROOT
BRANCH  10  12
HETATM   12  O20         0      46.109  70.467 -19.340  1.00  0.00    -0.359 OA
HETATM   13  H20         0      45.718  71.116 -19.912  1.00  0.00     0.218 HD
ENDBRANCH  10  12
BRANCH   4  14
HETATM   14  C5          0      41.487  66.296 -20.429  1.00  0.00     0.025 C 
HETATM   15  C6          0      40.612  66.913 -21.311  1.00  0.00     0.004 C 
HETATM   16  C7          0      40.027  66.124 -22.296  1.00  0.00     0.026 C 
HETATM   17  C8          0      40.199  64.744 -22.323  1.00  0.00     0.112 C 
HETATM   18  C10         0      40.531  64.177 -21.100  1.00  0.00     0.112 C 
HETATM   19  C12         0      41.192  64.965 -20.165  1.00  0.00     0.028 C 
BRANCH  17  20
HETATM   20  O9          0      40.239  64.058 -23.524  1.00  0.00    -0.357 OA
HETATM   21  H9          0      40.758  64.332 -24.272  1.00  0.00     0.218 HD
ENDBRANCH  17  20
BRANCH  18  22
HETATM   22  O11         0      40.529  62.792 -21.029  1.00  0.00    -0.357 OA
HETATM   23  H11         0      39.865  62.390 -20.481  1.00  0.00     0.218 HD
ENDBRANCH  18  22
ENDBRANCH   4  14
BRANCH   8  24
HETATM   24  O17         0      43.207  70.758 -15.671  1.00  0.00    -0.359 OA
HETATM   25  H17         0      42.332  71.052 -15.892  1.00  0.00     0.218 HD
ENDBRANCH   8  24
TORSDOF 5
ENDMDL
MODEL 8
REMARK VINA RESULT:      -5.7      3.202      7.435
REMARK  5 active torsions:
REMARK  status: ('A' for Active; 'I' for Inactive)
REMARK    1  A    between atoms: C4_4  and  C5_5 
REMARK    2  A    between atoms: C8_8  and  O9_9 
REMARK    3  A    between atoms: C10_11  and  O11_12 
REMARK    4  A    between atoms: C16_18  and  O17_19 
REMARK    5  A    between atoms: C19_22  and  O20_23 
ROOT
HETATM    1  O1          0      39.349  69.306 -21.125  1.00  0.00    -0.286 OA
HETATM    2  C2          0      40.375  68.572 -21.126  1.00  0.00     0.201 C 
HETATM    3  C3          0      40.426  67.355 -21.784  1.00  0.00     0.067 C 
HETATM    4  C4          0      41.532  66.518 -21.684  1.00  0.00     0.103 C 
HETATM    5  O13         0      42.562  66.912 -20.957  1.00  0.00    -0.307 OA
HETATM    6  C14         0      42.551  68.041 -20.281  1.00  0.00     0.107 C 
HETATM    7  C15         0      43.423  68.271 -19.227  1.00  0.00     0.049 C 
HETATM    8  C16         0      43.242  69.343 -18.362  1.00  0.00     0.093 C 
HETATM    9  C18         0      42.528  70.411 -18.892  1.00  0.00     0.048 C 
HETATM   10  C19         0      41.682  70.225 -19.976  1.00  0.00     0.096 C 
HETATM   11  C21         0      41.562  68.984 -20.539  1.00  0.00     0.084 C 
ENDROOT
BRANCH  10  12
HETATM   12  O20         0      40.672  71.151 -20.217  1.00  0.00    -0.359 OA
HETATM   13  H20         0      40.420  71.311 -21.119  1.00  0.00     0.218 HD
ENDBRANCH  10  12
BRANCH   4  14
HETATM   14  C5          0      41.304  65.083 -21.865  1.00  0.00     0.025 C 
HETATM   15  C6          0      41.949  64.118 -21.104  1.00  0.00     0.004 C 
HETATM   16  C7          0      41.214  63.000 -20.725  1.00  0.00     0.026 C 
HETATM   17  C8          0      39.924  62.780 -21.196  1.00  0.00     0.112 C 
HETATM   18  C10         0      39.626  63.422 -22.391  1.00  0.00     0.112 C 
HETATM   19  C12         0      40.317  64.586 -22.705  1.00  0.00     0.028 C 
BRANCH  17  20
HETATM   20  O9          0      38.979  62.148 -20.408  1.00  0.00    -0.357 OA
HETATM   21  H9          0      39.021  62.113 -19.459  1.00  0.00     0.218 HD
ENDBRANCH  17  20
BRANCH  18  22
HETATM   22  O11         0      38.425  63.089 -23.001  1.00  0.00    -0.357 OA
HETATM   23  H11         0      37.746  62.726 -22.444  1.00  0.00     0.218 HD
ENDBRANCH  18  22
ENDBRANCH   4  14
BRANCH   8  24
HETATM   24  O17         0      43.460  69.214 -16.986  1.00  0.00    -0.359 OA
HETATM   25  H17         0      42.869  68.717 -16.431  1.00  0.00     0.218 HD
ENDBRANCH   8  24
TORSDOF 5
ENDMDL
MODEL 9
REMARK VINA RESULT:      -5.6      4.607      6.523
REMARK  5 active torsions:
REMARK  status: ('A' for Active; 'I' for Inactive)
REMARK    1  A    between atoms: C4_4  and  C5_5 
REMARK    2  A    between atoms: C8_8  and  O9_9 
REMARK    3  A    between atoms: C10_11  and  O11_12 
REMARK    4  A    between atoms: C16_18  and  O17_19 
REMARK    5  A    between atoms: C19_22  and  O20_23 
ROOT
HETATM    1  O1          0      44.971  67.659 -20.535  1.00  0.00    -0.286 OA
HETATM    2  C2          0      44.424  67.795 -21.664  1.00  0.00     0.201 C 
HETATM    3  C3          0      45.112  68.230 -22.784  1.00  0.00     0.067 C 
HETATM    4  C4          0      44.463  68.470 -23.990  1.00  0.00     0.103 C 
HETATM    5  O13         0      43.161  68.256 -24.064  1.00  0.00    -0.307 OA
HETATM    6  C14         0      42.454  67.879 -23.021  1.00  0.00     0.107 C 
HETATM    7  C15         0      41.077  68.038 -22.976  1.00  0.00     0.049 C 
HETATM    8  C16         0      40.370  67.880 -21.790  1.00  0.00     0.093 C 
HETATM    9  C18         0      40.987  67.071 -20.843  1.00  0.00     0.048 C 
HETATM   10  C19         0      42.357  66.853 -20.886  1.00  0.00     0.096 C 
HETATM   11  C21         0      43.105  67.426 -21.879  1.00  0.00     0.084 C 
ENDROOT
BRANCH  10  12
HETATM   12  O20         0      43.015  66.429 -19.736  1.00  0.00    -0.359 OA
HETATM   13  H20         0      42.779  66.838 -18.912  1.00  0.00     0.218 HD
ENDBRANCH  10  12
BRANCH   4  14
HETATM   14  C5          0      45.069  69.451 -24.892  1.00  0.00     0.025 C 
HETATM   15  C6          0      44.480  69.835 -26.089  1.00  0.00     0.004 C 
HETATM   16  C7          0      44.580  71.174 -26.455  1.00  0.00     0.026 C 
HETATM   17  C8          0      45.351  72.074 -25.727  1.00  0.00     0.112 C 
HETATM   18  C10         0      46.363  71.493 -24.974  1.00  0.00     0.112 C 
HETATM   19  C12         0      46.199  70.180 -24.549  1.00  0.00     0.028 C 
BRANCH  17  20
HETATM   20  O9          0      44.979  73.402 -25.619  1.00  0.00    -0.357 OA
HETATM   21  H9          0      44.225  73.700 -25.123  1.00  0.00     0.218 HD
ENDBRANCH  17  20
BRANCH  18  22
HETATM   22  O11         0      47.277  72.352 -24.381  1.00  0.00    -0.357 OA
HETATM   23  H11         0      46.960  73.214 -24.135  1.00  0.00     0.218 HD
ENDBRANCH  18  22
ENDBRANCH   4  14
BRANCH   8  24
HETATM   24  O17         0      39.310  68.729 -21.454  1.00  0.00    -0.359 OA
HETATM   25  H17         0      39.040  69.440 -22.023  1.00  0.00     0.218 HD
ENDBRANCH   8  24
TORSDOF 5
ENDMDL
