MODEL 1
REMARK VINA RESULT:      -2.4      0.000      0.000
REMARK  5 active torsions:
REMARK  status: ('A' for Active; 'I' for Inactive)
REMARK    1  A    between atoms: C4_4  and  C5_5 
REMARK    2  A    between atoms: C8_8  and  O9_9 
REMARK    3  A    between atoms: C10_11  and  O11_12 
REMARK    4  A    between atoms: C16_18  and  O17_19 
REMARK    5  A    between atoms: C19_22  and  O20_23 
ROOT
HETATM    1  O1          0      55.321  68.820 -34.525  1.00  0.00    -0.286 OA
HETATM    2  C2          0      55.300  69.127 -33.302  1.00  0.00     0.201 C 
HETATM    3  C3          0      56.388  68.948 -32.465  1.00  0.00     0.067 C 
HETATM    4  C4          0      56.307  69.199 -31.100  1.00  0.00     0.103 C 
HETATM    5  O13         0      55.164  69.637 -30.602  1.00  0.00    -0.307 OA
HETATM    6  C14         0      54.090  69.789 -31.346  1.00  0.00     0.107 C 
HETATM    7  C15         0      52.820  69.854 -30.791  1.00  0.00     0.049 C 
HETATM    8  C16         0      51.681  69.757 -31.582  1.00  0.00     0.093 C 
HETATM    9  C18         0      51.856  70.125 -32.911  1.00  0.00     0.048 C 
HETATM   10  C19         0      53.120  70.116 -33.485  1.00  0.00     0.096 C 
HETATM   11  C21         0      54.205  69.758 -32.732  1.00  0.00     0.084 C 
ENDROOT
BRANCH  10  12
HETATM   12  O20         0      53.238  70.053 -34.870  1.00  0.00    -0.359 OA
HETATM   13  H20         0      53.023  69.233 -35.298  1.00  0.00     0.218 HD
ENDBRANCH  10  12
BRANCH   4  14
HETATM   14  C5          0      57.216  68.454 -30.227  1.00  0.00     0.025 C 
HETATM   15  C6          0      58.561  68.770 -30.097  1.00  0.00     0.004 C 
HETATM   16  C7          0      59.130  68.660 -28.832  1.00  0.00     0.026 C 
HETATM   17  C8          0      58.424  68.126 -27.759  1.00  0.00     0.112 C 
HETATM   18  C10         0      57.377  67.286 -28.114  1.00  0.00     0.112 C 
HETATM   19  C12         0      56.770  67.474 -29.350  1.00  0.00     0.028 C 
BRANCH  17  20
HETATM   20  O9          0      58.639  68.584 -26.471  1.00  0.00    -0.357 OA
HETATM   21  H9          0      58.004  69.091 -25.978  1.00  0.00     0.218 HD
ENDBRANCH  17  20
BRANCH  18  22
HETATM   22  O11         0      56.762  66.581 -27.089  1.00  0.00    -0.357 OA
HETATM   23  H11         0      56.338  67.092 -26.409  1.00  0.00     0.218 HD
ENDBRANCH  18  22
ENDBRANCH   4  14
BRANCH   8  24
HETATM   24  O17         0      50.560  69.034 -31.160  1.00  0.00    -0.359 OA
HETATM   25  H17         0      50.643  68.229 -30.662  1.00  0.00     0.218 HD
ENDBRANCH   8  24
TORSDOF 5
ENDMDL
MODEL 2
REMARK VINA RESULT:      -2.2      1.765      2.135
REMARK  5 active torsions:
REMARK  status: ('A' for Active; 'I' for Inactive)
REMARK    1  A    between atoms: C4_4  and  C5_5 
REMARK    2  A    between atoms: C8_8  and  O9_9 
REMARK    3  A    between atoms: C10_11  and  O11_12 
REMARK    4  A    between atoms: C16_18  and  O17_19 
REMARK    5  A    between atoms: C19_22  and  O20_23 
ROOT
HETATM    1  O1          0      52.829  66.869 -32.601  1.00  0.00    -0.286 OA
HETATM    2  C2          0      53.425  67.746 -31.918  1.00  0.00     0.201 C 
HETATM    3  C3          0      54.803  67.796 -31.798  1.00  0.00     0.067 C 
HETATM    4  C4          0      55.429  68.709 -30.957  1.00  0.00     0.103 C 
HETATM    5  O13         0      54.682  69.560 -30.276  1.00  0.00    -0.307 OA
HETATM    6  C14         0      53.368  69.532 -30.325  1.00  0.00     0.107 C 
HETATM    7  C15         0      52.587  70.124 -29.343  1.00  0.00     0.049 C 
HETATM    8  C16         0      51.222  69.876 -29.260  1.00  0.00     0.093 C 
HETATM    9  C18         0      50.623  69.481 -30.450  1.00  0.00     0.048 C 
HETATM   10  C19         0      51.383  68.928 -31.472  1.00  0.00     0.096 C 
HETATM   11  C21         0      52.734  68.786 -31.313  1.00  0.00     0.084 C 
ENDROOT
BRANCH  10  12
HETATM   12  O20         0      50.755  68.155 -32.444  1.00  0.00    -0.359 OA
HETATM   13  H20         0      50.980  67.234 -32.494  1.00  0.00     0.218 HD
ENDBRANCH  10  12
BRANCH   4  14
HETATM   14  C5          0      56.740  68.338 -30.422  1.00  0.00     0.025 C 
HETATM   15  C6          0      57.932  68.777 -30.981  1.00  0.00     0.004 C 
HETATM   16  C7          0      58.969  69.102 -30.114  1.00  0.00     0.026 C 
HETATM   17  C8          0      58.875  68.873 -28.745  1.00  0.00     0.112 C 
HETATM   18  C10         0      57.963  67.890 -28.384  1.00  0.00     0.112 C 
HETATM   19  C12         0      56.888  67.643 -29.229  1.00  0.00     0.028 C 
BRANCH  17  20
HETATM   20  O9          0      59.492  69.718 -27.840  1.00  0.00    -0.357 OA
HETATM   21  H9          0      60.353  69.558 -27.471  1.00  0.00     0.218 HD
ENDBRANCH  17  20
BRANCH  18  22
HETATM   22  O11         0      57.965  67.489 -27.055  1.00  0.00    -0.357 OA
HETATM   23  H11         0      58.800  67.224 -26.687  1.00  0.00     0.218 HD
ENDBRANCH  18  22
ENDBRANCH   4  14
BRANCH   8  24
HETATM   24  O17         0      50.585  69.709 -28.025  1.00  0.00    -0.359 OA
HETATM   25  H17         0      50.508  68.855 -27.615  1.00  0.00     0.218 HD
ENDBRANCH   8  24
TORSDOF 5
ENDMDL
MODEL 3
REMARK VINA RESULT:      -2.1      2.103      3.051
REMARK  5 active torsions:
REMARK  status: ('A' for Active; 'I' for Inactive)
REMARK    1  A    between atoms: C4_4  and  C5_5 
REMARK    2  A    between atoms: C8_8  and  O9_9 
REMARK    3  A    between atoms: C10_11  and  O11_12 
REMARK    4  A    between atoms: C16_18  and  O17_19 
REMARK    5  A    between atoms: C19_22  and  O20_23 
ROOT
HETATM    1  O1          0      52.774  69.771 -33.906  1.00  0.00    -0.286 OA
HETATM    2  C2          0      53.420  69.812 -32.823  1.00  0.00     0.201 C 
HETATM    3  C3          0      54.799  69.924 -32.775  1.00  0.00     0.067 C 
HETATM    4  C4          0      55.493  69.863 -31.572  1.00  0.00     0.103 C 
HETATM    5  O13         0      54.809  69.716 -30.451  1.00  0.00    -0.307 OA
HETATM    6  C14         0      53.502  69.568 -30.443  1.00  0.00     0.107 C 
HETATM    7  C15         0      52.834  69.024 -29.356  1.00  0.00     0.049 C 
HETATM    8  C16         0      51.503  68.635 -29.447  1.00  0.00     0.093 C 
HETATM    9  C18         0      50.769  69.282 -30.434  1.00  0.00     0.048 C 
HETATM   10  C19         0      51.409  69.878 -31.512  1.00  0.00     0.096 C 
HETATM   11  C21         0      52.774  69.843 -31.596  1.00  0.00     0.084 C 
ENDROOT
BRANCH  10  12
HETATM   12  O20         0      50.690  70.125 -32.678  1.00  0.00    -0.359 OA
HETATM   13  H20         0      51.176  70.365 -33.458  1.00  0.00     0.218 HD
ENDBRANCH  10  12
BRANCH   4  14
HETATM   14  C5          0      56.877  69.389 -31.620  1.00  0.00     0.025 C 
HETATM   15  C6          0      57.704  69.368 -30.507  1.00  0.00     0.004 C 
HETATM   16  C7          0      58.570  68.287 -30.367  1.00  0.00     0.026 C 
HETATM   17  C8          0      58.706  67.329 -31.365  1.00  0.00     0.112 C 
HETATM   18  C10         0      58.350  67.760 -32.636  1.00  0.00     0.112 C 
HETATM   19  C12         0      57.418  68.785 -32.748  1.00  0.00     0.028 C 
BRANCH  17  20
HETATM   20  O9          0      58.973  66.008 -31.048  1.00  0.00    -0.357 OA
HETATM   21  H9          0      58.662  65.270 -31.559  1.00  0.00     0.218 HD
ENDBRANCH  17  20
BRANCH  18  22
HETATM   22  O11         0      58.643  66.910 -33.693  1.00  0.00    -0.357 OA
HETATM   23  H11         0      58.143  67.029 -34.492  1.00  0.00     0.218 HD
ENDBRANCH  18  22
ENDBRANCH   4  14
BRANCH   8  24
HETATM   24  O17         0      51.042  67.464 -28.835  1.00  0.00    -0.359 OA
HETATM   25  H17         0      50.114  67.285 -28.737  1.00  0.00     0.218 HD
ENDBRANCH   8  24
TORSDOF 5
ENDMDL
MODEL 4
REMARK VINA RESULT:      -2.1      2.792      5.133
REMARK  5 active torsions:
REMARK  status: ('A' for Active; 'I' for Inactive)
REMARK    1  A    between atoms: C4_4  and  C5_5 
REMARK    2  A    between atoms: C8_8  and  O9_9 
REMARK    3  A    between atoms: C10_11  and  O11_12 
REMARK    4  A    between atoms: C16_18  and  O17_19 
REMARK    5  A    between atoms: C19_22  and  O20_23 
ROOT
HETATM    1  O1          0      55.454  65.761 -27.834  1.00  0.00    -0.286 OA
HETATM    2  C2          0      55.094  66.741 -28.543  1.00  0.00     0.201 C 
HETATM    3  C3          0      55.856  67.229 -29.590  1.00  0.00     0.067 C 
HETATM    4  C4          0      55.486  68.372 -30.289  1.00  0.00     0.103 C 
HETATM    5  O13         0      54.367  68.989 -29.951  1.00  0.00    -0.307 OA
HETATM    6  C14         0      53.626  68.589 -28.941  1.00  0.00     0.107 C 
HETATM    7  C15         0      52.702  69.427 -28.336  1.00  0.00     0.049 C 
HETATM    8  C16         0      52.111  69.094 -27.123  1.00  0.00     0.093 C 
HETATM    9  C18         0      52.071  67.734 -26.844  1.00  0.00     0.048 C 
HETATM   10  C19         0      52.951  66.859 -27.467  1.00  0.00     0.096 C 
HETATM   11  C21         0      53.854  67.339 -28.376  1.00  0.00     0.084 C 
ENDROOT
BRANCH  10  12
HETATM   12  O20         0      53.204  65.620 -26.887  1.00  0.00    -0.359 OA
HETATM   13  H20         0      53.405  64.892 -27.462  1.00  0.00     0.218 HD
ENDBRANCH  10  12
BRANCH   4  14
HETATM   14  C5          0      56.556  69.149 -30.918  1.00  0.00     0.025 C 
HETATM   15  C6          0      57.843  69.211 -30.403  1.00  0.00     0.004 C 
HETATM   16  C7          0      58.900  69.215 -31.307  1.00  0.00     0.026 C 
HETATM   17  C8          0      58.686  69.292 -32.679  1.00  0.00     0.112 C 
HETATM   18  C10         0      57.469  69.852 -33.046  1.00  0.00     0.112 C 
HETATM   19  C12         0      56.405  69.758 -32.157  1.00  0.00     0.028 C 
BRANCH  17  20
HETATM   20  O9          0      59.539  68.659 -33.566  1.00  0.00    -0.357 OA
HETATM   21  H9          0      60.423  68.391 -33.347  1.00  0.00     0.218 HD
ENDBRANCH  17  20
BRANCH  18  22
HETATM   22  O11         0      57.284  70.125 -34.393  1.00  0.00    -0.357 OA
HETATM   23  H11         0      57.147  69.381 -34.968  1.00  0.00     0.218 HD
ENDBRANCH  18  22
ENDBRANCH   4  14
BRANCH   8  24
HETATM   24  O17         0      51.892  70.056 -26.130  1.00  0.00    -0.359 OA
HETATM   25  H17         0      52.440  70.108 -25.356  1.00  0.00     0.218 HD
ENDBRANCH   8  24
TORSDOF 5
ENDMDL
MODEL 5
REMARK VINA RESULT:      -2.1      3.086      5.168
REMARK  5 active torsions:
REMARK  status: ('A' for Active; 'I' for Inactive)
REMARK    1  A    between atoms: C4_4  and  C5_5 
REMARK    2  A    between atoms: C8_8  and  O9_9 
REMARK    3  A    between atoms: C10_11  and  O11_12 
REMARK    4  A    between atoms: C16_18  and  O17_19 
REMARK    5  A    between atoms: C19_22  and  O20_23 
ROOT
HETATM    1  O1          0      52.622  66.042 -30.549  1.00  0.00    -0.286 OA
HETATM    2  C2          0      52.749  67.297 -30.579  1.00  0.00     0.201 C 
HETATM    3  C3          0      53.444  67.957 -31.579  1.00  0.00     0.067 C 
HETATM    4  C4          0      53.657  69.330 -31.533  1.00  0.00     0.103 C 
HETATM    5  O13         0      53.162  70.016 -30.517  1.00  0.00    -0.307 OA
HETATM    6  C14         0      52.527  69.433 -29.524  1.00  0.00     0.107 C 
HETATM    7  C15         0      52.364  70.057 -28.295  1.00  0.00     0.049 C 
HETATM    8  C16         0      51.925  69.353 -27.181  1.00  0.00     0.093 C 
HETATM    9  C18         0      51.182  68.213 -27.462  1.00  0.00     0.048 C 
HETATM   10  C19         0      51.286  67.590 -28.699  1.00  0.00     0.096 C 
HETATM   11  C21         0      52.115  68.112 -29.654  1.00  0.00     0.084 C 
ENDROOT
BRANCH  10  12
HETATM   12  O20         0      50.903  66.258 -28.824  1.00  0.00    -0.359 OA
HETATM   13  H20         0      50.545  65.824 -28.059  1.00  0.00     0.218 HD
ENDBRANCH  10  12
BRANCH   4  14
HETATM   14  C5          0      54.839  69.848 -32.224  1.00  0.00     0.025 C 
HETATM   15  C6          0      56.031  70.123 -31.571  1.00  0.00     0.004 C 
HETATM   16  C7          0      57.215  69.822 -32.236  1.00  0.00     0.026 C 
HETATM   17  C8          0      57.219  69.387 -33.557  1.00  0.00     0.112 C 
HETATM   18  C10         0      56.096  69.747 -34.289  1.00  0.00     0.112 C 
HETATM   19  C12         0      54.904  69.959 -33.607  1.00  0.00     0.028 C 
BRANCH  17  20
HETATM   20  O9          0      58.176  68.495 -34.007  1.00  0.00    -0.357 OA
HETATM   21  H9          0      58.804  68.694 -34.691  1.00  0.00     0.218 HD
ENDBRANCH  17  20
BRANCH  18  22
HETATM   22  O11         0      56.132  69.505 -35.655  1.00  0.00    -0.357 OA
HETATM   23  H11         0      56.000  70.252 -36.228  1.00  0.00     0.218 HD
ENDBRANCH  18  22
ENDBRANCH   4  14
BRANCH   8  24
HETATM   24  O17         0      52.472  69.580 -25.913  1.00  0.00    -0.359 OA
HETATM   25  H17         0      53.405  69.701 -25.786  1.00  0.00     0.218 HD
ENDBRANCH   8  24
TORSDOF 5
ENDMDL
MODEL 6
REMARK VINA RESULT:      -2.0      2.097      2.715
REMARK  5 active torsions:
REMARK  status: ('A' for Active; 'I' for Inactive)
REMARK    1  A    between atoms: C4_4  and  C5_5 
REMARK    2  A    between atoms: C8_8  and  O9_9 
REMARK    3  A    between atoms: C10_11  and  O11_12 
REMARK    4  A    between atoms: C16_18  and  O17_19 
REMARK    5  A    between atoms: C19_22  and  O20_23 
ROOT
HETATM    1  O1          0      54.220  69.754 -34.318  1.00  0.00    -0.286 OA
HETATM    2  C2          0      54.409  69.718 -33.071  1.00  0.00     0.201 C 
HETATM    3  C3          0      55.670  69.776 -32.502  1.00  0.00     0.067 C 
HETATM    4  C4          0      55.858  69.632 -31.132  1.00  0.00     0.103 C 
HETATM    5  O13         0      54.799  69.456 -30.361  1.00  0.00    -0.307 OA
HETATM    6  C14         0      53.584  69.357 -30.854  1.00  0.00     0.107 C 
HETATM    7  C15         0      52.546  68.786 -30.132  1.00  0.00     0.049 C 
HETATM    8  C16         0      51.342  68.452 -30.739  1.00  0.00     0.093 C 
HETATM    9  C18         0      51.045  69.172 -31.890  1.00  0.00     0.048 C 
HETATM   10  C19         0      52.054  69.795 -32.612  1.00  0.00     0.096 C 
HETATM   11  C21         0      53.349  69.714 -32.178  1.00  0.00     0.084 C 
ENDROOT
BRANCH  10  12
HETATM   12  O20         0      51.833  70.125 -33.945  1.00  0.00    -0.359 OA
HETATM   13  H20         0      51.436  70.966 -34.136  1.00  0.00     0.218 HD
ENDBRANCH  10  12
BRANCH   4  14
HETATM   14  C5          0      57.150  69.110 -30.684  1.00  0.00     0.025 C 
HETATM   15  C6          0      57.311  67.821 -30.195  1.00  0.00     0.004 C 
HETATM   16  C7          0      58.475  67.142 -30.541  1.00  0.00     0.026 C 
HETATM   17  C8          0      59.504  67.766 -31.237  1.00  0.00     0.112 C 
HETATM   18  C10         0      59.530  69.149 -31.118  1.00  0.00     0.112 C 
HETATM   19  C12         0      58.336  69.811 -30.855  1.00  0.00     0.028 C 
BRANCH  17  20
HETATM   20  O9          0      60.286  67.058 -32.133  1.00  0.00    -0.357 OA
HETATM   21  H9          0      60.781  67.462 -32.836  1.00  0.00     0.218 HD
ENDBRANCH  17  20
BRANCH  18  22
HETATM   22  O11         0      60.639  69.804 -31.633  1.00  0.00    -0.357 OA
HETATM   23  H11         0      60.482  70.443 -32.318  1.00  0.00     0.218 HD
ENDBRANCH  18  22
ENDBRANCH   4  14
BRANCH   8  24
HETATM   24  O17         0      50.665  67.271 -30.416  1.00  0.00    -0.359 OA
HETATM   25  H17         0      50.898  66.755 -29.653  1.00  0.00     0.218 HD
ENDBRANCH   8  24
TORSDOF 5
ENDMDL
MODEL 7
REMARK VINA RESULT:      -2.0      2.627      6.142
REMARK  5 active torsions:
REMARK  status: ('A' for Active; 'I' for Inactive)
REMARK    1  A    between atoms: C4_4  and  C5_5 
REMARK    2  A    between atoms: C8_8  and  O9_9 
REMARK    3  A    between atoms: C10_11  and  O11_12 
REMARK    4  A    between atoms: C16_18  and  O17_19 
REMARK    5  A    between atoms: C19_22  and  O20_23 
ROOT
HETATM    1  O1          0      56.213  65.844 -31.163  1.00  0.00    -0.286 OA
HETATM    2  C2          0      56.203  67.105 -31.114  1.00  0.00     0.201 C 
HETATM    3  C3          0      55.118  67.829 -30.650  1.00  0.00     0.067 C 
HETATM    4  C4          0      55.093  69.218 -30.702  1.00  0.00     0.103 C 
HETATM    5  O13         0      56.143  69.854 -31.190  1.00  0.00    -0.307 OA
HETATM    6  C14         0      57.183  69.214 -31.678  1.00  0.00     0.107 C 
HETATM    7  C15         0      58.084  69.830 -32.535  1.00  0.00     0.049 C 
HETATM    8  C16         0      59.025  69.092 -33.244  1.00  0.00     0.093 C 
HETATM    9  C18         0      59.363  67.870 -32.675  1.00  0.00     0.048 C 
HETATM   10  C19         0      58.505  67.249 -31.778  1.00  0.00     0.096 C 
HETATM   11  C21         0      57.325  67.852 -31.438  1.00  0.00     0.084 C 
ENDROOT
BRANCH  10  12
HETATM   12  O20         0      58.625  65.880 -31.560  1.00  0.00    -0.359 OA
HETATM   13  H20         0      58.776  65.320 -32.312  1.00  0.00     0.218 HD
ENDBRANCH  10  12
BRANCH   4  14
HETATM   14  C5          0      53.780  69.862 -30.781  1.00  0.00     0.025 C 
HETATM   15  C6          0      53.140  70.120 -31.984  1.00  0.00     0.004 C 
HETATM   16  C7          0      51.760  69.947 -32.031  1.00  0.00     0.026 C 
HETATM   17  C8          0      51.022  69.659 -30.888  1.00  0.00     0.112 C 
HETATM   18  C10         0      51.624  70.043 -29.697  1.00  0.00     0.112 C 
HETATM   19  C12         0      53.011  70.125 -29.654  1.00  0.00     0.028 C 
BRANCH  17  20
HETATM   20  O9          0      49.891  68.865 -30.956  1.00  0.00    -0.357 OA
HETATM   21  H9          0      49.846  67.980 -30.613  1.00  0.00     0.218 HD
ENDBRANCH  17  20
BRANCH  18  22
HETATM   22  O11         0      50.855  69.951 -28.546  1.00  0.00    -0.357 OA
HETATM   23  H11         0      51.174  69.377 -27.859  1.00  0.00     0.218 HD
ENDBRANCH  18  22
ENDBRANCH   4  14
BRANCH   8  24
HETATM   24  O17         0      59.340  69.398 -34.573  1.00  0.00    -0.359 OA
HETATM   25  H17         0      58.872  69.005 -35.300  1.00  0.00     0.218 HD
ENDBRANCH   8  24
TORSDOF 5
ENDMDL
MODEL 8
REMARK VINA RESULT:      -2.0      2.969      4.182
REMARK  5 active torsions:
REMARK  status: ('A' for Active; 'I' for Inactive)
REMARK    1  A    between atoms: C4_4  and  C5_5 
REMARK    2  A    between atoms: C8_8  and  O9_9 
REMARK    3  A    between atoms: C10_11  and  O11_12 
REMARK    4  A    between atoms: C16_18  and  O17_19 
REMARK    5  A    between atoms: C19_22  and  O20_23 
ROOT
HETATM    1  O1          0      54.377  66.015 -31.105  1.00  0.00    -0.286 OA
HETATM    2  C2          0      54.522  67.268 -31.133  1.00  0.00     0.201 C 
HETATM    3  C3          0      55.576  67.887 -31.783  1.00  0.00     0.067 C 
HETATM    4  C4          0      55.769  69.262 -31.713  1.00  0.00     0.103 C 
HETATM    5  O13         0      54.908  69.989 -31.023  1.00  0.00    -0.307 OA
HETATM    6  C14         0      53.912  69.448 -30.357  1.00  0.00     0.107 C 
HETATM    7  C15         0      53.264  70.125 -29.334  1.00  0.00     0.049 C 
HETATM    8  C16         0      52.394  69.468 -28.471  1.00  0.00     0.093 C 
HETATM    9  C18         0      51.819  68.313 -28.986  1.00  0.00     0.048 C 
HETATM   10  C19         0      52.416  67.636 -30.041  1.00  0.00     0.096 C 
HETATM   11  C21         0      53.573  68.120 -30.589  1.00  0.00     0.084 C 
ENDROOT
BRANCH  10  12
HETATM   12  O20         0      52.102  66.298 -30.255  1.00  0.00    -0.359 OA
HETATM   13  H20         0      52.670  65.793 -30.826  1.00  0.00     0.218 HD
ENDBRANCH  10  12
BRANCH   4  14
HETATM   14  C5          0      57.138  69.755 -31.875  1.00  0.00     0.025 C 
HETATM   15  C6          0      58.066  69.750 -30.844  1.00  0.00     0.004 C 
HETATM   16  C7          0      59.384  69.441 -31.165  1.00  0.00     0.026 C 
HETATM   17  C8          0      59.794  69.275 -32.483  1.00  0.00     0.112 C 
HETATM   18  C10         0      58.991  69.905 -33.424  1.00  0.00     0.112 C 
HETATM   19  C12         0      57.655  70.125 -33.110  1.00  0.00     0.028 C 
BRANCH  17  20
HETATM   20  O9          0      60.796  68.376 -32.806  1.00  0.00    -0.357 OA
HETATM   21  H9          0      61.653  68.633 -33.126  1.00  0.00     0.218 HD
ENDBRANCH  17  20
BRANCH  18  22
HETATM   22  O11         0      59.456  69.931 -34.731  1.00  0.00    -0.357 OA
HETATM   23  H11         0      60.153  70.547 -34.927  1.00  0.00     0.218 HD
ENDBRANCH  18  22
ENDBRANCH   4  14
BRANCH   8  24
HETATM   24  O17         0      52.370  69.755 -27.102  1.00  0.00    -0.359 OA
HETATM   25  H17         0      52.232  70.638 -26.780  1.00  0.00     0.218 HD
ENDBRANCH   8  24
TORSDOF 5
ENDMDL
MODEL 9
REMARK VINA RESULT:      -1.9      1.781      2.428
REMARK  5 active torsions:
REMARK  status: ('A' for Active; 'I' for Inactive)
REMARK    1  A    between atoms: C4_4  and  C5_5 
REMARK    2  A    between atoms: C8_8  and  O9_9 
REMARK    3  A    between atoms: C10_11  and  O11_12 
REMARK    4  A    between atoms: C16_18  and  O17_19 
REMARK    5  A    between atoms: C19_22  and  O20_23 
ROOT
HETATM    1  O1          0      56.983  66.076 -32.732  1.00  0.00    -0.286 OA
HETATM    2  C2          0      57.081  67.173 -32.117  1.00  0.00     0.201 C 
HETATM    3  C3          0      58.178  67.503 -31.340  1.00  0.00     0.067 C 
HETATM    4  C4          0      58.215  68.673 -30.590  1.00  0.00     0.103 C 
HETATM    5  O13         0      57.181  69.493 -30.642  1.00  0.00    -0.307 OA
HETATM    6  C14         0      56.098  69.210 -31.334  1.00  0.00     0.107 C 
HETATM    7  C15         0      54.887  69.839 -31.085  1.00  0.00     0.049 C 
HETATM    8  C16         0      53.701  69.364 -31.633  1.00  0.00     0.093 C 
HETATM    9  C18         0      53.849  68.623 -32.799  1.00  0.00     0.048 C 
HETATM   10  C19         0      55.062  68.019 -33.103  1.00  0.00     0.096 C 
HETATM   11  C21         0      56.125  68.168 -32.255  1.00  0.00     0.084 C 
ENDROOT
BRANCH  10  12
HETATM   12  O20         0      55.087  66.956 -34.000  1.00  0.00    -0.359 OA
HETATM   13  H20         0      55.903  66.483 -34.107  1.00  0.00     0.218 HD
ENDBRANCH  10  12
BRANCH   4  14
HETATM   14  C5          0      59.056  68.674 -29.391  1.00  0.00     0.025 C 
HETATM   15  C6          0      59.458  69.839 -28.756  1.00  0.00     0.004 C 
HETATM   16  C7          0      59.501  69.833 -27.365  1.00  0.00     0.026 C 
HETATM   17  C8          0      59.284  68.671 -26.634  1.00  0.00     0.112 C 
HETATM   18  C10         0      59.522  67.494 -27.331  1.00  0.00     0.112 C 
HETATM   19  C12         0      59.388  67.507 -28.714  1.00  0.00     0.028 C 
BRANCH  17  20
HETATM   20  O9          0      58.677  68.718 -25.391  1.00  0.00    -0.357 OA
HETATM   21  H9          0      57.746  68.864 -25.263  1.00  0.00     0.218 HD
ENDBRANCH  17  20
BRANCH  18  22
HETATM   22  O11         0      59.503  66.315 -26.599  1.00  0.00    -0.357 OA
HETATM   23  H11         0      59.900  66.339 -25.736  1.00  0.00     0.218 HD
ENDBRANCH  18  22
ENDBRANCH   4  14
BRANCH   8  24
HETATM   24  O17         0      52.513  69.343 -30.894  1.00  0.00    -0.359 OA
HETATM   25  H17         0      51.680  69.125 -31.295  1.00  0.00     0.218 HD
ENDBRANCH   8  24
TORSDOF 5
ENDMDL
