MODEL 1
REMARK VINA RESULT:      -0.0      0.000      0.000
REMARK  5 active torsions:
REMARK  status: ('A' for Active; 'I' for Inactive)
REMARK    1  A    between atoms: C4_4  and  C5_5 
REMARK    2  A    between atoms: C8_8  and  O9_9 
REMARK    3  A    between atoms: C10_11  and  O11_12 
REMARK    4  A    between atoms: C16_18  and  O17_19 
REMARK    5  A    between atoms: C19_22  and  O20_23 
ROOT
HETATM    1  O1          0      58.657  21.619 -21.223  1.00  0.00    -0.286 OA
HETATM    2  C2          0      59.456  22.048 -22.101  1.00  0.00     0.201 C 
HETATM    3  C3          0      60.734  21.542 -22.263  1.00  0.00     0.067 C 
HETATM    4  C4          0      61.629  22.100 -23.169  1.00  0.00     0.103 C 
HETATM    5  O13         0      61.233  23.126 -23.902  1.00  0.00    -0.307 OA
HETATM    6  C14         0      60.044  23.668 -23.761  1.00  0.00     0.107 C 
HETATM    7  C15         0      59.766  24.950 -24.214  1.00  0.00     0.049 C 
HETATM    8  C16         0      58.602  25.610 -23.842  1.00  0.00     0.093 C 
HETATM    9  C18         0      57.547  24.781 -23.478  1.00  0.00     0.048 C 
HETATM   10  C19         0      57.785  23.477 -23.065  1.00  0.00     0.096 C 
HETATM   11  C21         0      59.067  22.999 -23.032  1.00  0.00     0.084 C 
ENDROOT
BRANCH  10  12
HETATM   12  O20         0      56.822  22.817 -22.308  1.00  0.00    -0.359 OA
HETATM   13  H20         0      56.440  23.281 -21.572  1.00  0.00     0.218 HD
ENDBRANCH  10  12
BRANCH   4  14
HETATM   14  C5          0      63.056  21.950 -22.879  1.00  0.00     0.025 C 
HETATM   15  C6          0      63.990  22.933 -23.172  1.00  0.00     0.004 C 
HETATM   16  C7          0      65.020  23.136 -22.258  1.00  0.00     0.026 C 
HETATM   17  C8          0      65.195  22.303 -21.159  1.00  0.00     0.112 C 
HETATM   18  C10         0      64.644  21.036 -21.298  1.00  0.00     0.112 C 
HETATM   19  C12         0      63.560  20.878 -22.154  1.00  0.00     0.028 C 
BRANCH  17  20
HETATM   20  O9          0      65.691  22.798 -19.966  1.00  0.00    -0.357 OA
HETATM   21  H9          0      66.618  22.878 -19.772  1.00  0.00     0.218 HD
ENDBRANCH  17  20
BRANCH  18  22
HETATM   22  O11         0      64.950  20.106 -20.315  1.00  0.00    -0.357 OA
HETATM   23  H11         0      64.324  20.008 -19.606  1.00  0.00     0.218 HD
ENDBRANCH  18  22
ENDBRANCH   4  14
BRANCH   8  24
HETATM   24  O17         0      58.604  26.976 -23.535  1.00  0.00    -0.359 OA
HETATM   25  H17         0      57.869  27.537 -23.752  1.00  0.00     0.218 HD
ENDBRANCH   8  24
TORSDOF 5
ENDMDL
MODEL 2
REMARK VINA RESULT:      -0.0      2.544      4.934
REMARK  5 active torsions:
REMARK  status: ('A' for Active; 'I' for Inactive)
REMARK    1  A    between atoms: C4_4  and  C5_5 
REMARK    2  A    between atoms: C8_8  and  O9_9 
REMARK    3  A    between atoms: C10_11  and  O11_12 
REMARK    4  A    between atoms: C16_18  and  O17_19 
REMARK    5  A    between atoms: C19_22  and  O20_23 
ROOT
HETATM    1  O1          0      59.543  26.971 -23.666  1.00  0.00    -0.286 OA
HETATM    2  C2          0      60.122  25.992 -24.212  1.00  0.00     0.201 C 
HETATM    3  C3          0      59.721  24.681 -24.020  1.00  0.00     0.067 C 
HETATM    4  C4          0      60.439  23.615 -24.550  1.00  0.00     0.103 C 
HETATM    5  O13         0      61.518  23.870 -25.269  1.00  0.00    -0.307 OA
HETATM    6  C14         0      61.963  25.094 -25.450  1.00  0.00     0.107 C 
HETATM    7  C15         0      63.270  25.346 -25.843  1.00  0.00     0.049 C 
HETATM    8  C16         0      63.806  26.627 -25.786  1.00  0.00     0.093 C 
HETATM    9  C18         0      62.875  27.657 -25.844  1.00  0.00     0.048 C 
HETATM   10  C19         0      61.549  27.428 -25.503  1.00  0.00     0.096 C 
HETATM   11  C21         0      61.151  26.175 -25.123  1.00  0.00     0.084 C 
ENDROOT
BRANCH  10  12
HETATM   12  O20         0      60.743  28.505 -25.144  1.00  0.00    -0.359 OA
HETATM   13  H20         0      61.153  29.239 -24.702  1.00  0.00     0.218 HD
ENDBRANCH  10  12
BRANCH   4  14
HETATM   14  C5          0      60.346  22.331 -23.852  1.00  0.00     0.025 C 
HETATM   15  C6          0      61.415  21.454 -23.745  1.00  0.00     0.004 C 
HETATM   16  C7          0      61.569  20.769 -22.544  1.00  0.00     0.026 C 
HETATM   17  C8          0      60.620  20.849 -21.531  1.00  0.00     0.112 C 
HETATM   18  C10         0      59.347  21.206 -21.956  1.00  0.00     0.112 C 
HETATM   19  C12         0      59.227  21.964 -23.115  1.00  0.00     0.028 C 
BRANCH  17  20
HETATM   20  O9          0      60.995  20.783 -20.201  1.00  0.00    -0.357 OA
HETATM   21  H9          0      60.557  20.240 -19.555  1.00  0.00     0.218 HD
ENDBRANCH  17  20
BRANCH  18  22
HETATM   22  O11         0      58.324  21.118 -21.023  1.00  0.00    -0.357 OA
HETATM   23  H11         0      58.579  21.078 -20.108  1.00  0.00     0.218 HD
ENDBRANCH  18  22
ENDBRANCH   4  14
BRANCH   8  24
HETATM   24  O17         0      65.122  26.848 -25.365  1.00  0.00    -0.359 OA
HETATM   25  H17         0      65.808  27.090 -25.977  1.00  0.00     0.218 HD
ENDBRANCH   8  24
TORSDOF 5
ENDMDL
MODEL 3
REMARK VINA RESULT:      -0.0     10.883     13.557
REMARK  5 active torsions:
REMARK  status: ('A' for Active; 'I' for Inactive)
REMARK    1  A    between atoms: C4_4  and  C5_5 
REMARK    2  A    between atoms: C8_8  and  O9_9 
REMARK    3  A    between atoms: C10_11  and  O11_12 
REMARK    4  A    between atoms: C16_18  and  O17_19 
REMARK    5  A    between atoms: C19_22  and  O20_23 
ROOT
HETATM    1  O1          0      57.735  31.909 -34.216  1.00  0.00    -0.286 OA
HETATM    2  C2          0      58.674  31.239 -33.702  1.00  0.00     0.201 C 
HETATM    3  C3          0      58.663  30.823 -32.382  1.00  0.00     0.067 C 
HETATM    4  C4          0      59.754  30.176 -31.813  1.00  0.00     0.103 C 
HETATM    5  O13         0      60.815  29.939 -32.566  1.00  0.00    -0.307 OA
HETATM    6  C14         0      60.891  30.346 -33.814  1.00  0.00     0.107 C 
HETATM    7  C15         0      62.107  30.464 -34.471  1.00  0.00     0.049 C 
HETATM    8  C16         0      62.209  31.128 -35.687  1.00  0.00     0.093 C 
HETATM    9  C18         0      61.035  31.179 -36.429  1.00  0.00     0.048 C 
HETATM   10  C19         0      59.802  31.019 -35.810  1.00  0.00     0.096 C 
HETATM   11  C21         0      59.744  30.792 -34.462  1.00  0.00     0.084 C 
ENDROOT
BRANCH  10  12
HETATM   12  O20         0      58.657  31.493 -36.442  1.00  0.00    -0.359 OA
HETATM   13  H20         0      58.091  32.080 -35.956  1.00  0.00     0.218 HD
ENDBRANCH  10  12
BRANCH   4  14
HETATM   14  C5          0      59.933  30.309 -30.366  1.00  0.00     0.025 C 
HETATM   15  C6          0      61.171  30.213 -29.749  1.00  0.00     0.004 C 
HETATM   16  C7          0      61.427  31.068 -28.682  1.00  0.00     0.026 C 
HETATM   17  C8          0      60.441  31.896 -28.158  1.00  0.00     0.112 C 
HETATM   18  C10         0      59.140  31.473 -28.399  1.00  0.00     0.112 C 
HETATM   19  C12         0      58.898  30.690 -29.521  1.00  0.00     0.028 C 
BRANCH  17  20
HETATM   20  O9          0      60.761  33.136 -27.634  1.00  0.00    -0.357 OA
HETATM   21  H9          0      60.115  33.795 -27.405  1.00  0.00     0.218 HD
ENDBRANCH  17  20
BRANCH  18  22
HETATM   22  O11         0      58.126  32.155 -27.742  1.00  0.00    -0.357 OA
HETATM   23  H11         0      58.148  32.147 -26.792  1.00  0.00     0.218 HD
ENDBRANCH  18  22
ENDBRANCH   4  14
BRANCH   8  24
HETATM   24  O17         0      63.298  31.959 -35.975  1.00  0.00    -0.359 OA
HETATM   25  H17         0      63.350  32.847 -35.640  1.00  0.00     0.218 HD
ENDBRANCH   8  24
TORSDOF 5
ENDMDL
MODEL 4
REMARK VINA RESULT:      -0.0     11.830     13.220
REMARK  5 active torsions:
REMARK  status: ('A' for Active; 'I' for Inactive)
REMARK    1  A    between atoms: C4_4  and  C5_5 
REMARK    2  A    between atoms: C8_8  and  O9_9 
REMARK    3  A    between atoms: C10_11  and  O11_12 
REMARK    4  A    between atoms: C16_18  and  O17_19 
REMARK    5  A    between atoms: C19_22  and  O20_23 
ROOT
HETATM    1  O1          0      58.617  26.754 -32.953  1.00  0.00    -0.286 OA
HETATM    2  C2          0      57.620  27.520 -33.056  1.00  0.00     0.201 C 
HETATM    3  C3          0      57.603  28.804 -32.539  1.00  0.00     0.067 C 
HETATM    4  C4          0      56.456  29.590 -32.577  1.00  0.00     0.103 C 
HETATM    5  O13         0      55.367  29.097 -33.141  1.00  0.00    -0.307 OA
HETATM    6  C14         0      55.319  27.871 -33.613  1.00  0.00     0.107 C 
HETATM    7  C15         0      54.113  27.219 -33.831  1.00  0.00     0.049 C 
HETATM    8  C16         0      54.067  25.853 -34.083  1.00  0.00     0.093 C 
HETATM    9  C18         0      55.231  25.316 -34.620  1.00  0.00     0.048 C 
HETATM   10  C19         0      56.447  25.966 -34.461  1.00  0.00     0.096 C 
HETATM   11  C21         0      56.498  27.155 -33.785  1.00  0.00     0.084 C 
ENDROOT
BRANCH  10  12
HETATM   12  O20         0      57.628  25.244 -34.601  1.00  0.00    -0.359 OA
HETATM   13  H20         0      58.239  25.245 -33.874  1.00  0.00     0.218 HD
ENDBRANCH  10  12
BRANCH   4  14
HETATM   14  C5          0      56.312  30.615 -31.541  1.00  0.00     0.025 C 
HETATM   15  C6          0      55.078  31.081 -31.112  1.00  0.00     0.004 C 
HETATM   16  C7          0      54.928  31.351 -29.755  1.00  0.00     0.026 C 
HETATM   17  C8          0      56.003  31.289 -28.876  1.00  0.00     0.112 C 
HETATM   18  C10         0      57.248  31.445 -29.470  1.00  0.00     0.112 C 
HETATM   19  C12         0      57.391  31.087 -30.806  1.00  0.00     0.028 C 
BRANCH  17  20
HETATM   20  O9          0      55.823  30.892 -27.563  1.00  0.00    -0.357 OA
HETATM   21  H9          0      56.344  30.221 -27.138  1.00  0.00     0.218 HD
ENDBRANCH  17  20
BRANCH  18  22
HETATM   22  O11         0      58.337  31.580 -28.622  1.00  0.00    -0.357 OA
HETATM   23  H11         0      58.337  32.331 -28.038  1.00  0.00     0.218 HD
ENDBRANCH  18  22
ENDBRANCH   4  14
BRANCH   8  24
HETATM   24  O17         0      53.069  25.043 -33.530  1.00  0.00    -0.359 OA
HETATM   25  H17         0      52.148  25.256 -33.618  1.00  0.00     0.218 HD
ENDBRANCH   8  24
TORSDOF 5
ENDMDL
MODEL 5
REMARK VINA RESULT:      -0.0     11.360     13.910
REMARK  5 active torsions:
REMARK  status: ('A' for Active; 'I' for Inactive)
REMARK    1  A    between atoms: C4_4  and  C5_5 
REMARK    2  A    between atoms: C8_8  and  O9_9 
REMARK    3  A    between atoms: C10_11  and  O11_12 
REMARK    4  A    between atoms: C16_18  and  O17_19 
REMARK    5  A    between atoms: C19_22  and  O20_23 
ROOT
HETATM    1  O1          0      60.750  37.157 -26.168  1.00  0.00    -0.286 OA
HETATM    2  C2          0      60.461  36.032 -25.674  1.00  0.00     0.201 C 
HETATM    3  C3          0      59.490  35.204 -26.211  1.00  0.00     0.067 C 
HETATM    4  C4          0      59.119  34.017 -25.589  1.00  0.00     0.103 C 
HETATM    5  O13         0      59.729  33.670 -24.470  1.00  0.00    -0.307 OA
HETATM    6  C14         0      60.631  34.437 -23.898  1.00  0.00     0.107 C 
HETATM    7  C15         0      60.974  34.291 -22.561  1.00  0.00     0.049 C 
HETATM    8  C16         0      61.728  35.253 -21.900  1.00  0.00     0.093 C 
HETATM    9  C18         0      62.532  36.034 -22.721  1.00  0.00     0.048 C 
HETATM   10  C19         0      62.245  36.165 -24.073  1.00  0.00     0.096 C 
HETATM   11  C21         0      61.171  35.506 -24.605  1.00  0.00     0.084 C 
ENDROOT
BRANCH  10  12
HETATM   12  O20         0      62.758  37.251 -24.775  1.00  0.00    -0.359 OA
HETATM   13  H20         0      63.054  38.004 -24.278  1.00  0.00     0.218 HD
ENDBRANCH  10  12
BRANCH   4  14
HETATM   14  C5          0      57.760  33.530 -25.832  1.00  0.00     0.025 C 
HETATM   15  C6          0      57.075  32.731 -24.928  1.00  0.00     0.004 C 
HETATM   16  C7          0      55.712  32.958 -24.770  1.00  0.00     0.026 C 
HETATM   17  C8          0      55.024  33.858 -25.578  1.00  0.00     0.112 C 
HETATM   18  C10         0      55.622  34.109 -26.806  1.00  0.00     0.112 C 
HETATM   19  C12         0      56.999  33.955 -26.913  1.00  0.00     0.028 C 
BRANCH  17  20
HETATM   20  O9          0      53.955  34.582 -25.082  1.00  0.00    -0.357 OA
HETATM   21  H9          0      53.266  34.947 -25.626  1.00  0.00     0.218 HD
ENDBRANCH  17  20
BRANCH  18  22
HETATM   22  O11         0      54.888  34.847 -27.723  1.00  0.00    -0.357 OA
HETATM   23  H11         0      55.252  34.931 -28.597  1.00  0.00     0.218 HD
ENDBRANCH  18  22
ENDBRANCH   4  14
BRANCH   8  24
HETATM   24  O17         0      61.442  35.623 -20.581  1.00  0.00    -0.359 OA
HETATM   25  H17         0      62.127  35.718 -19.930  1.00  0.00     0.218 HD
ENDBRANCH   8  24
TORSDOF 5
ENDMDL
MODEL 6
REMARK VINA RESULT:      -0.0     13.162     15.199
REMARK  5 active torsions:
REMARK  status: ('A' for Active; 'I' for Inactive)
REMARK    1  A    between atoms: C4_4  and  C5_5 
REMARK    2  A    between atoms: C8_8  and  O9_9 
REMARK    3  A    between atoms: C10_11  and  O11_12 
REMARK    4  A    between atoms: C16_18  and  O17_19 
REMARK    5  A    between atoms: C19_22  and  O20_23 
ROOT
HETATM    1  O1          0      60.554  31.010 -31.739  1.00  0.00    -0.286 OA
HETATM    2  C2          0      60.362  30.728 -32.953  1.00  0.00     0.201 C 
HETATM    3  C3          0      61.386  30.355 -33.808  1.00  0.00     0.067 C 
HETATM    4  C4          0      61.164  30.150 -35.165  1.00  0.00     0.103 C 
HETATM    5  O13         0      59.938  30.296 -35.636  1.00  0.00    -0.307 OA
HETATM    6  C14         0      58.938  30.684 -34.876  1.00  0.00     0.107 C 
HETATM    7  C15         0      57.776  31.218 -35.413  1.00  0.00     0.049 C 
HETATM    8  C16         0      56.837  31.857 -34.612  1.00  0.00     0.093 C 
HETATM    9  C18         0      56.848  31.473 -33.276  1.00  0.00     0.048 C 
HETATM   10  C19         0      57.979  30.893 -32.718  1.00  0.00     0.096 C 
HETATM   11  C21         0      59.086  30.681 -33.493  1.00  0.00     0.084 C 
ENDROOT
BRANCH  10  12
HETATM   12  O20         0      58.145  30.917 -31.337  1.00  0.00    -0.359 OA
HETATM   13  H20         0      58.150  30.087 -30.874  1.00  0.00     0.218 HD
ENDBRANCH  10  12
BRANCH   4  14
HETATM   14  C5          0      62.297  30.359 -36.068  1.00  0.00     0.025 C 
HETATM   15  C6          0      62.140  30.722 -37.398  1.00  0.00     0.004 C 
HETATM   16  C7          0      63.052  31.628 -37.930  1.00  0.00     0.026 C 
HETATM   17  C8          0      64.161  32.057 -37.208  1.00  0.00     0.112 C 
HETATM   18  C10         0      64.564  31.194 -36.198  1.00  0.00     0.112 C 
HETATM   19  C12         0      63.613  30.358 -35.625  1.00  0.00     0.028 C 
BRANCH  17  20
HETATM   20  O9          0      64.660  33.337 -37.369  1.00  0.00    -0.357 OA
HETATM   21  H9          0      65.586  33.538 -37.436  1.00  0.00     0.218 HD
ENDBRANCH  17  20
BRANCH  18  22
HETATM   22  O11         0      65.770  31.477 -35.573  1.00  0.00    -0.357 OA
HETATM   23  H11         0      66.321  32.135 -35.981  1.00  0.00     0.218 HD
ENDBRANCH  18  22
ENDBRANCH   4  14
BRANCH   8  24
HETATM   24  O17         0      56.182  33.017 -35.039  1.00  0.00    -0.359 OA
HETATM   25  H17         0      55.253  33.022 -35.237  1.00  0.00     0.218 HD
ENDBRANCH   8  24
TORSDOF 5
ENDMDL
MODEL 7
REMARK VINA RESULT:      -0.0      8.386     11.641
REMARK  5 active torsions:
REMARK  status: ('A' for Active; 'I' for Inactive)
REMARK    1  A    between atoms: C4_4  and  C5_5 
REMARK    2  A    between atoms: C8_8  and  O9_9 
REMARK    3  A    between atoms: C10_11  and  O11_12 
REMARK    4  A    between atoms: C16_18  and  O17_19 
REMARK    5  A    between atoms: C19_22  and  O20_23 
ROOT
HETATM    1  O1          0      62.111  28.079 -28.065  1.00  0.00    -0.286 OA
HETATM    2  C2          0      62.133  27.780 -29.291  1.00  0.00     0.201 C 
HETATM    3  C3          0      62.188  28.731 -30.295  1.00  0.00     0.067 C 
HETATM    4  C4          0      62.107  28.379 -31.637  1.00  0.00     0.103 C 
HETATM    5  O13         0      61.997  27.100 -31.952  1.00  0.00    -0.307 OA
HETATM    6  C14         0      61.903  26.160 -31.038  1.00  0.00     0.107 C 
HETATM    7  C15         0      61.396  24.903 -31.331  1.00  0.00     0.049 C 
HETATM    8  C16         0      61.063  24.006 -30.323  1.00  0.00     0.093 C 
HETATM    9  C18         0      61.732  24.199 -29.121  1.00  0.00     0.048 C 
HETATM   10  C19         0      62.293  25.432 -28.815  1.00  0.00     0.096 C 
HETATM   11  C21         0      62.200  26.461 -29.713  1.00  0.00     0.084 C 
ENDROOT
BRANCH  10  12
HETATM   12  O20         0      62.561  25.747 -27.487  1.00  0.00    -0.359 OA
HETATM   13  H20         0      62.330  26.615 -27.180  1.00  0.00     0.218 HD
ENDBRANCH  10  12
BRANCH   4  14
HETATM   14  C5          0      61.575  29.381 -32.562  1.00  0.00     0.025 C 
HETATM   15  C6          0      60.943  29.047 -33.751  1.00  0.00     0.004 C 
HETATM   16  C7          0      59.844  29.810 -34.134  1.00  0.00     0.026 C 
HETATM   17  C8          0      59.467  30.949 -33.431  1.00  0.00     0.112 C 
HETATM   18  C10         0      60.484  31.537 -32.691  1.00  0.00     0.112 C 
HETATM   19  C12         0      61.528  30.733 -32.248  1.00  0.00     0.028 C 
BRANCH  17  20
HETATM   20  O9          0      58.136  31.312 -33.331  1.00  0.00    -0.357 OA
HETATM   21  H9          0      57.413  30.707 -33.451  1.00  0.00     0.218 HD
ENDBRANCH  17  20
BRANCH  18  22
HETATM   22  O11         0      60.215  32.775 -32.125  1.00  0.00    -0.357 OA
HETATM   23  H11         0      60.098  32.801 -31.182  1.00  0.00     0.218 HD
ENDBRANCH  18  22
ENDBRANCH   4  14
BRANCH   8  24
HETATM   24  O17         0      59.917  23.207 -30.407  1.00  0.00    -0.359 OA
HETATM   25  H17         0      59.108  23.448 -29.971  1.00  0.00     0.218 HD
ENDBRANCH   8  24
TORSDOF 5
ENDMDL
MODEL 8
REMARK VINA RESULT:      -0.0     10.482     13.659
REMARK  5 active torsions:
REMARK  status: ('A' for Active; 'I' for Inactive)
REMARK    1  A    between atoms: C4_4  and  C5_5 
REMARK    2  A    between atoms: C8_8  and  O9_9 
REMARK    3  A    between atoms: C10_11  and  O11_12 
REMARK    4  A    between atoms: C16_18  and  O17_19 
REMARK    5  A    between atoms: C19_22  and  O20_23 
ROOT
HETATM    1  O1          0      60.947  28.144 -30.554  1.00  0.00    -0.286 OA
HETATM    2  C2          0      60.970  27.845 -31.779  1.00  0.00     0.201 C 
HETATM    3  C3          0      61.024  28.796 -32.783  1.00  0.00     0.067 C 
HETATM    4  C4          0      60.943  28.444 -34.126  1.00  0.00     0.103 C 
HETATM    5  O13         0      60.833  27.166 -34.441  1.00  0.00    -0.307 OA
HETATM    6  C14         0      60.740  26.226 -33.526  1.00  0.00     0.107 C 
HETATM    7  C15         0      60.232  24.968 -33.819  1.00  0.00     0.049 C 
HETATM    8  C16         0      59.899  24.071 -32.811  1.00  0.00     0.093 C 
HETATM    9  C18         0      60.568  24.264 -31.609  1.00  0.00     0.048 C 
HETATM   10  C19         0      61.129  25.497 -31.304  1.00  0.00     0.096 C 
HETATM   11  C21         0      61.036  26.526 -32.201  1.00  0.00     0.084 C 
ENDROOT
BRANCH  10  12
HETATM   12  O20         0      61.397  25.812 -29.975  1.00  0.00    -0.359 OA
HETATM   13  H20         0      61.277  25.132 -29.323  1.00  0.00     0.218 HD
ENDBRANCH  10  12
BRANCH   4  14
HETATM   14  C5          0      60.411  29.446 -35.051  1.00  0.00     0.025 C 
HETATM   15  C6          0      59.779  29.112 -36.239  1.00  0.00     0.004 C 
HETATM   16  C7          0      58.680  29.875 -36.622  1.00  0.00     0.026 C 
HETATM   17  C8          0      58.303  31.015 -35.919  1.00  0.00     0.112 C 
HETATM   18  C10         0      59.320  31.602 -35.179  1.00  0.00     0.112 C 
HETATM   19  C12         0      60.364  30.799 -34.737  1.00  0.00     0.028 C 
BRANCH  17  20
HETATM   20  O9          0      56.972  31.377 -35.819  1.00  0.00    -0.357 OA
HETATM   21  H9          0      56.249  30.772 -35.939  1.00  0.00     0.218 HD
ENDBRANCH  17  20
BRANCH  18  22
HETATM   22  O11         0      59.051  32.840 -34.613  1.00  0.00    -0.357 OA
HETATM   23  H11         0      58.934  32.866 -33.671  1.00  0.00     0.218 HD
ENDBRANCH  18  22
ENDBRANCH   4  14
BRANCH   8  24
HETATM   24  O17         0      58.753  23.272 -32.896  1.00  0.00    -0.359 OA
HETATM   25  H17         0      57.944  23.513 -32.459  1.00  0.00     0.218 HD
ENDBRANCH   8  24
TORSDOF 5
ENDMDL
MODEL 9
REMARK VINA RESULT:      -0.0     12.439     16.184
REMARK  5 active torsions:
REMARK  status: ('A' for Active; 'I' for Inactive)
REMARK    1  A    between atoms: C4_4  and  C5_5 
REMARK    2  A    between atoms: C8_8  and  O9_9 
REMARK    3  A    between atoms: C10_11  and  O11_12 
REMARK    4  A    between atoms: C16_18  and  O17_19 
REMARK    5  A    between atoms: C19_22  and  O20_23 
ROOT
HETATM    1  O1          0      52.876  29.318 -32.507  1.00  0.00    -0.286 OA
HETATM    2  C2          0      53.980  29.738 -32.950  1.00  0.00     0.201 C 
HETATM    3  C3          0      54.075  30.631 -34.004  1.00  0.00     0.067 C 
HETATM    4  C4          0      55.304  30.999 -34.539  1.00  0.00     0.103 C 
HETATM    5  O13         0      56.404  30.493 -34.009  1.00  0.00    -0.307 OA
HETATM    6  C14         0      56.369  29.612 -33.033  1.00  0.00     0.107 C 
HETATM    7  C15         0      57.452  28.793 -32.748  1.00  0.00     0.049 C 
HETATM    8  C16         0      57.327  27.702 -31.897  1.00  0.00     0.093 C 
HETATM    9  C18         0      56.288  27.791 -30.978  1.00  0.00     0.048 C 
HETATM   10  C19         0      55.212  28.636 -31.209  1.00  0.00     0.096 C 
HETATM   11  C21         0      55.180  29.401 -32.343  1.00  0.00     0.084 C 
ENDROOT
BRANCH  10  12
HETATM   12  O20         0      54.012  28.407 -30.543  1.00  0.00    -0.359 OA
HETATM   13  H20         0      53.303  28.002 -31.029  1.00  0.00     0.218 HD
ENDBRANCH  10  12
BRANCH   4  14
HETATM   14  C5          0      55.326  31.417 -35.942  1.00  0.00     0.025 C 
HETATM   15  C6          0      56.448  31.291 -36.747  1.00  0.00     0.004 C 
HETATM   16  C7          0      56.251  30.923 -38.075  1.00  0.00     0.026 C 
HETATM   17  C8          0      54.976  30.815 -38.620  1.00  0.00     0.112 C 
HETATM   18  C10         0      54.000  31.551 -37.962  1.00  0.00     0.112 C 
HETATM   19  C12         0      54.182  31.832 -36.613  1.00  0.00     0.028 C 
BRANCH  17  20
HETATM   20  O9          0      54.702  29.880 -39.602  1.00  0.00    -0.357 OA
HETATM   21  H9          0      54.455  30.105 -40.491  1.00  0.00     0.218 HD
ENDBRANCH  17  20
BRANCH  18  22
HETATM   22  O11         0      52.756  31.631 -38.571  1.00  0.00    -0.357 OA
HETATM   23  H11         0      52.313  30.810 -38.754  1.00  0.00     0.218 HD
ENDBRANCH  18  22
ENDBRANCH   4  14
BRANCH   8  24
HETATM   24  O17         0      57.967  26.487 -32.169  1.00  0.00    -0.359 OA
HETATM   25  H17         0      58.624  26.128 -31.585  1.00  0.00     0.218 HD
ENDBRANCH   8  24
TORSDOF 5
ENDMDL
