MODEL 1
REMARK VINA RESULT:      -7.1      0.000      0.000
REMARK  5 active torsions:
REMARK  status: ('A' for Active; 'I' for Inactive)
REMARK    1  A    between atoms: C4_4  and  C5_5 
REMARK    2  A    between atoms: C8_8  and  O9_9 
REMARK    3  A    between atoms: C10_11  and  O11_12 
REMARK    4  A    between atoms: C16_18  and  O17_19 
REMARK    5  A    between atoms: C19_22  and  O20_23 
ROOT
HETATM    1  O1          0      60.125  12.242  12.746  1.00  0.00    -0.286 OA
HETATM    2  C2          0      59.010  11.974  13.273  1.00  0.00     0.201 C 
HETATM    3  C3          0      58.893  11.310  14.483  1.00  0.00     0.067 C 
HETATM    4  C4          0      57.654  10.936  14.991  1.00  0.00     0.103 C 
HETATM    5  O13         0      56.567  11.245  14.306  1.00  0.00    -0.307 OA
HETATM    6  C14         0      56.625  11.841  13.135  1.00  0.00     0.107 C 
HETATM    7  C15         0      55.561  11.809  12.246  1.00  0.00     0.049 C 
HETATM    8  C16         0      55.712  12.214  10.925  1.00  0.00     0.093 C 
HETATM    9  C18         0      56.751  13.108  10.700  1.00  0.00     0.048 C 
HETATM   10  C19         0      57.809  13.200  11.595  1.00  0.00     0.096 C 
HETATM   11  C21         0      57.820  12.415  12.716  1.00  0.00     0.084 C 
ENDROOT
BRANCH  10  12
HETATM   12  O20         0      59.016  13.744  11.168  1.00  0.00    -0.359 OA
HETATM   13  H20         0      59.242  13.661  10.249  1.00  0.00     0.218 HD
ENDBRANCH  10  12
BRANCH   4  14
HETATM   14  C5          0      57.619   9.777  15.884  1.00  0.00     0.025 C 
HETATM   15  C6          0      58.690   8.907  16.029  1.00  0.00     0.004 C 
HETATM   16  C7          0      58.948   8.410  17.303  1.00  0.00     0.026 C 
HETATM   17  C8          0      58.094   8.661  18.371  1.00  0.00     0.112 C 
HETATM   18  C10         0      56.790   8.971  18.010  1.00  0.00     0.112 C 
HETATM   19  C12         0      56.569   9.546  16.763  1.00  0.00     0.028 C 
BRANCH  17  20
HETATM   20  O9          0      58.586   8.791  19.657  1.00  0.00    -0.357 OA
HETATM   21  H9          0      59.447   8.490  19.926  1.00  0.00     0.218 HD
ENDBRANCH  17  20
BRANCH  18  22
HETATM   22  O11         0      55.855   9.044  19.032  1.00  0.00    -0.357 OA
HETATM   23  H11         0      55.356   9.851  19.103  1.00  0.00     0.218 HD
ENDBRANCH  18  22
ENDBRANCH   4  14
BRANCH   8  24
HETATM   24  O17         0      55.097  11.522   9.875  1.00  0.00    -0.359 OA
HETATM   25  H17         0      55.545  11.361   9.053  1.00  0.00     0.218 HD
ENDBRANCH   8  24
TORSDOF 5
ENDMDL
MODEL 2
REMARK VINA RESULT:      -6.4      3.110      5.296
REMARK  5 active torsions:
REMARK  status: ('A' for Active; 'I' for Inactive)
REMARK    1  A    between atoms: C4_4  and  C5_5 
REMARK    2  A    between atoms: C8_8  and  O9_9 
REMARK    3  A    between atoms: C10_11  and  O11_12 
REMARK    4  A    between atoms: C16_18  and  O17_19 
REMARK    5  A    between atoms: C19_22  and  O20_23 
ROOT
HETATM    1  O1          0      56.400  13.084  11.491  1.00  0.00    -0.286 OA
HETATM    2  C2          0      56.320  12.150  12.336  1.00  0.00     0.201 C 
HETATM    3  C3          0      55.147  11.456  12.578  1.00  0.00     0.067 C 
HETATM    4  C4          0      55.059  10.502  13.586  1.00  0.00     0.103 C 
HETATM    5  O13         0      56.133  10.245  14.312  1.00  0.00    -0.307 OA
HETATM    6  C14         0      57.261  10.902  14.148  1.00  0.00     0.107 C 
HETATM    7  C15         0      58.238  10.932  15.133  1.00  0.00     0.049 C 
HETATM    8  C16         0      59.302  11.823  15.065  1.00  0.00     0.093 C 
HETATM    9  C18         0      59.621  12.261  13.786  1.00  0.00     0.048 C 
HETATM   10  C19         0      58.681  12.202  12.766  1.00  0.00     0.096 C 
HETATM   11  C21         0      57.437  11.692  13.017  1.00  0.00     0.084 C 
ENDROOT
BRANCH  10  12
HETATM   12  O20         0      58.839  13.015  11.647  1.00  0.00    -0.359 OA
HETATM   13  H20         0      58.480  12.711  10.822  1.00  0.00     0.218 HD
ENDBRANCH  10  12
BRANCH   4  14
HETATM   14  C5          0      53.739  10.268  14.173  1.00  0.00     0.025 C 
HETATM   15  C6          0      53.519  10.241  15.543  1.00  0.00     0.004 C 
HETATM   16  C7          0      52.340  10.806  16.018  1.00  0.00     0.026 C 
HETATM   17  C8          0      51.350  11.263  15.154  1.00  0.00     0.112 C 
HETATM   18  C10         0      51.372  10.687  13.891  1.00  0.00     0.112 C 
HETATM   19  C12         0      52.583  10.206  13.406  1.00  0.00     0.028 C 
BRANCH  17  20
HETATM   20  O9          0      50.564  12.351  15.489  1.00  0.00    -0.357 OA
HETATM   21  H9          0      49.845  12.312  16.108  1.00  0.00     0.218 HD
ENDBRANCH  17  20
BRANCH  18  22
HETATM   22  O11         0      50.300  10.963  13.056  1.00  0.00    -0.357 OA
HETATM   23  H11         0      49.588  10.334  13.046  1.00  0.00     0.218 HD
ENDBRANCH  18  22
ENDBRANCH   4  14
BRANCH   8  24
HETATM   24  O17         0      59.780  12.476  16.207  1.00  0.00    -0.359 OA
HETATM   25  H17         0      59.924  13.414  16.222  1.00  0.00     0.218 HD
ENDBRANCH   8  24
TORSDOF 5
ENDMDL
MODEL 3
REMARK VINA RESULT:      -6.1      2.319      6.548
REMARK  5 active torsions:
REMARK  status: ('A' for Active; 'I' for Inactive)
REMARK    1  A    between atoms: C4_4  and  C5_5 
REMARK    2  A    between atoms: C8_8  and  O9_9 
REMARK    3  A    between atoms: C10_11  and  O11_12 
REMARK    4  A    between atoms: C16_18  and  O17_19 
REMARK    5  A    between atoms: C19_22  and  O20_23 
ROOT
HETATM    1  O1          0      59.742   8.927  17.747  1.00  0.00    -0.286 OA
HETATM    2  C2          0      59.526   8.984  16.505  1.00  0.00     0.201 C 
HETATM    3  C3          0      59.723  10.135  15.762  1.00  0.00     0.067 C 
HETATM    4  C4          0      59.380  10.201  14.416  1.00  0.00     0.103 C 
HETATM    5  O13         0      58.873   9.126  13.837  1.00  0.00    -0.307 OA
HETATM    6  C14         0      58.632   8.020  14.506  1.00  0.00     0.107 C 
HETATM    7  C15         0      57.756   7.055  14.030  1.00  0.00     0.049 C 
HETATM    8  C16         0      57.310   6.020  14.844  1.00  0.00     0.093 C 
HETATM    9  C18         0      58.151   5.704  15.904  1.00  0.00     0.048 C 
HETATM   10  C19         0      59.071   6.630  16.376  1.00  0.00     0.096 C 
HETATM   11  C21         0      59.163   7.859  15.781  1.00  0.00     0.084 C 
ENDROOT
BRANCH  10  12
HETATM   12  O20         0      59.580   6.489  17.663  1.00  0.00    -0.359 OA
HETATM   13  H20         0      60.520   6.565  17.781  1.00  0.00     0.218 HD
ENDBRANCH  10  12
BRANCH   4  14
HETATM   14  C5          0      59.043  11.518  13.874  1.00  0.00     0.025 C 
HETATM   15  C6          0      60.002  12.472  13.564  1.00  0.00     0.004 C 
HETATM   16  C7          0      59.799  13.244  12.425  1.00  0.00     0.026 C 
HETATM   17  C8          0      58.620  13.167  11.692  1.00  0.00     0.112 C 
HETATM   18  C10         0      57.524  12.696  12.404  1.00  0.00     0.112 C 
HETATM   19  C12         0      57.752  11.857  13.488  1.00  0.00     0.028 C 
BRANCH  17  20
HETATM   20  O9          0      58.624  13.347  10.321  1.00  0.00    -0.357 OA
HETATM   21  H9          0      57.852  13.573   9.815  1.00  0.00     0.218 HD
ENDBRANCH  17  20
BRANCH  18  22
HETATM   22  O11         0      56.287  12.777  11.780  1.00  0.00    -0.357 OA
HETATM   23  H11         0      56.266  12.608  10.845  1.00  0.00     0.218 HD
ENDBRANCH  18  22
ENDBRANCH   4  14
BRANCH   8  24
HETATM   24  O17         0      55.984   5.577  14.799  1.00  0.00    -0.359 OA
HETATM   25  H17         0      55.525   5.460  13.976  1.00  0.00     0.218 HD
ENDBRANCH   8  24
TORSDOF 5
ENDMDL
MODEL 4
REMARK VINA RESULT:      -6.1      3.380      5.776
REMARK  5 active torsions:
REMARK  status: ('A' for Active; 'I' for Inactive)
REMARK    1  A    between atoms: C4_4  and  C5_5 
REMARK    2  A    between atoms: C8_8  and  O9_9 
REMARK    3  A    between atoms: C10_11  and  O11_12 
REMARK    4  A    between atoms: C16_18  and  O17_19 
REMARK    5  A    between atoms: C19_22  and  O20_23 
ROOT
HETATM    1  O1          0      56.960   8.379  16.554  1.00  0.00    -0.286 OA
HETATM    2  C2          0      56.605   9.506  16.112  1.00  0.00     0.201 C 
HETATM    3  C3          0      55.278   9.874  15.973  1.00  0.00     0.067 C 
HETATM    4  C4          0      54.914  11.082  15.387  1.00  0.00     0.103 C 
HETATM    5  O13         0      55.866  11.900  14.975  1.00  0.00    -0.307 OA
HETATM    6  C14         0      57.140  11.583  15.049  1.00  0.00     0.107 C 
HETATM    7  C15         0      58.099  12.226  14.280  1.00  0.00     0.049 C 
HETATM    8  C16         0      59.391  11.725  14.170  1.00  0.00     0.093 C 
HETATM    9  C18         0      59.802  10.924  15.229  1.00  0.00     0.048 C 
HETATM   10  C19         0      58.869  10.304  16.048  1.00  0.00     0.096 C 
HETATM   11  C21         0      57.533  10.495  15.821  1.00  0.00     0.084 C 
ENDROOT
BRANCH  10  12
HETATM   12  O20         0      59.251   9.195  16.797  1.00  0.00    -0.359 OA
HETATM   13  H20         0      60.067   8.764  16.570  1.00  0.00     0.218 HD
ENDBRANCH  10  12
BRANCH   4  14
HETATM   14  C5          0      53.603  11.143  14.739  1.00  0.00     0.025 C 
HETATM   15  C6          0      53.143  10.159  13.877  1.00  0.00     0.004 C 
HETATM   16  C7          0      51.794   9.822  13.944  1.00  0.00     0.026 C 
HETATM   17  C8          0      50.904  10.530  14.744  1.00  0.00     0.112 C 
HETATM   18  C10         0      51.302  11.826  15.046  1.00  0.00     0.112 C 
HETATM   19  C12         0      52.661  12.115  15.055  1.00  0.00     0.028 C 
BRANCH  17  20
HETATM   20  O9          0      49.831   9.896  15.344  1.00  0.00    -0.357 OA
HETATM   21  H9          0      48.925  10.044  15.098  1.00  0.00     0.218 HD
ENDBRANCH  17  20
BRANCH  18  22
HETATM   22  O11         0      50.371  12.637  15.679  1.00  0.00    -0.357 OA
HETATM   23  H11         0      50.226  13.499  15.305  1.00  0.00     0.218 HD
ENDBRANCH  18  22
ENDBRANCH   4  14
BRANCH   8  24
HETATM   24  O17         0      60.080  11.744  12.952  1.00  0.00    -0.359 OA
HETATM   25  H17         0      61.006  11.949  12.905  1.00  0.00     0.218 HD
ENDBRANCH   8  24
TORSDOF 5
ENDMDL
MODEL 5
REMARK VINA RESULT:      -6.1      3.287      5.048
REMARK  5 active torsions:
REMARK  status: ('A' for Active; 'I' for Inactive)
REMARK    1  A    between atoms: C4_4  and  C5_5 
REMARK    2  A    between atoms: C8_8  and  O9_9 
REMARK    3  A    between atoms: C10_11  and  O11_12 
REMARK    4  A    between atoms: C16_18  and  O17_19 
REMARK    5  A    between atoms: C19_22  and  O20_23 
ROOT
HETATM    1  O1          0      57.962   7.745  14.142  1.00  0.00    -0.286 OA
HETATM    2  C2          0      57.380   8.836  14.391  1.00  0.00     0.201 C 
HETATM    3  C3          0      56.045   8.909  14.753  1.00  0.00     0.067 C 
HETATM    4  C4          0      55.402  10.130  14.921  1.00  0.00     0.103 C 
HETATM    5  O13         0      56.095  11.242  14.749  1.00  0.00    -0.307 OA
HETATM    6  C14         0      57.354  11.229  14.369  1.00  0.00     0.107 C 
HETATM    7  C15         0      57.959  12.345  13.808  1.00  0.00     0.049 C 
HETATM    8  C16         0      59.195  12.255  13.179  1.00  0.00     0.093 C 
HETATM    9  C18         0      59.991  11.195  13.597  1.00  0.00     0.048 C 
HETATM   10  C19         0      59.423  10.084  14.204  1.00  0.00     0.096 C 
HETATM   11  C21         0      58.070  10.038  14.409  1.00  0.00     0.084 C 
ENDROOT
BRANCH  10  12
HETATM   12  O20         0      60.125   8.882  14.218  1.00  0.00    -0.359 OA
HETATM   13  H20         0      60.002   8.303  14.960  1.00  0.00     0.218 HD
ENDBRANCH  10  12
BRANCH   4  14
HETATM   14  C5          0      53.955  10.160  14.701  1.00  0.00     0.025 C 
HETATM   15  C6          0      53.165   9.020  14.732  1.00  0.00     0.004 C 
HETATM   16  C7          0      51.903   9.125  15.307  1.00  0.00     0.026 C 
HETATM   17  C8          0      51.388  10.350  15.716  1.00  0.00     0.112 C 
HETATM   18  C10         0      51.946  11.454  15.086  1.00  0.00     0.112 C 
HETATM   19  C12         0      53.242  11.348  14.595  1.00  0.00     0.028 C 
BRANCH  17  20
HETATM   20  O9          0      50.546  10.435  16.812  1.00  0.00    -0.357 OA
HETATM   21  H9          0      50.617  11.105  17.481  1.00  0.00     0.218 HD
ENDBRANCH  17  20
BRANCH  18  22
HETATM   22  O11         0      51.342  12.681  15.316  1.00  0.00    -0.357 OA
HETATM   23  H11         0      50.435  12.771  15.048  1.00  0.00     0.218 HD
ENDBRANCH  18  22
ENDBRANCH   4  14
BRANCH   8  24
HETATM   24  O17         0      59.467  12.960  12.001  1.00  0.00    -0.359 OA
HETATM   25  H17         0      59.860  12.537  11.247  1.00  0.00     0.218 HD
ENDBRANCH   8  24
TORSDOF 5
ENDMDL
MODEL 6
REMARK VINA RESULT:      -6.0      3.355      5.544
REMARK  5 active torsions:
REMARK  status: ('A' for Active; 'I' for Inactive)
REMARK    1  A    between atoms: C4_4  and  C5_5 
REMARK    2  A    between atoms: C8_8  and  O9_9 
REMARK    3  A    between atoms: C10_11  and  O11_12 
REMARK    4  A    between atoms: C16_18  and  O17_19 
REMARK    5  A    between atoms: C19_22  and  O20_23 
ROOT
HETATM    1  O1          0      54.407  12.664  15.867  1.00  0.00    -0.286 OA
HETATM    2  C2          0      54.612  11.465  16.202  1.00  0.00     0.201 C 
HETATM    3  C3          0      53.675  10.704  16.880  1.00  0.00     0.067 C 
HETATM    4  C4          0      53.965   9.420  17.327  1.00  0.00     0.103 C 
HETATM    5  O13         0      55.160   8.915  17.076  1.00  0.00    -0.307 OA
HETATM    6  C14         0      56.098   9.607  16.469  1.00  0.00     0.107 C 
HETATM    7  C15         0      57.437   9.256  16.556  1.00  0.00     0.049 C 
HETATM    8  C16         0      58.439  10.122  16.134  1.00  0.00     0.093 C 
HETATM    9  C18         0      58.047  11.053  15.180  1.00  0.00     0.048 C 
HETATM   10  C19         0      56.709  11.393  15.034  1.00  0.00     0.096 C 
HETATM   11  C21         0      55.767  10.795  15.825  1.00  0.00     0.084 C 
ENDROOT
BRANCH  10  12
HETATM   12  O20         0      56.376  12.596  14.419  1.00  0.00    -0.359 OA
HETATM   13  H20         0      55.458  12.770  14.250  1.00  0.00     0.218 HD
ENDBRANCH  10  12
BRANCH   4  14
HETATM   14  C5          0      53.225   8.934  18.494  1.00  0.00     0.025 C 
HETATM   15  C6          0      53.731   7.975  19.359  1.00  0.00     0.004 C 
HETATM   16  C7          0      53.468   8.128  20.716  1.00  0.00     0.026 C 
HETATM   17  C8          0      52.619   9.124  21.187  1.00  0.00     0.112 C 
HETATM   18  C10         0      51.703   9.593  20.255  1.00  0.00     0.112 C 
HETATM   19  C12         0      52.028   9.505  18.907  1.00  0.00     0.028 C 
BRANCH  17  20
HETATM   20  O9          0      52.840   9.721  22.415  1.00  0.00    -0.357 OA
HETATM   21  H9          0      53.667   9.680  22.881  1.00  0.00     0.218 HD
ENDBRANCH  17  20
BRANCH  18  22
HETATM   22  O11         0      50.713  10.447  20.721  1.00  0.00    -0.357 OA
HETATM   23  H11         0      50.410  11.121  20.124  1.00  0.00     0.218 HD
ENDBRANCH  18  22
ENDBRANCH   4  14
BRANCH   8  24
HETATM   24  O17         0      59.632  10.262  16.852  1.00  0.00    -0.359 OA
HETATM   25  H17         0      59.721  10.898  17.552  1.00  0.00     0.218 HD
ENDBRANCH   8  24
TORSDOF 5
ENDMDL
MODEL 7
REMARK VINA RESULT:      -5.8      3.256      5.755
REMARK  5 active torsions:
REMARK  status: ('A' for Active; 'I' for Inactive)
REMARK    1  A    between atoms: C4_4  and  C5_5 
REMARK    2  A    between atoms: C8_8  and  O9_9 
REMARK    3  A    between atoms: C10_11  and  O11_12 
REMARK    4  A    between atoms: C16_18  and  O17_19 
REMARK    5  A    between atoms: C19_22  and  O20_23 
ROOT
HETATM    1  O1          0      53.472   9.300  11.653  1.00  0.00    -0.286 OA
HETATM    2  C2          0      53.727  10.187  12.513  1.00  0.00     0.201 C 
HETATM    3  C3          0      54.986  10.740  12.670  1.00  0.00     0.067 C 
HETATM    4  C4          0      55.264  11.641  13.693  1.00  0.00     0.103 C 
HETATM    5  O13         0      54.290  11.985  14.517  1.00  0.00    -0.307 OA
HETATM    6  C14         0      53.087  11.461  14.435  1.00  0.00     0.107 C 
HETATM    7  C15         0      52.198  11.500  15.500  1.00  0.00     0.049 C 
HETATM    8  C16         0      51.040  10.733  15.502  1.00  0.00     0.093 C 
HETATM    9  C18         0      50.568  10.379  14.244  1.00  0.00     0.048 C 
HETATM   10  C19         0      51.419  10.375  13.147  1.00  0.00     0.096 C 
HETATM   11  C21         0      52.729  10.738  13.302  1.00  0.00     0.084 C 
ENDROOT
BRANCH  10  12
HETATM   12  O20         0      51.078   9.626  12.024  1.00  0.00    -0.359 OA
HETATM   13  H20         0      51.778   9.346  11.447  1.00  0.00     0.218 HD
ENDBRANCH  10  12
BRANCH   4  14
HETATM   14  C5          0      56.647  11.708  14.168  1.00  0.00     0.025 C 
HETATM   15  C6          0      57.092  11.017  15.285  1.00  0.00     0.004 C 
HETATM   16  C7          0      58.368  10.466  15.235  1.00  0.00     0.026 C 
HETATM   17  C8          0      59.225  10.705  14.167  1.00  0.00     0.112 C 
HETATM   18  C10         0      58.953  11.865  13.454  1.00  0.00     0.112 C 
HETATM   19  C12         0      57.650  12.348  13.451  1.00  0.00     0.028 C 
BRANCH  17  20
HETATM   20  O9          0      60.124   9.740  13.749  1.00  0.00    -0.357 OA
HETATM   21  H9          0      59.869   8.876  13.446  1.00  0.00     0.218 HD
ENDBRANCH  17  20
BRANCH  18  22
HETATM   22  O11         0      59.885  12.250  12.500  1.00  0.00    -0.357 OA
HETATM   23  H11         0      60.786  11.989  12.650  1.00  0.00     0.218 HD
ENDBRANCH  18  22
ENDBRANCH   4  14
BRANCH   8  24
HETATM   24  O17         0      50.590  10.093  16.663  1.00  0.00    -0.359 OA
HETATM   25  H17         0      51.102   9.417  17.090  1.00  0.00     0.218 HD
ENDBRANCH   8  24
TORSDOF 5
ENDMDL
MODEL 8
REMARK VINA RESULT:      -5.8      3.464      5.836
REMARK  5 active torsions:
REMARK  status: ('A' for Active; 'I' for Inactive)
REMARK    1  A    between atoms: C4_4  and  C5_5 
REMARK    2  A    between atoms: C8_8  and  O9_9 
REMARK    3  A    between atoms: C10_11  and  O11_12 
REMARK    4  A    between atoms: C16_18  and  O17_19 
REMARK    5  A    between atoms: C19_22  and  O20_23 
ROOT
HETATM    1  O1          0      57.299  12.000  13.186  1.00  0.00    -0.286 OA
HETATM    2  C2          0      56.700  11.212  13.969  1.00  0.00     0.201 C 
HETATM    3  C3          0      55.325  11.217  14.132  1.00  0.00     0.067 C 
HETATM    4  C4          0      54.701  10.409  15.076  1.00  0.00     0.103 C 
HETATM    5  O13         0      55.445   9.605  15.816  1.00  0.00    -0.307 OA
HETATM    6  C14         0      56.757   9.588  15.727  1.00  0.00     0.107 C 
HETATM    7  C15         0      57.552   9.071  16.739  1.00  0.00     0.049 C 
HETATM    8  C16         0      58.925   9.283  16.759  1.00  0.00     0.093 C 
HETATM    9  C18         0      59.496   9.541  15.519  1.00  0.00     0.048 C 
HETATM   10  C19         0      58.721  10.016  14.470  1.00  0.00     0.096 C 
HETATM   11  C21         0      57.380  10.215  14.653  1.00  0.00     0.084 C 
ENDROOT
BRANCH  10  12
HETATM   12  O20         0      59.339  10.672  13.409  1.00  0.00    -0.359 OA
HETATM   13  H20         0      59.334  10.247  12.560  1.00  0.00     0.218 HD
ENDBRANCH  10  12
BRANCH   4  14
HETATM   14  C5          0      53.418  10.871  15.609  1.00  0.00     0.025 C 
HETATM   15  C6          0      52.800  12.036  15.179  1.00  0.00     0.004 C 
HETATM   16  C7          0      51.415  12.022  15.052  1.00  0.00     0.026 C 
HETATM   17  C8          0      50.655  10.934  15.466  1.00  0.00     0.112 C 
HETATM   18  C10         0      51.263  10.134  16.425  1.00  0.00     0.112 C 
HETATM   19  C12         0      52.651  10.101  16.474  1.00  0.00     0.028 C 
BRANCH  17  20
HETATM   20  O9          0      49.492  10.588  14.802  1.00  0.00    -0.357 OA
HETATM   21  H9          0      49.450   9.929  14.118  1.00  0.00     0.218 HD
ENDBRANCH  17  20
BRANCH  18  22
HETATM   22  O11         0      50.479   9.149  17.009  1.00  0.00    -0.357 OA
HETATM   23  H11         0      50.843   8.703  17.766  1.00  0.00     0.218 HD
ENDBRANCH  18  22
ENDBRANCH   4  14
BRANCH   8  24
HETATM   24  O17         0      59.604   9.550  17.952  1.00  0.00    -0.359 OA
HETATM   25  H17         0      60.111   8.881  18.398  1.00  0.00     0.218 HD
ENDBRANCH   8  24
TORSDOF 5
ENDMDL
MODEL 9
REMARK VINA RESULT:      -5.7      2.853      5.687
REMARK  5 active torsions:
REMARK  status: ('A' for Active; 'I' for Inactive)
REMARK    1  A    between atoms: C4_4  and  C5_5 
REMARK    2  A    between atoms: C8_8  and  O9_9 
REMARK    3  A    between atoms: C10_11  and  O11_12 
REMARK    4  A    between atoms: C16_18  and  O17_19 
REMARK    5  A    between atoms: C19_22  and  O20_23 
ROOT
HETATM    1  O1          0      57.789   8.754  16.604  1.00  0.00    -0.286 OA
HETATM    2  C2          0      57.130   9.558  15.889  1.00  0.00     0.201 C 
HETATM    3  C3          0      55.791   9.372  15.591  1.00  0.00     0.067 C 
HETATM    4  C4          0      55.115  10.218  14.718  1.00  0.00     0.103 C 
HETATM    5  O13         0      55.770  11.232  14.181  1.00  0.00    -0.307 OA
HETATM    6  C14         0      57.051  11.431  14.402  1.00  0.00     0.107 C 
HETATM    7  C15         0      57.824  12.218  13.560  1.00  0.00     0.049 C 
HETATM    8  C16         0      59.211  12.221  13.646  1.00  0.00     0.093 C 
HETATM    9  C18         0      59.723  11.856  14.885  1.00  0.00     0.048 C 
HETATM   10  C19         0      58.959  11.108  15.772  1.00  0.00     0.096 C 
HETATM   11  C21         0      57.686  10.742  15.429  1.00  0.00     0.084 C 
ENDROOT
BRANCH  10  12
HETATM   12  O20         0      59.595  10.392  16.781  1.00  0.00    -0.359 OA
HETATM   13  H20         0      60.039  10.882  17.463  1.00  0.00     0.218 HD
ENDBRANCH  10  12
BRANCH   4  14
HETATM   14  C5          0      53.968   9.660  13.999  1.00  0.00     0.025 C 
HETATM   15  C6          0      53.009  10.451  13.384  1.00  0.00     0.004 C 
HETATM   16  C7          0      52.500  10.016  12.165  1.00  0.00     0.026 C 
HETATM   17  C8          0      52.831   8.773  11.637  1.00  0.00     0.112 C 
HETATM   18  C10         0      53.253   7.839  12.574  1.00  0.00     0.112 C 
HETATM   19  C12         0      53.837   8.300  13.749  1.00  0.00     0.028 C 
BRANCH  17  20
HETATM   20  O9          0      52.926   8.585  10.270  1.00  0.00    -0.357 OA
HETATM   21  H9          0      52.376   7.986   9.779  1.00  0.00     0.218 HD
ENDBRANCH  17  20
BRANCH  18  22
HETATM   22  O11         0      53.415   6.534  12.132  1.00  0.00    -0.357 OA
HETATM   23  H11         0      54.024   6.395  11.416  1.00  0.00     0.218 HD
ENDBRANCH  18  22
ENDBRANCH   4  14
BRANCH   8  24
HETATM   24  O17         0      60.013  12.253  12.500  1.00  0.00    -0.359 OA
HETATM   25  H17         0      60.108  13.042  11.979  1.00  0.00     0.218 HD
ENDBRANCH   8  24
TORSDOF 5
ENDMDL
