MODEL 1
REMARK VINA RESULT:      -0.6      0.000      0.000
REMARK  5 active torsions:
REMARK  status: ('A' for Active; 'I' for Inactive)
REMARK    1  A    between atoms: C4_4  and  C5_5 
REMARK    2  A    between atoms: C8_8  and  O9_9 
REMARK    3  A    between atoms: C10_11  and  O11_12 
REMARK    4  A    between atoms: C16_18  and  O17_19 
REMARK    5  A    between atoms: C19_22  and  O20_23 
ROOT
HETATM    1  O1          0      25.085  38.028 -22.980  1.00  0.00    -0.286 OA
HETATM    2  C2          0      26.089  38.616 -23.467  1.00  0.00     0.201 C 
HETATM    3  C3          0      26.412  38.560 -24.812  1.00  0.00     0.067 C 
HETATM    4  C4          0      27.580  39.132 -25.305  1.00  0.00     0.103 C 
HETATM    5  O13         0      28.384  39.758 -24.464  1.00  0.00    -0.307 OA
HETATM    6  C14         0      28.143  39.808 -23.173  1.00  0.00     0.107 C 
HETATM    7  C15         0      29.142  40.096 -22.253  1.00  0.00     0.049 C 
HETATM    8  C16         0      28.948  39.899 -20.892  1.00  0.00     0.093 C 
HETATM    9  C18         0      27.622  39.928 -20.477  1.00  0.00     0.048 C 
HETATM   10  C19         0      26.595  39.691 -21.381  1.00  0.00     0.096 C 
HETATM   11  C21         0      26.890  39.442 -22.694  1.00  0.00     0.084 C 
ENDROOT
BRANCH  10  12
HETATM   12  O20         0      25.349  39.294 -20.906  1.00  0.00    -0.359 OA
HETATM   13  H20         0      24.588  39.481 -21.442  1.00  0.00     0.218 HD
ENDBRANCH  10  12
BRANCH   4  14
HETATM   14  C5          0      28.148  38.550 -26.523  1.00  0.00     0.025 C 
HETATM   15  C6          0      29.514  38.451 -26.742  1.00  0.00     0.004 C 
HETATM   16  C7          0      29.984  37.304 -27.374  1.00  0.00     0.026 C 
HETATM   17  C8          0      29.116  36.349 -27.892  1.00  0.00     0.112 C 
HETATM   18  C10         0      27.844  36.822 -28.188  1.00  0.00     0.112 C 
HETATM   19  C12         0      27.366  37.919 -27.481  1.00  0.00     0.028 C 
BRANCH  17  20
HETATM   20  O9          0      29.458  35.009 -27.897  1.00  0.00    -0.357 OA
HETATM   21  H9          0      29.439  34.456 -27.124  1.00  0.00     0.218 HD
ENDBRANCH  17  20
BRANCH  18  22
HETATM   22  O11         0      27.000  35.964 -28.880  1.00  0.00    -0.357 OA
HETATM   23  H11         0      26.715  36.245 -29.742  1.00  0.00     0.218 HD
ENDBRANCH  18  22
ENDBRANCH   4  14
BRANCH   8  24
HETATM   24  O17         0      29.962  39.380 -20.078  1.00  0.00    -0.359 OA
HETATM   25  H17         0      30.256  38.481 -20.160  1.00  0.00     0.218 HD
ENDBRANCH   8  24
TORSDOF 5
ENDMDL
MODEL 2
REMARK VINA RESULT:      -0.5      1.290      1.371
REMARK  5 active torsions:
REMARK  status: ('A' for Active; 'I' for Inactive)
REMARK    1  A    between atoms: C4_4  and  C5_5 
REMARK    2  A    between atoms: C8_8  and  O9_9 
REMARK    3  A    between atoms: C10_11  and  O11_12 
REMARK    4  A    between atoms: C16_18  and  O17_19 
REMARK    5  A    between atoms: C19_22  and  O20_23 
ROOT
HETATM    1  O1          0      25.177  37.718 -23.958  1.00  0.00    -0.286 OA
HETATM    2  C2          0      26.096  38.517 -24.285  1.00  0.00     0.201 C 
HETATM    3  C3          0      26.416  38.794 -25.604  1.00  0.00     0.067 C 
HETATM    4  C4          0      27.499  39.599 -25.937  1.00  0.00     0.103 C 
HETATM    5  O13         0      28.222  40.125 -24.964  1.00  0.00    -0.307 OA
HETATM    6  C14         0      27.985  39.864 -23.697  1.00  0.00     0.107 C 
HETATM    7  C15         0      28.944  40.070 -22.717  1.00  0.00     0.049 C 
HETATM    8  C16         0      28.785  39.561 -21.433  1.00  0.00     0.093 C 
HETATM    9  C18         0      27.468  39.335 -21.051  1.00  0.00     0.048 C 
HETATM   10  C19         0      26.474  39.172 -22.006  1.00  0.00     0.096 C 
HETATM   11  C21         0      26.791  39.251 -23.335  1.00  0.00     0.084 C 
ENDROOT
BRANCH  10  12
HETATM   12  O20         0      25.291  38.529 -21.654  1.00  0.00    -0.359 OA
HETATM   13  H20         0      24.804  38.869 -20.913  1.00  0.00     0.218 HD
ENDBRANCH  10  12
BRANCH   4  14
HETATM   14  C5          0      28.129  39.369 -27.239  1.00  0.00     0.025 C 
HETATM   15  C6          0      29.425  38.893 -27.373  1.00  0.00     0.004 C 
HETATM   16  C7          0      29.676  37.989 -28.401  1.00  0.00     0.026 C 
HETATM   17  C8          0      28.707  37.672 -29.346  1.00  0.00     0.112 C 
HETATM   18  C10         0      27.716  38.632 -29.506  1.00  0.00     0.112 C 
HETATM   19  C12         0      27.427  39.467 -28.433  1.00  0.00     0.028 C 
BRANCH  17  20
HETATM   20  O9          0      28.648  36.407 -29.904  1.00  0.00    -0.357 OA
HETATM   21  H9          0      28.613  35.606 -29.393  1.00  0.00     0.218 HD
ENDBRANCH  17  20
BRANCH  18  22
HETATM   22  O11         0      26.835  38.456 -30.563  1.00  0.00    -0.357 OA
HETATM   23  H11         0      25.912  38.593 -30.381  1.00  0.00     0.218 HD
ENDBRANCH  18  22
ENDBRANCH   4  14
BRANCH   8  24
HETATM   24  O17         0      29.861  39.010 -20.729  1.00  0.00    -0.359 OA
HETATM   25  H17         0      30.746  39.031 -21.073  1.00  0.00     0.218 HD
ENDBRANCH   8  24
TORSDOF 5
ENDMDL
MODEL 3
REMARK VINA RESULT:      -0.5      4.110      4.763
REMARK  5 active torsions:
REMARK  status: ('A' for Active; 'I' for Inactive)
REMARK    1  A    between atoms: C4_4  and  C5_5 
REMARK    2  A    between atoms: C8_8  and  O9_9 
REMARK    3  A    between atoms: C10_11  and  O11_12 
REMARK    4  A    between atoms: C16_18  and  O17_19 
REMARK    5  A    between atoms: C19_22  and  O20_23 
ROOT
HETATM    1  O1          0      26.069  38.005 -25.262  1.00  0.00    -0.286 OA
HETATM    2  C2          0      27.121  37.394 -24.930  1.00  0.00     0.201 C 
HETATM    3  C3          0      27.243  36.017 -24.996  1.00  0.00     0.067 C 
HETATM    4  C4          0      28.376  35.362 -24.527  1.00  0.00     0.103 C 
HETATM    5  O13         0      29.364  36.082 -24.026  1.00  0.00    -0.307 OA
HETATM    6  C14         0      29.284  37.389 -23.905  1.00  0.00     0.107 C 
HETATM    7  C15         0      30.109  38.095 -23.041  1.00  0.00     0.049 C 
HETATM    8  C16         0      29.856  39.425 -22.728  1.00  0.00     0.093 C 
HETATM    9  C18         0      29.121  40.123 -23.678  1.00  0.00     0.048 C 
HETATM   10  C19         0      28.322  39.445 -24.589  1.00  0.00     0.096 C 
HETATM   11  C21         0      28.270  38.078 -24.561  1.00  0.00     0.084 C 
ENDROOT
BRANCH  10  12
HETATM   12  O20         0      27.286  40.125 -25.222  1.00  0.00    -0.359 OA
HETATM   13  H20         0      27.514  40.806 -25.842  1.00  0.00     0.218 HD
ENDBRANCH  10  12
BRANCH   4  14
HETATM   14  C5          0      28.211  33.980 -24.072  1.00  0.00     0.025 C 
HETATM   15  C6          0      28.918  33.450 -23.003  1.00  0.00     0.004 C 
HETATM   16  C7          0      28.246  32.577 -22.154  1.00  0.00     0.026 C 
HETATM   17  C8          0      26.955  32.138 -22.432  1.00  0.00     0.112 C 
HETATM   18  C10         0      26.598  32.201 -23.773  1.00  0.00     0.112 C 
HETATM   19  C12         0      27.226  33.142 -24.580  1.00  0.00     0.028 C 
BRANCH  17  20
HETATM   20  O9          0      26.062  31.872 -21.411  1.00  0.00    -0.357 OA
HETATM   21  H9          0      26.321  31.708 -20.511  1.00  0.00     0.218 HD
ENDBRANCH  17  20
BRANCH  18  22
HETATM   22  O11         0      25.398  31.603 -24.132  1.00  0.00    -0.357 OA
HETATM   23  H11         0      25.408  31.048 -24.903  1.00  0.00     0.218 HD
ENDBRANCH  18  22
ENDBRANCH   4  14
BRANCH   8  24
HETATM   24  O17         0      30.030  39.913 -21.428  1.00  0.00    -0.359 OA
HETATM   25  H17         0      30.711  39.580 -20.856  1.00  0.00     0.218 HD
ENDBRANCH   8  24
TORSDOF 5
ENDMDL
MODEL 4
REMARK VINA RESULT:      -0.4      2.844      6.833
REMARK  5 active torsions:
REMARK  status: ('A' for Active; 'I' for Inactive)
REMARK    1  A    between atoms: C4_4  and  C5_5 
REMARK    2  A    between atoms: C8_8  and  O9_9 
REMARK    3  A    between atoms: C10_11  and  O11_12 
REMARK    4  A    between atoms: C16_18  and  O17_19 
REMARK    5  A    between atoms: C19_22  and  O20_23 
ROOT
HETATM    1  O1          0      26.572  33.822 -23.298  1.00  0.00    -0.286 OA
HETATM    2  C2          0      27.452  34.557 -23.825  1.00  0.00     0.201 C 
HETATM    3  C3          0      28.091  35.573 -23.135  1.00  0.00     0.067 C 
HETATM    4  C4          0      28.981  36.435 -23.766  1.00  0.00     0.103 C 
HETATM    5  O13         0      29.232  36.258 -25.052  1.00  0.00    -0.307 OA
HETATM    6  C14         0      28.624  35.333 -25.762  1.00  0.00     0.107 C 
HETATM    7  C15         0      28.569  35.393 -27.147  1.00  0.00     0.049 C 
HETATM    8  C16         0      27.720  34.565 -27.872  1.00  0.00     0.093 C 
HETATM    9  C18         0      27.368  33.382 -27.234  1.00  0.00     0.048 C 
HETATM   10  C19         0      27.454  33.273 -25.853  1.00  0.00     0.096 C 
HETATM   11  C21         0      27.907  34.332 -25.115  1.00  0.00     0.084 C 
ENDROOT
BRANCH  10  12
HETATM   12  O20         0      26.714  32.292 -25.200  1.00  0.00    -0.359 OA
HETATM   13  H20         0      26.282  31.633 -25.731  1.00  0.00     0.218 HD
ENDBRANCH  10  12
BRANCH   4  14
HETATM   14  C5          0      29.136  37.774 -23.196  1.00  0.00     0.025 C 
HETATM   15  C6          0      28.394  38.865 -23.625  1.00  0.00     0.004 C 
HETATM   16  C7          0      27.971  39.776 -22.662  1.00  0.00     0.026 C 
HETATM   17  C8          0      28.383  39.681 -21.337  1.00  0.00     0.112 C 
HETATM   18  C10         0      29.571  38.987 -21.148  1.00  0.00     0.112 C 
HETATM   19  C12         0      29.928  38.021 -22.081  1.00  0.00     0.028 C 
BRANCH  17  20
HETATM   20  O9          0      27.547  40.069 -20.305  1.00  0.00    -0.357 OA
HETATM   21  H9          0      27.283  40.969 -20.150  1.00  0.00     0.218 HD
ENDBRANCH  17  20
BRANCH  18  22
HETATM   22  O11         0      30.124  39.023 -19.876  1.00  0.00    -0.357 OA
HETATM   23  H11         0      29.737  38.452 -19.222  1.00  0.00     0.218 HD
ENDBRANCH  18  22
ENDBRANCH   4  14
BRANCH   8  24
HETATM   24  O17         0      27.019  35.038 -28.987  1.00  0.00    -0.359 OA
HETATM   25  H17         0      26.084  35.203 -28.955  1.00  0.00     0.218 HD
ENDBRANCH   8  24
TORSDOF 5
ENDMDL
MODEL 5
REMARK VINA RESULT:      -0.4      3.480      6.054
REMARK  5 active torsions:
REMARK  status: ('A' for Active; 'I' for Inactive)
REMARK    1  A    between atoms: C4_4  and  C5_5 
REMARK    2  A    between atoms: C8_8  and  O9_9 
REMARK    3  A    between atoms: C10_11  and  O11_12 
REMARK    4  A    between atoms: C16_18  and  O17_19 
REMARK    5  A    between atoms: C19_22  and  O20_23 
ROOT
HETATM    1  O1          0      23.759  37.078 -20.974  1.00  0.00    -0.286 OA
HETATM    2  C2          0      24.648  36.454 -21.615  1.00  0.00     0.201 C 
HETATM    3  C3          0      26.001  36.697 -21.452  1.00  0.00     0.067 C 
HETATM    4  C4          0      26.955  36.069 -22.244  1.00  0.00     0.103 C 
HETATM    5  O13         0      26.552  35.204 -23.158  1.00  0.00    -0.307 OA
HETATM    6  C14         0      25.278  34.965 -23.380  1.00  0.00     0.107 C 
HETATM    7  C15         0      24.837  34.391 -24.563  1.00  0.00     0.049 C 
HETATM    8  C16         0      23.488  34.374 -24.898  1.00  0.00     0.093 C 
HETATM    9  C18         0      22.615  34.451 -23.821  1.00  0.00     0.048 C 
HETATM   10  C19         0      23.037  34.976 -22.607  1.00  0.00     0.096 C 
HETATM   11  C21         0      24.328  35.406 -22.465  1.00  0.00     0.084 C 
ENDROOT
BRANCH  10  12
HETATM   12  O20         0      22.089  35.448 -21.704  1.00  0.00    -0.359 OA
HETATM   13  H20         0      21.245  35.719 -22.045  1.00  0.00     0.218 HD
ENDBRANCH  10  12
BRANCH   4  14
HETATM   14  C5          0      28.224  36.771 -22.449  1.00  0.00     0.025 C 
HETATM   15  C6          0      29.020  36.574 -23.568  1.00  0.00     0.004 C 
HETATM   16  C7          0      29.661  37.684 -24.107  1.00  0.00     0.026 C 
HETATM   17  C8          0      29.622  38.925 -23.480  1.00  0.00     0.112 C 
HETATM   18  C10         0      29.367  38.877 -22.116  1.00  0.00     0.112 C 
HETATM   19  C12         0      28.650  37.797 -21.615  1.00  0.00     0.028 C 
BRANCH  17  20
HETATM   20  O9          0      29.628  40.094 -24.220  1.00  0.00    -0.357 OA
HETATM   21  H9          0      29.490  40.956 -23.845  1.00  0.00     0.218 HD
ENDBRANCH  17  20
BRANCH  18  22
HETATM   22  O11         0      29.504  40.063 -21.409  1.00  0.00    -0.357 OA
HETATM   23  H11         0      29.106  40.838 -21.789  1.00  0.00     0.218 HD
ENDBRANCH  18  22
ENDBRANCH   4  14
BRANCH   8  24
HETATM   24  O17         0      23.060  34.603 -26.211  1.00  0.00    -0.359 OA
HETATM   25  H17         0      23.129  35.460 -26.615  1.00  0.00     0.218 HD
ENDBRANCH   8  24
TORSDOF 5
ENDMDL
MODEL 6
REMARK VINA RESULT:      -0.3      3.010      3.944
REMARK  5 active torsions:
REMARK  status: ('A' for Active; 'I' for Inactive)
REMARK    1  A    between atoms: C4_4  and  C5_5 
REMARK    2  A    between atoms: C8_8  and  O9_9 
REMARK    3  A    between atoms: C10_11  and  O11_12 
REMARK    4  A    between atoms: C16_18  and  O17_19 
REMARK    5  A    between atoms: C19_22  and  O20_23 
ROOT
HETATM    1  O1          0      27.110  35.310 -24.107  1.00  0.00    -0.286 OA
HETATM    2  C2          0      26.625  36.468 -23.987  1.00  0.00     0.201 C 
HETATM    3  C3          0      25.473  36.871 -24.641  1.00  0.00     0.067 C 
HETATM    4  C4          0      25.017  38.183 -24.572  1.00  0.00     0.103 C 
HETATM    5  O13         0      25.696  39.053 -23.846  1.00  0.00    -0.307 OA
HETATM    6  C14         0      26.816  38.732 -23.235  1.00  0.00     0.107 C 
HETATM    7  C15         0      27.724  39.695 -22.821  1.00  0.00     0.049 C 
HETATM    8  C16         0      29.007  39.349 -22.412  1.00  0.00     0.093 C 
HETATM    9  C18         0      29.142  38.048 -21.943  1.00  0.00     0.048 C 
HETATM   10  C19         0      28.224  37.070 -22.301  1.00  0.00     0.096 C 
HETATM   11  C21         0      27.168  37.393 -23.108  1.00  0.00     0.084 C 
ENDROOT
BRANCH  10  12
HETATM   12  O20         0      28.586  35.730 -22.204  1.00  0.00    -0.359 OA
HETATM   13  H20         0      28.643  35.225 -23.007  1.00  0.00     0.218 HD
ENDBRANCH  10  12
BRANCH   4  14
HETATM   14  C5          0      24.218  38.674 -25.697  1.00  0.00     0.025 C 
HETATM   15  C6          0      24.343  39.959 -26.203  1.00  0.00     0.004 C 
HETATM   16  C7          0      24.250  40.121 -27.582  1.00  0.00     0.026 C 
HETATM   17  C8          0      23.910  39.063 -28.419  1.00  0.00     0.112 C 
HETATM   18  C10         0      23.208  38.037 -27.801  1.00  0.00     0.112 C 
HETATM   19  C12         0      23.385  37.844 -26.436  1.00  0.00     0.028 C 
BRANCH  17  20
HETATM   20  O9          0      24.431  38.976 -29.698  1.00  0.00    -0.357 OA
HETATM   21  H9          0      23.933  38.678 -30.451  1.00  0.00     0.218 HD
ENDBRANCH  17  20
BRANCH  18  22
HETATM   22  O11         0      22.682  37.052 -28.623  1.00  0.00    -0.357 OA
HETATM   23  H11         0      21.860  36.658 -28.352  1.00  0.00     0.218 HD
ENDBRANCH  18  22
ENDBRANCH   4  14
BRANCH   8  24
HETATM   24  O17         0      30.117  40.125 -22.763  1.00  0.00    -0.359 OA
HETATM   25  H17         0      30.993  39.758 -22.790  1.00  0.00     0.218 HD
ENDBRANCH   8  24
TORSDOF 5
ENDMDL
MODEL 7
REMARK VINA RESULT:      -0.3      3.670      6.557
REMARK  5 active torsions:
REMARK  status: ('A' for Active; 'I' for Inactive)
REMARK    1  A    between atoms: C4_4  and  C5_5 
REMARK    2  A    between atoms: C8_8  and  O9_9 
REMARK    3  A    between atoms: C10_11  and  O11_12 
REMARK    4  A    between atoms: C16_18  and  O17_19 
REMARK    5  A    between atoms: C19_22  and  O20_23 
ROOT
HETATM    1  O1          0      23.068  34.829 -21.167  1.00  0.00    -0.286 OA
HETATM    2  C2          0      24.010  35.273 -21.877  1.00  0.00     0.201 C 
HETATM    3  C3          0      25.289  35.474 -21.387  1.00  0.00     0.067 C 
HETATM    4  C4          0      26.283  36.061 -22.163  1.00  0.00     0.103 C 
HETATM    5  O13         0      25.994  36.414 -23.403  1.00  0.00    -0.307 OA
HETATM    6  C14         0      24.786  36.280 -23.905  1.00  0.00     0.107 C 
HETATM    7  C15         0      24.376  36.993 -25.023  1.00  0.00     0.049 C 
HETATM    8  C16         0      23.039  37.044 -25.395  1.00  0.00     0.093 C 
HETATM    9  C18         0      22.266  35.976 -24.955  1.00  0.00     0.048 C 
HETATM   10  C19         0      22.670  35.213 -23.868  1.00  0.00     0.096 C 
HETATM   11  C21         0      23.847  35.504 -23.235  1.00  0.00     0.084 C 
ENDROOT
BRANCH  10  12
HETATM   12  O20         0      21.726  34.460 -23.177  1.00  0.00    -0.359 OA
HETATM   13  H20         0      21.304  34.858 -22.424  1.00  0.00     0.218 HD
ENDBRANCH  10  12
BRANCH   4  14
HETATM   14  C5          0      27.350  36.773 -21.457  1.00  0.00     0.025 C 
HETATM   15  C6          0      28.696  36.569 -21.726  1.00  0.00     0.004 C 
HETATM   16  C7          0      29.534  37.680 -21.699  1.00  0.00     0.026 C 
HETATM   17  C8          0      29.078  38.927 -21.288  1.00  0.00     0.112 C 
HETATM   18  C10         0      27.960  38.894 -20.466  1.00  0.00     0.112 C 
HETATM   19  C12         0      27.093  37.813 -20.573  1.00  0.00     0.028 C 
BRANCH  17  20
HETATM   20  O9          0      29.589  40.087 -21.843  1.00  0.00    -0.357 OA
HETATM   21  H9          0      29.796  40.867 -21.340  1.00  0.00     0.218 HD
ENDBRANCH  17  20
BRANCH  18  22
HETATM   22  O11         0      27.578  40.091 -19.875  1.00  0.00    -0.357 OA
HETATM   23  H11         0      26.658  40.189 -19.659  1.00  0.00     0.218 HD
ENDBRANCH  18  22
ENDBRANCH   4  14
BRANCH   8  24
HETATM   24  O17         0      22.459  38.226 -25.870  1.00  0.00    -0.359 OA
HETATM   25  H17         0      22.287  38.963 -25.297  1.00  0.00     0.218 HD
ENDBRANCH   8  24
TORSDOF 5
ENDMDL
MODEL 8
REMARK VINA RESULT:      -0.3      3.737      6.365
REMARK  5 active torsions:
REMARK  status: ('A' for Active; 'I' for Inactive)
REMARK    1  A    between atoms: C4_4  and  C5_5 
REMARK    2  A    between atoms: C8_8  and  O9_9 
REMARK    3  A    between atoms: C10_11  and  O11_12 
REMARK    4  A    between atoms: C16_18  and  O17_19 
REMARK    5  A    between atoms: C19_22  and  O20_23 
ROOT
HETATM    1  O1          0      27.053  35.724 -23.882  1.00  0.00    -0.286 OA
HETATM    2  C2          0      26.782  36.226 -22.758  1.00  0.00     0.201 C 
HETATM    3  C3          0      25.503  36.231 -22.227  1.00  0.00     0.067 C 
HETATM    4  C4          0      25.212  36.882 -21.033  1.00  0.00     0.103 C 
HETATM    5  O13         0      26.191  37.491 -20.387  1.00  0.00    -0.307 OA
HETATM    6  C14         0      27.415  37.548 -20.866  1.00  0.00     0.107 C 
HETATM    7  C15         0      28.329  38.493 -20.423  1.00  0.00     0.049 C 
HETATM    8  C16         0      29.522  38.716 -21.100  1.00  0.00     0.093 C 
HETATM    9  C18         0      29.975  37.644 -21.860  1.00  0.00     0.048 C 
HETATM   10  C19         0      29.095  36.656 -22.280  1.00  0.00     0.096 C 
HETATM   11  C21         0      27.774  36.729 -21.930  1.00  0.00     0.084 C 
ENDROOT
BRANCH  10  12
HETATM   12  O20         0      29.439  35.856 -23.365  1.00  0.00    -0.359 OA
HETATM   13  H20         0      28.769  35.292 -23.733  1.00  0.00     0.218 HD
ENDBRANCH  10  12
BRANCH   4  14
HETATM   14  C5          0      23.841  37.361 -20.848  1.00  0.00     0.025 C 
HETATM   15  C6          0      23.521  38.423 -20.014  1.00  0.00     0.004 C 
HETATM   16  C7          0      22.528  39.299 -20.439  1.00  0.00     0.026 C 
HETATM   17  C8          0      21.783  39.056 -21.588  1.00  0.00     0.112 C 
HETATM   18  C10         0      21.730  37.723 -21.973  1.00  0.00     0.112 C 
HETATM   19  C12         0      22.779  36.888 -21.608  1.00  0.00     0.028 C 
BRANCH  17  20
HETATM   20  O9          0      21.328  40.101 -22.372  1.00  0.00    -0.357 OA
HETATM   21  H9          0      21.674  40.304 -23.233  1.00  0.00     0.218 HD
ENDBRANCH  17  20
BRANCH  18  22
HETATM   22  O11         0      20.851  37.399 -22.997  1.00  0.00    -0.357 OA
HETATM   23  H11         0      21.033  36.605 -23.485  1.00  0.00     0.218 HD
ENDBRANCH  18  22
ENDBRANCH   4  14
BRANCH   8  24
HETATM   24  O17         0      30.032  40.008 -21.273  1.00  0.00    -0.359 OA
HETATM   25  H17         0      30.885  40.256 -20.937  1.00  0.00     0.218 HD
ENDBRANCH   8  24
TORSDOF 5
ENDMDL
MODEL 9
REMARK VINA RESULT:      -0.3      3.058      4.211
REMARK  5 active torsions:
REMARK  status: ('A' for Active; 'I' for Inactive)
REMARK    1  A    between atoms: C4_4  and  C5_5 
REMARK    2  A    between atoms: C8_8  and  O9_9 
REMARK    3  A    between atoms: C10_11  and  O11_12 
REMARK    4  A    between atoms: C16_18  and  O17_19 
REMARK    5  A    between atoms: C19_22  and  O20_23 
ROOT
HETATM    1  O1          0      25.057  38.393 -22.342  1.00  0.00    -0.286 OA
HETATM    2  C2          0      25.153  38.788 -23.537  1.00  0.00     0.201 C 
HETATM    3  C3          0      24.160  38.580 -24.478  1.00  0.00     0.067 C 
HETATM    4  C4          0      24.334  38.933 -25.812  1.00  0.00     0.103 C 
HETATM    5  O13         0      25.471  39.499 -26.175  1.00  0.00    -0.307 OA
HETATM    6  C14         0      26.461  39.685 -25.330  1.00  0.00     0.107 C 
HETATM    7  C15         0      27.762  39.894 -25.763  1.00  0.00     0.049 C 
HETATM    8  C16         0      28.834  39.835 -24.880  1.00  0.00     0.093 C 
HETATM    9  C18         0      28.517  40.092 -23.552  1.00  0.00     0.048 C 
HETATM   10  C19         0      27.215  39.937 -23.096  1.00  0.00     0.096 C 
HETATM   11  C21         0      26.233  39.546 -23.965  1.00  0.00     0.084 C 
ENDROOT
BRANCH  10  12
HETATM   12  O20         0      26.987  39.766 -21.734  1.00  0.00    -0.359 OA
HETATM   13  H20         0      27.431  40.350 -21.132  1.00  0.00     0.218 HD
ENDBRANCH  10  12
BRANCH   4  14
HETATM   14  C5          0      23.570  38.180 -26.809  1.00  0.00     0.025 C 
HETATM   15  C6          0      23.915  38.148 -28.152  1.00  0.00     0.004 C 
HETATM   16  C7          0      23.756  36.944 -28.830  1.00  0.00     0.026 C 
HETATM   17  C8          0      23.150  35.845 -28.231  1.00  0.00     0.112 C 
HETATM   18  C10         0      22.301  36.153 -27.177  1.00  0.00     0.112 C 
HETATM   19  C12         0      22.535  37.322 -26.462  1.00  0.00     0.028 C 
BRANCH  17  20
HETATM   20  O9          0      23.547  34.557 -28.546  1.00  0.00    -0.357 OA
HETATM   21  H9          0      24.455  34.295 -28.647  1.00  0.00     0.218 HD
ENDBRANCH  17  20
BRANCH  18  22
HETATM   22  O11         0      21.529  35.119 -26.668  1.00  0.00    -0.357 OA
HETATM   23  H11         0      21.088  35.278 -25.841  1.00  0.00     0.218 HD
ENDBRANCH  18  22
ENDBRANCH   4  14
BRANCH   8  24
HETATM   24  O17         0      30.047  39.239 -25.245  1.00  0.00    -0.359 OA
HETATM   25  H17         0      30.835  39.752 -25.378  1.00  0.00     0.218 HD
ENDBRANCH   8  24
TORSDOF 5
ENDMDL
