MODEL 1
REMARK VINA RESULT:      -7.7      0.000      0.000
REMARK  5 active torsions:
REMARK  status: ('A' for Active; 'I' for Inactive)
REMARK    1  A    between atoms: C4_4  and  C5_5 
REMARK    2  A    between atoms: C8_8  and  O9_9 
REMARK    3  A    between atoms: C10_11  and  O11_12 
REMARK    4  A    between atoms: C16_18  and  O17_19 
REMARK    5  A    between atoms: C19_22  and  O20_23 
ROOT
HETATM    1  O1          0      23.135  87.583  -4.158  1.00  0.00    -0.286 OA
HETATM    2  C2          0      23.364  88.605  -4.861  1.00  0.00     0.201 C 
HETATM    3  C3          0      23.968  88.539  -6.105  1.00  0.00     0.067 C 
HETATM    4  C4          0      24.303  89.688  -6.814  1.00  0.00     0.103 C 
HETATM    5  O13         0      24.014  90.865  -6.288  1.00  0.00    -0.307 OA
HETATM    6  C14         0      23.474  90.984  -5.094  1.00  0.00     0.107 C 
HETATM    7  C15         0      23.536  92.171  -4.379  1.00  0.00     0.049 C 
HETATM    8  C16         0      23.196  92.221  -3.033  1.00  0.00     0.093 C 
HETATM    9  C18         0      22.326  91.224  -2.610  1.00  0.00     0.048 C 
HETATM   10  C19         0      22.205  90.042  -3.328  1.00  0.00     0.096 C 
HETATM   11  C21         0      22.936  89.864  -4.470  1.00  0.00     0.084 C 
ENDROOT
BRANCH  10  12
HETATM   12  O20         0      21.695  88.912  -2.696  1.00  0.00    -0.359 OA
HETATM   13  H20         0      20.759  88.870  -2.547  1.00  0.00     0.218 HD
ENDBRANCH  10  12
BRANCH   4  14
HETATM   14  C5          0      25.419  89.592  -7.757  1.00  0.00     0.025 C 
HETATM   15  C6          0      26.341  88.557  -7.727  1.00  0.00     0.004 C 
HETATM   16  C7          0      26.796  88.063  -8.946  1.00  0.00     0.026 C 
HETATM   17  C8          0      26.450  88.665 -10.151  1.00  0.00     0.112 C 
HETATM   18  C10         0      26.081  89.999 -10.048  1.00  0.00     0.112 C 
HETATM   19  C12         0      25.550  90.446  -8.844  1.00  0.00     0.028 C 
BRANCH  17  20
HETATM   20  O9          0      26.292  87.910 -11.300  1.00  0.00    -0.357 OA
HETATM   21  H9          0      26.548  86.998 -11.372  1.00  0.00     0.218 HD
ENDBRANCH  17  20
BRANCH  18  22
HETATM   22  O11         0      25.910  90.697 -11.235  1.00  0.00    -0.357 OA
HETATM   23  H11         0      26.687  91.079 -11.625  1.00  0.00     0.218 HD
ENDBRANCH  18  22
ENDBRANCH   4  14
BRANCH   8  24
HETATM   24  O17         0      23.930  92.992  -2.124  1.00  0.00    -0.359 OA
HETATM   25  H17         0      24.470  92.593  -1.452  1.00  0.00     0.218 HD
ENDBRANCH   8  24
TORSDOF 5
ENDMDL
MODEL 2
REMARK VINA RESULT:      -7.6      1.490      6.567
REMARK  5 active torsions:
REMARK  status: ('A' for Active; 'I' for Inactive)
REMARK    1  A    between atoms: C4_4  and  C5_5 
REMARK    2  A    between atoms: C8_8  and  O9_9 
REMARK    3  A    between atoms: C10_11  and  O11_12 
REMARK    4  A    between atoms: C16_18  and  O17_19 
REMARK    5  A    between atoms: C19_22  and  O20_23 
ROOT
HETATM    1  O1          0      23.823  86.657  -7.812  1.00  0.00    -0.286 OA
HETATM    2  C2          0      24.210  87.815  -7.494  1.00  0.00     0.201 C 
HETATM    3  C3          0      23.784  88.460  -6.346  1.00  0.00     0.067 C 
HETATM    4  C4          0      24.146  89.775  -6.072  1.00  0.00     0.103 C 
HETATM    5  O13         0      24.932  90.408  -6.925  1.00  0.00    -0.307 OA
HETATM    6  C14         0      25.334  89.854  -8.048  1.00  0.00     0.107 C 
HETATM    7  C15         0      25.806  90.614  -9.109  1.00  0.00     0.049 C 
HETATM    8  C16         0      25.987  90.058 -10.370  1.00  0.00     0.093 C 
HETATM    9  C18         0      26.191  88.683 -10.382  1.00  0.00     0.048 C 
HETATM   10  C19         0      25.773  87.899  -9.315  1.00  0.00     0.096 C 
HETATM   11  C21         0      25.171  88.486  -8.235  1.00  0.00     0.084 C 
ENDROOT
BRANCH  10  12
HETATM   12  O20         0      25.579  86.535  -9.508  1.00  0.00    -0.359 OA
HETATM   13  H20         0      24.686  86.214  -9.553  1.00  0.00     0.218 HD
ENDBRANCH  10  12
BRANCH   4  14
HETATM   14  C5          0      23.235  90.560  -5.237  1.00  0.00     0.025 C 
HETATM   15  C6          0      22.337  89.980  -4.353  1.00  0.00     0.004 C 
HETATM   16  C7          0      22.132  90.615  -3.132  1.00  0.00     0.026 C 
HETATM   17  C8          0      22.697  91.854  -2.851  1.00  0.00     0.112 C 
HETATM   18  C10         0      23.023  92.610  -3.970  1.00  0.00     0.112 C 
HETATM   19  C12         0      23.306  91.945  -5.157  1.00  0.00     0.028 C 
BRANCH  17  20
HETATM   20  O9          0      23.084  92.181  -1.564  1.00  0.00    -0.357 OA
HETATM   21  H9          0      23.146  91.551  -0.855  1.00  0.00     0.218 HD
ENDBRANCH  17  20
BRANCH  18  22
HETATM   22  O11         0      23.412  93.923  -3.749  1.00  0.00    -0.357 OA
HETATM   23  H11         0      23.036  94.362  -2.995  1.00  0.00     0.218 HD
ENDBRANCH  18  22
ENDBRANCH   4  14
BRANCH   8  24
HETATM   24  O17         0      25.653  90.762 -11.532  1.00  0.00    -0.359 OA
HETATM   25  H17         0      26.294  90.939 -12.210  1.00  0.00     0.218 HD
ENDBRANCH   8  24
TORSDOF 5
ENDMDL
MODEL 3
REMARK VINA RESULT:      -7.2      1.742      2.936
REMARK  5 active torsions:
REMARK  status: ('A' for Active; 'I' for Inactive)
REMARK    1  A    between atoms: C4_4  and  C5_5 
REMARK    2  A    between atoms: C8_8  and  O9_9 
REMARK    3  A    between atoms: C10_11  and  O11_12 
REMARK    4  A    between atoms: C16_18  and  O17_19 
REMARK    5  A    between atoms: C19_22  and  O20_23 
ROOT
HETATM    1  O1          0      21.687  92.527  -5.126  1.00  0.00    -0.286 OA
HETATM    2  C2          0      22.412  91.512  -4.939  1.00  0.00     0.201 C 
HETATM    3  C3          0      23.287  91.028  -5.896  1.00  0.00     0.067 C 
HETATM    4  C4          0      23.999  89.849  -5.703  1.00  0.00     0.103 C 
HETATM    5  O13         0      23.845  89.194  -4.567  1.00  0.00    -0.307 OA
HETATM    6  C14         0      22.999  89.589  -3.640  1.00  0.00     0.107 C 
HETATM    7  C15         0      22.539  88.728  -2.655  1.00  0.00     0.049 C 
HETATM    8  C16         0      21.465  89.070  -1.842  1.00  0.00     0.093 C 
HETATM    9  C18         0      21.248  90.435  -1.699  1.00  0.00     0.048 C 
HETATM   10  C19         0      21.735  91.330  -2.643  1.00  0.00     0.096 C 
HETATM   11  C21         0      22.449  90.865  -3.713  1.00  0.00     0.084 C 
ENDROOT
BRANCH  10  12
HETATM   12  O20         0      21.165  92.595  -2.739  1.00  0.00    -0.359 OA
HETATM   13  H20         0      21.637  93.260  -3.225  1.00  0.00     0.218 HD
ENDBRANCH  10  12
BRANCH   4  14
HETATM   14  C5          0      24.396  89.104  -6.899  1.00  0.00     0.025 C 
HETATM   15  C6          0      23.644  88.061  -7.420  1.00  0.00     0.004 C 
HETATM   16  C7          0      23.563  87.953  -8.804  1.00  0.00     0.026 C 
HETATM   17  C8          0      24.312  88.770  -9.645  1.00  0.00     0.112 C 
HETATM   18  C10         0      25.455  89.305  -9.065  1.00  0.00     0.112 C 
HETATM   19  C12         0      25.476  89.481  -7.687  1.00  0.00     0.028 C 
BRANCH  17  20
HETATM   20  O9          0      23.817  89.166 -10.875  1.00  0.00    -0.357 OA
HETATM   21  H9          0      23.924  88.662 -11.673  1.00  0.00     0.218 HD
ENDBRANCH  17  20
BRANCH  18  22
HETATM   22  O11         0      26.334  89.970  -9.908  1.00  0.00    -0.357 OA
HETATM   23  H11         0      27.190  89.576 -10.034  1.00  0.00     0.218 HD
ENDBRANCH  18  22
ENDBRANCH   4  14
BRANCH   8  24
HETATM   24  O17         0      20.493  88.129  -1.484  1.00  0.00    -0.359 OA
HETATM   25  H17         0      20.688  87.201  -1.445  1.00  0.00     0.218 HD
ENDBRANCH   8  24
TORSDOF 5
ENDMDL
MODEL 4
REMARK VINA RESULT:      -6.9      1.644      2.278
REMARK  5 active torsions:
REMARK  status: ('A' for Active; 'I' for Inactive)
REMARK    1  A    between atoms: C4_4  and  C5_5 
REMARK    2  A    between atoms: C8_8  and  O9_9 
REMARK    3  A    between atoms: C10_11  and  O11_12 
REMARK    4  A    between atoms: C16_18  and  O17_19 
REMARK    5  A    between atoms: C19_22  and  O20_23 
ROOT
HETATM    1  O1          0      22.402  88.943  -2.371  1.00  0.00    -0.286 OA
HETATM    2  C2          0      22.527  89.475  -3.508  1.00  0.00     0.201 C 
HETATM    3  C3          0      22.894  88.759  -4.635  1.00  0.00     0.067 C 
HETATM    4  C4          0      23.124  89.387  -5.853  1.00  0.00     0.103 C 
HETATM    5  O13         0      22.968  90.697  -5.932  1.00  0.00    -0.307 OA
HETATM    6  C14         0      22.657  91.428  -4.885  1.00  0.00     0.107 C 
HETATM    7  C15         0      22.880  92.797  -4.857  1.00  0.00     0.049 C 
HETATM    8  C16         0      22.792  93.519  -3.673  1.00  0.00     0.093 C 
HETATM    9  C18         0      21.986  92.947  -2.695  1.00  0.00     0.048 C 
HETATM   10  C19         0      21.705  91.588  -2.719  1.00  0.00     0.096 C 
HETATM   11  C21         0      22.211  90.808  -3.723  1.00  0.00     0.084 C 
ENDROOT
BRANCH  10  12
HETATM   12  O20         0      21.289  90.959  -1.550  1.00  0.00    -0.359 OA
HETATM   13  H20         0      21.904  90.385  -1.110  1.00  0.00     0.218 HD
ENDBRANCH  10  12
BRANCH   4  14
HETATM   14  C5          0      24.048  88.731  -6.781  1.00  0.00     0.025 C 
HETATM   15  C6          0      23.753  88.535  -8.123  1.00  0.00     0.004 C 
HETATM   16  C7          0      24.788  88.690  -9.039  1.00  0.00     0.026 C 
HETATM   17  C8          0      26.100  88.900  -8.629  1.00  0.00     0.112 C 
HETATM   18  C10         0      26.384  88.455  -7.344  1.00  0.00     0.112 C 
HETATM   19  C12         0      25.346  88.390  -6.423  1.00  0.00     0.028 C 
BRANCH  17  20
HETATM   20  O9          0      26.962  89.680  -9.379  1.00  0.00    -0.357 OA
HETATM   21  H9          0      26.856  90.617  -9.500  1.00  0.00     0.218 HD
ENDBRANCH  17  20
BRANCH  18  22
HETATM   22  O11         0      27.716  88.466  -6.955  1.00  0.00    -0.357 OA
HETATM   23  H11         0      28.202  89.269  -7.107  1.00  0.00     0.218 HD
ENDBRANCH  18  22
ENDBRANCH   4  14
BRANCH   8  24
HETATM   24  O17         0      23.698  94.542  -3.373  1.00  0.00    -0.359 OA
HETATM   25  H17         0      24.409  94.414  -2.756  1.00  0.00     0.218 HD
ENDBRANCH   8  24
TORSDOF 5
ENDMDL
MODEL 5
REMARK VINA RESULT:      -6.6     12.222     14.468
REMARK  5 active torsions:
REMARK  status: ('A' for Active; 'I' for Inactive)
REMARK    1  A    between atoms: C4_4  and  C5_5 
REMARK    2  A    between atoms: C8_8  and  O9_9 
REMARK    3  A    between atoms: C10_11  and  O11_12 
REMARK    4  A    between atoms: C16_18  and  O17_19 
REMARK    5  A    between atoms: C19_22  and  O20_23 
ROOT
HETATM    1  O1          0      17.253  93.040 -15.246  1.00  0.00    -0.286 OA
HETATM    2  C2          0      16.570  92.020 -15.540  1.00  0.00     0.201 C 
HETATM    3  C3          0      15.289  91.811 -15.059  1.00  0.00     0.067 C 
HETATM    4  C4          0      14.598  90.632 -15.315  1.00  0.00     0.103 C 
HETATM    5  O13         0      15.179  89.703 -16.053  1.00  0.00    -0.307 OA
HETATM    6  C14         0      16.408  89.835 -16.502  1.00  0.00     0.107 C 
HETATM    7  C15         0      17.156  88.743 -16.917  1.00  0.00     0.049 C 
HETATM    8  C16         0      18.523  88.849 -17.147  1.00  0.00     0.093 C 
HETATM    9  C18         0      18.968  90.128 -17.458  1.00  0.00     0.048 C 
HETATM   10  C19         0      18.221  91.242 -17.099  1.00  0.00     0.096 C 
HETATM   11  C21         0      17.029  91.079 -16.448  1.00  0.00     0.084 C 
ENDROOT
BRANCH  10  12
HETATM   12  O20         0      18.847  92.482 -17.013  1.00  0.00    -0.359 OA
HETATM   13  H20         0      18.304  93.259 -17.070  1.00  0.00     0.218 HD
ENDBRANCH  10  12
BRANCH   4  14
HETATM   14  C5          0      13.583  90.226 -14.342  1.00  0.00     0.025 C 
HETATM   15  C6          0      13.793  90.274 -12.971  1.00  0.00     0.004 C 
HETATM   16  C7          0      12.727  90.667 -12.168  1.00  0.00     0.026 C 
HETATM   17  C8          0      11.457  90.877 -12.694  1.00  0.00     0.112 C 
HETATM   18  C10         0      11.206  90.212 -13.887  1.00  0.00     0.112 C 
HETATM   19  C12         0      12.283  89.906 -14.711  1.00  0.00     0.028 C 
BRANCH  17  20
HETATM   20  O9          0      10.619  91.839 -12.160  1.00  0.00    -0.357 OA
HETATM   21  H9          0       9.775  91.646 -11.768  1.00  0.00     0.218 HD
ENDBRANCH  17  20
BRANCH  18  22
HETATM   22  O11         0       9.900  90.233 -14.355  1.00  0.00    -0.357 OA
HETATM   23  H11         0       9.412  89.419 -14.305  1.00  0.00     0.218 HD
ENDBRANCH  18  22
ENDBRANCH   4  14
BRANCH   8  24
HETATM   24  O17         0      19.407  87.835 -16.763  1.00  0.00    -0.359 OA
HETATM   25  H17         0      19.834  87.839 -15.915  1.00  0.00     0.218 HD
ENDBRANCH   8  24
TORSDOF 5
ENDMDL
MODEL 6
REMARK VINA RESULT:      -6.2      3.130      5.778
REMARK  5 active torsions:
REMARK  status: ('A' for Active; 'I' for Inactive)
REMARK    1  A    between atoms: C4_4  and  C5_5 
REMARK    2  A    between atoms: C8_8  and  O9_9 
REMARK    3  A    between atoms: C10_11  and  O11_12 
REMARK    4  A    between atoms: C16_18  and  O17_19 
REMARK    5  A    between atoms: C19_22  and  O20_23 
ROOT
HETATM    1  O1          0      28.569  87.096  -9.253  1.00  0.00    -0.286 OA
HETATM    2  C2          0      27.882  88.104  -9.576  1.00  0.00     0.201 C 
HETATM    3  C3          0      28.261  88.978 -10.581  1.00  0.00     0.067 C 
HETATM    4  C4          0      27.539  90.136 -10.848  1.00  0.00     0.103 C 
HETATM    5  O13         0      26.456  90.389 -10.134  1.00  0.00    -0.307 OA
HETATM    6  C14         0      26.075  89.611  -9.144  1.00  0.00     0.107 C 
HETATM    7  C15         0      25.208  90.057  -8.157  1.00  0.00     0.049 C 
HETATM    8  C16         0      25.009  89.330  -6.989  1.00  0.00     0.093 C 
HETATM    9  C18         0      25.269  87.969  -7.093  1.00  0.00     0.048 C 
HETATM   10  C19         0      26.095  87.484  -8.098  1.00  0.00     0.096 C 
HETATM   11  C21         0      26.644  88.350  -9.004  1.00  0.00     0.084 C 
ENDROOT
BRANCH  10  12
HETATM   12  O20         0      26.691  86.236  -7.945  1.00  0.00    -0.359 OA
HETATM   13  H20         0      27.639  86.190  -7.963  1.00  0.00     0.218 HD
ENDBRANCH  10  12
BRANCH   4  14
HETATM   14  C5          0      28.269  91.258 -11.442  1.00  0.00     0.025 C 
HETATM   15  C6          0      29.616  91.192 -11.764  1.00  0.00     0.004 C 
HETATM   16  C7          0      30.031  91.822 -12.933  1.00  0.00     0.026 C 
HETATM   17  C8          0      29.163  92.605 -13.687  1.00  0.00     0.112 C 
HETATM   18  C10         0      28.081  93.115 -12.982  1.00  0.00     0.112 C 
HETATM   19  C12         0      27.634  92.418 -11.865  1.00  0.00     0.028 C 
BRANCH  17  20
HETATM   20  O9          0      29.283  92.671 -15.064  1.00  0.00    -0.357 OA
HETATM   21  H9          0      28.954  93.392 -15.588  1.00  0.00     0.218 HD
ENDBRANCH  17  20
BRANCH  18  22
HETATM   22  O11         0      27.292  94.051 -13.633  1.00  0.00    -0.357 OA
HETATM   23  H11         0      27.620  94.393 -14.457  1.00  0.00     0.218 HD
ENDBRANCH  18  22
ENDBRANCH   4  14
BRANCH   8  24
HETATM   24  O17         0      24.892  89.964  -5.747  1.00  0.00    -0.359 OA
HETATM   25  H17         0      25.296  89.607  -4.965  1.00  0.00     0.218 HD
ENDBRANCH   8  24
TORSDOF 5
ENDMDL
MODEL 7
REMARK VINA RESULT:      -6.2     12.128     12.908
REMARK  5 active torsions:
REMARK  status: ('A' for Active; 'I' for Inactive)
REMARK    1  A    between atoms: C4_4  and  C5_5 
REMARK    2  A    between atoms: C8_8  and  O9_9 
REMARK    3  A    between atoms: C10_11  and  O11_12 
REMARK    4  A    between atoms: C16_18  and  O17_19 
REMARK    5  A    between atoms: C19_22  and  O20_23 
ROOT
HETATM    1  O1          0      14.123  94.388 -14.707  1.00  0.00    -0.286 OA
HETATM    2  C2          0      14.519  93.207 -14.504  1.00  0.00     0.201 C 
HETATM    3  C3          0      15.569  92.637 -15.203  1.00  0.00     0.067 C 
HETATM    4  C4          0      15.918  91.302 -15.033  1.00  0.00     0.103 C 
HETATM    5  O13         0      15.237  90.574 -14.165  1.00  0.00    -0.307 OA
HETATM    6  C14         0      14.208  91.055 -13.503  1.00  0.00     0.107 C 
HETATM    7  C15         0      13.264  90.226 -12.916  1.00  0.00     0.049 C 
HETATM    8  C16         0      12.057  90.727 -12.444  1.00  0.00     0.093 C 
HETATM    9  C18         0      12.073  92.075 -12.106  1.00  0.00     0.048 C 
HETATM   10  C19         0      13.033  92.924 -12.639  1.00  0.00     0.096 C 
HETATM   11  C21         0      13.982  92.427 -13.491  1.00  0.00     0.084 C 
ENDROOT
BRANCH  10  12
HETATM   12  O20         0      12.795  94.295 -12.657  1.00  0.00    -0.359 OA
HETATM   13  H20         0      13.381  94.855 -12.162  1.00  0.00     0.218 HD
ENDBRANCH  10  12
BRANCH   4  14
HETATM   14  C5          0      16.568  90.630 -16.159  1.00  0.00     0.025 C 
HETATM   15  C6          0      17.406  91.291 -17.047  1.00  0.00     0.004 C 
HETATM   16  C7          0      18.528  90.608 -17.503  1.00  0.00     0.026 C 
HETATM   17  C8          0      18.742  89.268 -17.197  1.00  0.00     0.112 C 
HETATM   18  C10         0      17.594  88.558 -16.871  1.00  0.00     0.112 C 
HETATM   19  C12         0      16.516  89.254 -16.336  1.00  0.00     0.028 C 
BRANCH  17  20
HETATM   20  O9          0      20.024  88.774 -17.032  1.00  0.00    -0.357 OA
HETATM   21  H9          0      20.277  87.883 -17.244  1.00  0.00     0.218 HD
ENDBRANCH  17  20
BRANCH  18  22
HETATM   22  O11         0      17.722  87.182 -16.742  1.00  0.00    -0.357 OA
HETATM   23  H11         0      17.854  86.686 -17.541  1.00  0.00     0.218 HD
ENDBRANCH  18  22
ENDBRANCH   4  14
BRANCH   8  24
HETATM   24  O17         0      10.858  90.027 -12.619  1.00  0.00    -0.359 OA
HETATM   25  H17         0      10.517  89.447 -11.948  1.00  0.00     0.218 HD
ENDBRANCH   8  24
TORSDOF 5
ENDMDL
MODEL 8
REMARK VINA RESULT:      -6.2     12.644     13.116
REMARK  5 active torsions:
REMARK  status: ('A' for Active; 'I' for Inactive)
REMARK    1  A    between atoms: C4_4  and  C5_5 
REMARK    2  A    between atoms: C8_8  and  O9_9 
REMARK    3  A    between atoms: C10_11  and  O11_12 
REMARK    4  A    between atoms: C16_18  and  O17_19 
REMARK    5  A    between atoms: C19_22  and  O20_23 
ROOT
HETATM    1  O1          0      11.319  89.624 -14.675  1.00  0.00    -0.286 OA
HETATM    2  C2          0      12.285  90.411 -14.481  1.00  0.00     0.201 C 
HETATM    3  C3          0      13.465  90.343 -15.202  1.00  0.00     0.067 C 
HETATM    4  C4          0      14.552  91.155 -14.900  1.00  0.00     0.103 C 
HETATM    5  O13         0      14.439  92.024 -13.911  1.00  0.00    -0.307 OA
HETATM    6  C14         0      13.355  92.104 -13.170  1.00  0.00     0.107 C 
HETATM    7  C15         0      13.368  92.701 -11.918  1.00  0.00     0.049 C 
HETATM    8  C16         0      12.300  92.559 -11.040  1.00  0.00     0.093 C 
HETATM    9  C18         0      11.078  92.281 -11.642  1.00  0.00     0.048 C 
HETATM   10  C19         0      11.029  91.726 -12.914  1.00  0.00     0.096 C 
HETATM   11  C21         0      12.191  91.467 -13.587  1.00  0.00     0.084 C 
ENDROOT
BRANCH  10  12
HETATM   12  O20         0       9.877  91.061 -13.322  1.00  0.00    -0.359 OA
HETATM   13  H20         0       9.060  91.280 -12.889  1.00  0.00     0.218 HD
ENDBRANCH  10  12
BRANCH   4  14
HETATM   14  C5          0      15.882  90.651 -15.247  1.00  0.00     0.025 C 
HETATM   15  C6          0      16.510  89.637 -14.538  1.00  0.00     0.004 C 
HETATM   16  C7          0      17.250  88.707 -15.262  1.00  0.00     0.026 C 
HETATM   17  C8          0      17.470  88.854 -16.627  1.00  0.00     0.112 C 
HETATM   18  C10         0      17.364  90.157 -17.095  1.00  0.00     0.112 C 
HETATM   19  C12         0      16.550  91.044 -16.399  1.00  0.00     0.028 C 
BRANCH  17  20
HETATM   20  O9          0      17.572  87.748 -17.452  1.00  0.00    -0.357 OA
HETATM   21  H9          0      18.386  87.459 -17.849  1.00  0.00     0.218 HD
ENDBRANCH  17  20
BRANCH  18  22
HETATM   22  O11         0      17.757  90.389 -18.405  1.00  0.00    -0.357 OA
HETATM   23  H11         0      17.915  89.625 -18.948  1.00  0.00     0.218 HD
ENDBRANCH  18  22
ENDBRANCH   4  14
BRANCH   8  24
HETATM   24  O17         0      12.503  92.375  -9.668  1.00  0.00    -0.359 OA
HETATM   25  H17         0      13.339  92.560  -9.258  1.00  0.00     0.218 HD
ENDBRANCH   8  24
TORSDOF 5
ENDMDL
MODEL 9
REMARK VINA RESULT:      -5.9     12.657     13.559
REMARK  5 active torsions:
REMARK  status: ('A' for Active; 'I' for Inactive)
REMARK    1  A    between atoms: C4_4  and  C5_5 
REMARK    2  A    between atoms: C8_8  and  O9_9 
REMARK    3  A    between atoms: C10_11  and  O11_12 
REMARK    4  A    between atoms: C16_18  and  O17_19 
REMARK    5  A    between atoms: C19_22  and  O20_23 
ROOT
HETATM    1  O1          0      14.585  90.824 -12.334  1.00  0.00    -0.286 OA
HETATM    2  C2          0      14.394  90.438 -13.520  1.00  0.00     0.201 C 
HETATM    3  C3          0      15.431  90.143 -14.389  1.00  0.00     0.067 C 
HETATM    4  C4          0      15.196  89.820 -15.720  1.00  0.00     0.103 C 
HETATM    5  O13         0      13.948  89.776 -16.152  1.00  0.00    -0.307 OA
HETATM    6  C14         0      12.929  90.083 -15.379  1.00  0.00     0.107 C 
HETATM    7  C15         0      11.691  90.426 -15.903  1.00  0.00     0.049 C 
HETATM    8  C16         0      10.702  90.992 -15.107  1.00  0.00     0.093 C 
HETATM    9  C18         0      10.804  90.704 -13.751  1.00  0.00     0.048 C 
HETATM   10  C19         0      12.018  90.312 -13.202  1.00  0.00     0.096 C 
HETATM   11  C21         0      13.119  90.192 -14.006  1.00  0.00     0.084 C 
ENDROOT
BRANCH  10  12
HETATM   12  O20         0      12.221  90.450 -11.833  1.00  0.00    -0.359 OA
HETATM   13  H20         0      13.112  90.567 -11.525  1.00  0.00     0.218 HD
ENDBRANCH  10  12
BRANCH   4  14
HETATM   14  C5          0      16.263  90.111 -16.679  1.00  0.00     0.025 C 
HETATM   15  C6          0      16.414  91.351 -17.282  1.00  0.00     0.004 C 
HETATM   16  C7          0      17.710  91.821 -17.474  1.00  0.00     0.026 C 
HETATM   17  C8          0      18.820  91.030 -17.200  1.00  0.00     0.112 C 
HETATM   18  C10         0      18.578  89.663 -17.222  1.00  0.00     0.112 C 
HETATM   19  C12         0      17.292  89.216 -16.942  1.00  0.00     0.028 C 
BRANCH  17  20
HETATM   20  O9          0      19.997  91.595 -16.741  1.00  0.00    -0.357 OA
HETATM   21  H9          0      20.276  91.568 -15.833  1.00  0.00     0.218 HD
ENDBRANCH  17  20
BRANCH  18  22
HETATM   22  O11         0      19.683  88.828 -17.144  1.00  0.00    -0.357 OA
HETATM   23  H11         0      20.501  89.221 -16.861  1.00  0.00     0.218 HD
ENDBRANCH  18  22
ENDBRANCH   4  14
BRANCH   8  24
HETATM   24  O17         0       9.889  92.028 -15.580  1.00  0.00    -0.359 OA
HETATM   25  H17         0       9.002  92.151 -15.262  1.00  0.00     0.218 HD
ENDBRANCH   8  24
TORSDOF 5
ENDMDL
