MODEL 1
REMARK VINA RESULT:      -5.0      0.000      0.000
REMARK  5 active torsions:
REMARK  status: ('A' for Active; 'I' for Inactive)
REMARK    1  A    between atoms: C4_4  and  C5_5 
REMARK    2  A    between atoms: C8_8  and  O9_9 
REMARK    3  A    between atoms: C10_11  and  O11_12 
REMARK    4  A    between atoms: C16_18  and  O17_19 
REMARK    5  A    between atoms: C19_22  and  O20_23 
ROOT
HETATM    1  O1          0      44.193  65.902 -20.412  1.00  0.00    -0.286 OA
HETATM    2  C2          0      43.052  65.412 -20.636  1.00  0.00     0.201 C 
HETATM    3  C3          0      42.821  64.049 -20.706  1.00  0.00     0.067 C 
HETATM    4  C4          0      41.577  63.537 -21.055  1.00  0.00     0.103 C 
HETATM    5  O13         0      40.591  64.381 -21.305  1.00  0.00    -0.307 OA
HETATM    6  C14         0      40.766  65.684 -21.289  1.00  0.00     0.107 C 
HETATM    7  C15         0      39.884  66.548 -21.923  1.00  0.00     0.049 C 
HETATM    8  C16         0      40.202  67.886 -22.123  1.00  0.00     0.093 C 
HETATM    9  C18         0      41.132  68.407 -21.233  1.00  0.00     0.048 C 
HETATM   10  C19         0      41.999  67.568 -20.546  1.00  0.00     0.096 C 
HETATM   11  C21         0      41.926  66.215 -20.735  1.00  0.00     0.084 C 
ENDROOT
BRANCH  10  12
HETATM   12  O20         0      43.176  68.090 -20.017  1.00  0.00    -0.359 OA
HETATM   13  H20         0      43.167  68.990 -19.715  1.00  0.00     0.218 HD
ENDBRANCH  10  12
BRANCH   4  14
HETATM   14  C5          0      41.548  62.215 -21.682  1.00  0.00     0.025 C 
HETATM   15  C6          0      40.445  61.733 -22.372  1.00  0.00     0.004 C 
HETATM   16  C7          0      40.680  60.985 -23.521  1.00  0.00     0.026 C 
HETATM   17  C8          0      41.966  60.612 -23.898  1.00  0.00     0.112 C 
HETATM   18  C10         0      42.888  60.582 -22.861  1.00  0.00     0.112 C 
HETATM   19  C12         0      42.673  61.404 -21.761  1.00  0.00     0.028 C 
BRANCH  17  20
HETATM   20  O9          0      42.307  60.497 -25.234  1.00  0.00    -0.357 OA
HETATM   21  H9          0      42.934  59.864 -25.566  1.00  0.00     0.218 HD
ENDBRANCH  17  20
BRANCH  18  22
HETATM   22  O11         0      44.133  60.037 -23.143  1.00  0.00    -0.357 OA
HETATM   23  H11         0      44.756  59.995 -22.427  1.00  0.00     0.218 HD
ENDBRANCH  18  22
ENDBRANCH   4  14
BRANCH   8  24
HETATM   24  O17         0      39.876  68.543 -23.315  1.00  0.00    -0.359 OA
HETATM   25  H17         0      39.404  68.105 -24.013  1.00  0.00     0.218 HD
ENDBRANCH   8  24
TORSDOF 5
ENDMDL
MODEL 2
REMARK VINA RESULT:      -4.6      1.383      6.718
REMARK  5 active torsions:
REMARK  status: ('A' for Active; 'I' for Inactive)
REMARK    1  A    between atoms: C4_4  and  C5_5 
REMARK    2  A    between atoms: C8_8  and  O9_9 
REMARK    3  A    between atoms: C10_11  and  O11_12 
REMARK    4  A    between atoms: C16_18  and  O17_19 
REMARK    5  A    between atoms: C19_22  and  O20_23 
ROOT
HETATM    1  O1          0      40.605  62.850 -24.837  1.00  0.00    -0.286 OA
HETATM    2  C2          0      40.927  62.954 -23.622  1.00  0.00     0.201 C 
HETATM    3  C3          0      40.463  63.973 -22.808  1.00  0.00     0.067 C 
HETATM    4  C4          0      40.913  64.124 -21.501  1.00  0.00     0.103 C 
HETATM    5  O13         0      41.789  63.255 -21.027  1.00  0.00    -0.307 OA
HETATM    6  C14         0      42.289  62.291 -21.769  1.00  0.00     0.107 C 
HETATM    7  C15         0      43.467  61.643 -21.429  1.00  0.00     0.049 C 
HETATM    8  C16         0      44.122  60.814 -22.332  1.00  0.00     0.093 C 
HETATM    9  C18         0      43.312  60.265 -23.318  1.00  0.00     0.048 C 
HETATM   10  C19         0      42.103  60.861 -23.651  1.00  0.00     0.096 C 
HETATM   11  C21         0      41.698  61.990 -22.991  1.00  0.00     0.084 C 
ENDROOT
BRANCH  10  12
HETATM   12  O20         0      41.527  60.586 -24.887  1.00  0.00    -0.359 OA
HETATM   13  H20         0      41.589  59.698 -25.220  1.00  0.00     0.218 HD
ENDBRANCH  10  12
BRANCH   4  14
HETATM   14  C5          0      40.879  65.472 -20.932  1.00  0.00     0.025 C 
HETATM   15  C6          0      41.689  65.863 -19.875  1.00  0.00     0.004 C 
HETATM   16  C7          0      42.211  67.152 -19.905  1.00  0.00     0.026 C 
HETATM   17  C8          0      41.836  68.068 -20.882  1.00  0.00     0.112 C 
HETATM   18  C10         0      40.605  67.815 -21.472  1.00  0.00     0.112 C 
HETATM   19  C12         0      40.145  66.503 -21.503  1.00  0.00     0.028 C 
BRANCH  17  20
HETATM   20  O9          0      42.731  69.014 -21.348  1.00  0.00    -0.357 OA
HETATM   21  H9          0      42.882  69.852 -20.927  1.00  0.00     0.218 HD
ENDBRANCH  17  20
BRANCH  18  22
HETATM   22  O11         0      40.097  68.795 -22.312  1.00  0.00    -0.357 OA
HETATM   23  H11         0      40.719  69.250 -22.868  1.00  0.00     0.218 HD
ENDBRANCH  18  22
ENDBRANCH   4  14
BRANCH   8  24
HETATM   24  O17         0      45.517  60.811 -22.439  1.00  0.00    -0.359 OA
HETATM   25  H17         0      45.991  61.543 -22.815  1.00  0.00     0.218 HD
ENDBRANCH   8  24
TORSDOF 5
ENDMDL
MODEL 3
REMARK VINA RESULT:      -4.6      2.263      6.702
REMARK  5 active torsions:
REMARK  status: ('A' for Active; 'I' for Inactive)
REMARK    1  A    between atoms: C4_4  and  C5_5 
REMARK    2  A    between atoms: C8_8  and  O9_9 
REMARK    3  A    between atoms: C10_11  and  O11_12 
REMARK    4  A    between atoms: C16_18  and  O17_19 
REMARK    5  A    between atoms: C19_22  and  O20_23 
ROOT
HETATM    1  O1          0      42.065  61.816 -23.126  1.00  0.00    -0.286 OA
HETATM    2  C2          0      42.621  62.633 -22.343  1.00  0.00     0.201 C 
HETATM    3  C3          0      42.174  63.932 -22.173  1.00  0.00     0.067 C 
HETATM    4  C4          0      42.866  64.843 -21.382  1.00  0.00     0.103 C 
HETATM    5  O13         0      43.965  64.443 -20.767  1.00  0.00    -0.307 OA
HETATM    6  C14         0      44.453  63.233 -20.925  1.00  0.00     0.107 C 
HETATM    7  C15         0      45.774  62.932 -20.625  1.00  0.00     0.049 C 
HETATM    8  C16         0      46.351  61.734 -21.028  1.00  0.00     0.093 C 
HETATM    9  C18         0      45.455  60.693 -21.240  1.00  0.00     0.048 C 
HETATM   10  C19         0      44.117  60.957 -21.497  1.00  0.00     0.096 C 
HETATM   11  C21         0      43.672  62.250 -21.523  1.00  0.00     0.084 C 
ENDROOT
BRANCH  10  12
HETATM   12  O20         0      43.341  59.987 -22.124  1.00  0.00    -0.359 OA
HETATM   13  H20         0      43.038  60.162 -23.007  1.00  0.00     0.218 HD
ENDBRANCH  10  12
BRANCH   4  14
HETATM   14  C5          0      42.719  66.262 -21.711  1.00  0.00     0.025 C 
HETATM   15  C6          0      43.796  67.077 -22.026  1.00  0.00     0.004 C 
HETATM   16  C7          0      43.615  68.028 -23.026  1.00  0.00     0.026 C 
HETATM   17  C8          0      42.369  68.254 -23.600  1.00  0.00     0.112 C 
HETATM   18  C10         0      41.290  67.875 -22.811  1.00  0.00     0.112 C 
HETATM   19  C12         0      41.478  66.863 -21.878  1.00  0.00     0.028 C 
BRANCH  17  20
HETATM   20  O9          0      42.257  68.625 -24.928  1.00  0.00    -0.357 OA
HETATM   21  H9          0      42.429  68.039 -25.656  1.00  0.00     0.218 HD
ENDBRANCH  17  20
BRANCH  18  22
HETATM   22  O11         0      40.028  68.249 -23.251  1.00  0.00    -0.357 OA
HETATM   23  H11         0      39.520  67.591 -23.711  1.00  0.00     0.218 HD
ENDBRANCH  18  22
ENDBRANCH   4  14
BRANCH   8  24
HETATM   24  O17         0      47.667  61.681 -21.503  1.00  0.00    -0.359 OA
HETATM   25  H17         0      47.967  60.976 -22.063  1.00  0.00     0.218 HD
ENDBRANCH   8  24
TORSDOF 5
ENDMDL
MODEL 4
REMARK VINA RESULT:      -4.4      5.399      7.571
REMARK  5 active torsions:
REMARK  status: ('A' for Active; 'I' for Inactive)
REMARK    1  A    between atoms: C4_4  and  C5_5 
REMARK    2  A    between atoms: C8_8  and  O9_9 
REMARK    3  A    between atoms: C10_11  and  O11_12 
REMARK    4  A    between atoms: C16_18  and  O17_19 
REMARK    5  A    between atoms: C19_22  and  O20_23 
ROOT
HETATM    1  O1          0      47.945  67.310 -24.023  1.00  0.00    -0.286 OA
HETATM    2  C2          0      46.880  67.976 -24.139  1.00  0.00     0.201 C 
HETATM    3  C3          0      45.877  67.960 -23.185  1.00  0.00     0.067 C 
HETATM    4  C4          0      44.671  68.621 -23.385  1.00  0.00     0.103 C 
HETATM    5  O13         0      44.495  69.295 -24.508  1.00  0.00    -0.307 OA
HETATM    6  C14         0      45.400  69.311 -25.462  1.00  0.00     0.107 C 
HETATM    7  C15         0      45.080  69.661 -26.767  1.00  0.00     0.049 C 
HETATM    8  C16         0      45.967  69.434 -27.812  1.00  0.00     0.093 C 
HETATM    9  C18         0      47.304  69.361 -27.442  1.00  0.00     0.048 C 
HETATM   10  C19         0      47.659  69.060 -26.134  1.00  0.00     0.096 C 
HETATM   11  C21         0      46.684  68.849 -25.198  1.00  0.00     0.084 C 
ENDROOT
BRANCH  10  12
HETATM   12  O20         0      48.934  68.567 -25.872  1.00  0.00    -0.359 OA
HETATM   13  H20         0      49.538  68.485 -26.599  1.00  0.00     0.218 HD
ENDBRANCH  10  12
BRANCH   4  14
HETATM   14  C5          0      43.496  68.097 -22.687  1.00  0.00     0.025 C 
HETATM   15  C6          0      43.458  67.912 -21.312  1.00  0.00     0.004 C 
HETATM   16  C7          0      42.268  68.206 -20.654  1.00  0.00     0.026 C 
HETATM   17  C8          0      41.113  68.544 -21.352  1.00  0.00     0.112 C 
HETATM   18  C10         0      41.076  68.092 -22.664  1.00  0.00     0.112 C 
HETATM   19  C12         0      42.281  67.887 -23.327  1.00  0.00     0.028 C 
BRANCH  17  20
HETATM   20  O9          0      40.199  69.435 -20.820  1.00  0.00    -0.357 OA
HETATM   21  H9          0      39.964  69.465 -19.899  1.00  0.00     0.218 HD
ENDBRANCH  17  20
BRANCH  18  22
HETATM   22  O11         0      39.875  68.235 -23.344  1.00  0.00    -0.357 OA
HETATM   23  H11         0      39.654  69.108 -23.647  1.00  0.00     0.218 HD
ENDBRANCH  18  22
ENDBRANCH   4  14
BRANCH   8  24
HETATM   24  O17         0      45.523  68.982 -29.060  1.00  0.00    -0.359 OA
HETATM   25  H17         0      46.116  68.584 -29.686  1.00  0.00     0.218 HD
ENDBRANCH   8  24
TORSDOF 5
ENDMDL
MODEL 5
REMARK VINA RESULT:      -4.3      7.131     11.916
REMARK  5 active torsions:
REMARK  status: ('A' for Active; 'I' for Inactive)
REMARK    1  A    between atoms: C4_4  and  C5_5 
REMARK    2  A    between atoms: C8_8  and  O9_9 
REMARK    3  A    between atoms: C10_11  and  O11_12 
REMARK    4  A    between atoms: C16_18  and  O17_19 
REMARK    5  A    between atoms: C19_22  and  O20_23 
ROOT
HETATM    1  O1          0      50.317  54.266 -22.023  1.00  0.00    -0.286 OA
HETATM    2  C2          0      49.177  54.485 -22.517  1.00  0.00     0.201 C 
HETATM    3  C3          0      48.884  55.621 -23.253  1.00  0.00     0.067 C 
HETATM    4  C4          0      47.594  55.888 -23.698  1.00  0.00     0.103 C 
HETATM    5  O13         0      46.636  55.021 -23.424  1.00  0.00    -0.307 OA
HETATM    6  C14         0      46.852  53.946 -22.698  1.00  0.00     0.107 C 
HETATM    7  C15         0      45.816  53.261 -22.079  1.00  0.00     0.049 C 
HETATM    8  C16         0      46.066  52.291 -21.116  1.00  0.00     0.093 C 
HETATM    9  C18         0      47.316  51.690 -21.199  1.00  0.00     0.048 C 
HETATM   10  C19         0      48.363  52.327 -21.852  1.00  0.00     0.096 C 
HETATM   11  C21         0      48.158  53.548 -22.433  1.00  0.00     0.084 C 
ENDROOT
BRANCH  10  12
HETATM   12  O20         0      49.672  51.952 -21.565  1.00  0.00    -0.359 OA
HETATM   13  H20         0      49.833  51.051 -21.314  1.00  0.00     0.218 HD
ENDBRANCH  10  12
BRANCH   4  14
HETATM   14  C5          0      47.235  57.292 -23.908  1.00  0.00     0.025 C 
HETATM   15  C6          0      46.889  57.802 -25.151  1.00  0.00     0.004 C 
HETATM   16  C7          0      45.870  58.748 -25.199  1.00  0.00     0.026 C 
HETATM   17  C8          0      45.305  59.270 -24.040  1.00  0.00     0.112 C 
HETATM   18  C10         0      46.113  59.191 -22.914  1.00  0.00     0.112 C 
HETATM   19  C12         0      47.068  58.183 -22.856  1.00  0.00     0.028 C 
BRANCH  17  20
HETATM   20  O9          0      43.970  59.632 -24.004  1.00  0.00    -0.357 OA
HETATM   21  H9          0      43.282  59.076 -23.658  1.00  0.00     0.218 HD
ENDBRANCH  17  20
BRANCH  18  22
HETATM   22  O11         0      45.679  59.863 -21.780  1.00  0.00    -0.357 OA
HETATM   23  H11         0      46.299  60.451 -21.364  1.00  0.00     0.218 HD
ENDBRANCH  18  22
ENDBRANCH   4  14
BRANCH   8  24
HETATM   24  O17         0      45.270  52.178 -19.971  1.00  0.00    -0.359 OA
HETATM   25  H17         0      44.547  52.772 -19.805  1.00  0.00     0.218 HD
ENDBRANCH   8  24
TORSDOF 5
ENDMDL
MODEL 6
REMARK VINA RESULT:      -4.3      1.654      2.207
REMARK  5 active torsions:
REMARK  status: ('A' for Active; 'I' for Inactive)
REMARK    1  A    between atoms: C4_4  and  C5_5 
REMARK    2  A    between atoms: C8_8  and  O9_9 
REMARK    3  A    between atoms: C10_11  and  O11_12 
REMARK    4  A    between atoms: C16_18  and  O17_19 
REMARK    5  A    between atoms: C19_22  and  O20_23 
ROOT
HETATM    1  O1          0      44.179  64.615 -22.347  1.00  0.00    -0.286 OA
HETATM    2  C2          0      42.940  64.383 -22.393  1.00  0.00     0.201 C 
HETATM    3  C3          0      42.419  63.170 -22.811  1.00  0.00     0.067 C 
HETATM    4  C4          0      41.049  62.975 -22.950  1.00  0.00     0.103 C 
HETATM    5  O13         0      40.233  63.972 -22.655  1.00  0.00    -0.307 OA
HETATM    6  C14         0      40.677  65.154 -22.290  1.00  0.00     0.107 C 
HETATM    7  C15         0      39.882  66.289 -22.368  1.00  0.00     0.049 C 
HETATM    8  C16         0      40.425  67.561 -22.228  1.00  0.00     0.093 C 
HETATM    9  C18         0      41.611  67.617 -21.506  1.00  0.00     0.048 C 
HETATM   10  C19         0      42.407  66.488 -21.368  1.00  0.00     0.096 C 
HETATM   11  C21         0      42.013  65.306 -21.934  1.00  0.00     0.084 C 
ENDROOT
BRANCH  10  12
HETATM   12  O20         0      43.752  66.639 -21.044  1.00  0.00    -0.359 OA
HETATM   13  H20         0      44.015  67.434 -20.596  1.00  0.00     0.218 HD
ENDBRANCH  10  12
BRANCH   4  14
HETATM   14  C5          0      40.611  61.969 -23.919  1.00  0.00     0.025 C 
HETATM   15  C6          0      40.923  62.039 -25.269  1.00  0.00     0.004 C 
HETATM   16  C7          0      41.220  60.848 -25.925  1.00  0.00     0.026 C 
HETATM   17  C8          0      41.081  59.615 -25.296  1.00  0.00     0.112 C 
HETATM   18  C10         0      40.194  59.606 -24.228  1.00  0.00     0.112 C 
HETATM   19  C12         0      39.981  60.792 -23.536  1.00  0.00     0.028 C 
BRANCH  17  20
HETATM   20  O9          0      41.929  58.565 -25.600  1.00  0.00    -0.357 OA
HETATM   21  H9          0      42.591  58.232 -25.004  1.00  0.00     0.218 HD
ENDBRANCH  17  20
BRANCH  18  22
HETATM   22  O11         0      39.875  58.368 -23.687  1.00  0.00    -0.357 OA
HETATM   23  H11         0      39.829  57.634 -24.289  1.00  0.00     0.218 HD
ENDBRANCH  18  22
ENDBRANCH   4  14
BRANCH   8  24
HETATM   24  O17         0      39.999  68.627 -23.027  1.00  0.00    -0.359 OA
HETATM   25  H17         0      39.611  69.409 -22.651  1.00  0.00     0.218 HD
ENDBRANCH   8  24
TORSDOF 5
ENDMDL
MODEL 7
REMARK VINA RESULT:      -4.3      7.033     10.512
REMARK  5 active torsions:
REMARK  status: ('A' for Active; 'I' for Inactive)
REMARK    1  A    between atoms: C4_4  and  C5_5 
REMARK    2  A    between atoms: C8_8  and  O9_9 
REMARK    3  A    between atoms: C10_11  and  O11_12 
REMARK    4  A    between atoms: C16_18  and  O17_19 
REMARK    5  A    between atoms: C19_22  and  O20_23 
ROOT
HETATM    1  O1          0      44.979  56.654 -25.480  1.00  0.00    -0.286 OA
HETATM    2  C2          0      45.958  56.557 -24.691  1.00  0.00     0.201 C 
HETATM    3  C3          0      46.641  55.371 -24.484  1.00  0.00     0.067 C 
HETATM    4  C4          0      47.650  55.267 -23.533  1.00  0.00     0.103 C 
HETATM    5  O13         0      47.971  56.338 -22.829  1.00  0.00    -0.307 OA
HETATM    6  C14         0      47.329  57.478 -22.959  1.00  0.00     0.107 C 
HETATM    7  C15         0      47.377  58.460 -21.979  1.00  0.00     0.049 C 
HETATM    8  C16         0      46.505  59.542 -21.999  1.00  0.00     0.093 C 
HETATM    9  C18         0      45.999  59.865 -23.253  1.00  0.00     0.048 C 
HETATM   10  C19         0      45.980  58.921 -24.270  1.00  0.00     0.096 C 
HETATM   11  C21         0      46.478  57.667 -24.043  1.00  0.00     0.084 C 
ENDROOT
BRANCH  10  12
HETATM   12  O20         0      45.106  59.091 -25.340  1.00  0.00    -0.359 OA
HETATM   13  H20         0      45.355  58.725 -26.180  1.00  0.00     0.218 HD
ENDBRANCH  10  12
BRANCH   4  14
HETATM   14  C5          0      47.891  53.944 -22.954  1.00  0.00     0.025 C 
HETATM   15  C6          0      48.734  53.740 -21.871  1.00  0.00     0.004 C 
HETATM   16  C7          0      48.349  52.796 -20.924  1.00  0.00     0.026 C 
HETATM   17  C8          0      47.234  51.987 -21.112  1.00  0.00     0.112 C 
HETATM   18  C10         0      46.856  51.819 -22.437  1.00  0.00     0.112 C 
HETATM   19  C12         0      47.180  52.818 -23.348  1.00  0.00     0.028 C 
BRANCH  17  20
HETATM   20  O9          0      46.466  51.578 -20.036  1.00  0.00    -0.357 OA
HETATM   21  H9          0      46.601  51.880 -19.146  1.00  0.00     0.218 HD
ENDBRANCH  17  20
BRANCH  18  22
HETATM   22  O11         0      45.872  50.876 -22.696  1.00  0.00    -0.357 OA
HETATM   23  H11         0      45.203  50.759 -22.031  1.00  0.00     0.218 HD
ENDBRANCH  18  22
ENDBRANCH   4  14
BRANCH   8  24
HETATM   24  O17         0      45.930  60.037 -20.824  1.00  0.00    -0.359 OA
HETATM   25  H17         0      45.895  60.969 -20.639  1.00  0.00     0.218 HD
ENDBRANCH   8  24
TORSDOF 5
ENDMDL
MODEL 8
REMARK VINA RESULT:      -4.2      2.164      2.875
REMARK  5 active torsions:
REMARK  status: ('A' for Active; 'I' for Inactive)
REMARK    1  A    between atoms: C4_4  and  C5_5 
REMARK    2  A    between atoms: C8_8  and  O9_9 
REMARK    3  A    between atoms: C10_11  and  O11_12 
REMARK    4  A    between atoms: C16_18  and  O17_19 
REMARK    5  A    between atoms: C19_22  and  O20_23 
ROOT
HETATM    1  O1          0      45.701  68.031 -21.570  1.00  0.00    -0.286 OA
HETATM    2  C2          0      45.015  67.035 -21.211  1.00  0.00     0.201 C 
HETATM    3  C3          0      45.504  65.740 -21.230  1.00  0.00     0.067 C 
HETATM    4  C4          0      44.695  64.650 -20.929  1.00  0.00     0.103 C 
HETATM    5  O13         0      43.435  64.868 -20.598  1.00  0.00    -0.307 OA
HETATM    6  C14         0      42.910  66.074 -20.600  1.00  0.00     0.107 C 
HETATM    7  C15         0      41.537  66.274 -20.651  1.00  0.00     0.049 C 
HETATM    8  C16         0      41.000  67.529 -20.910  1.00  0.00     0.093 C 
HETATM    9  C18         0      41.825  68.599 -20.586  1.00  0.00     0.048 C 
HETATM   10  C19         0      43.198  68.424 -20.481  1.00  0.00     0.096 C 
HETATM   11  C21         0      43.742  67.185 -20.681  1.00  0.00     0.084 C 
ENDROOT
BRANCH  10  12
HETATM   12  O20         0      44.035  69.530 -20.593  1.00  0.00    -0.359 OA
HETATM   13  H20         0      44.135  69.928 -21.449  1.00  0.00     0.218 HD
ENDBRANCH  10  12
BRANCH   4  14
HETATM   14  C5          0      45.054  63.363 -21.527  1.00  0.00     0.025 C 
HETATM   15  C6          0      45.534  62.296 -20.783  1.00  0.00     0.004 C 
HETATM   16  C7          0      45.110  61.019 -21.139  1.00  0.00     0.026 C 
HETATM   17  C8          0      44.344  60.797 -22.278  1.00  0.00     0.112 C 
HETATM   18  C10         0      44.457  61.777 -23.254  1.00  0.00     0.112 C 
HETATM   19  C12         0      44.799  63.065 -22.860  1.00  0.00     0.028 C 
BRANCH  17  20
HETATM   20  O9          0      43.399  59.787 -22.309  1.00  0.00    -0.357 OA
HETATM   21  H9          0      42.488  59.923 -22.544  1.00  0.00     0.218 HD
ENDBRANCH  17  20
BRANCH  18  22
HETATM   22  O11         0      43.865  61.514 -24.481  1.00  0.00    -0.357 OA
HETATM   23  H11         0      44.406  61.089 -25.137  1.00  0.00     0.218 HD
ENDBRANCH  18  22
ENDBRANCH   4  14
BRANCH   8  24
HETATM   24  O17         0      39.880  67.687 -21.733  1.00  0.00    -0.359 OA
HETATM   25  H17         0      39.094  68.126 -21.428  1.00  0.00     0.218 HD
ENDBRANCH   8  24
TORSDOF 5
ENDMDL
MODEL 9
REMARK VINA RESULT:      -4.1      2.224      6.741
REMARK  5 active torsions:
REMARK  status: ('A' for Active; 'I' for Inactive)
REMARK    1  A    between atoms: C4_4  and  C5_5 
REMARK    2  A    between atoms: C8_8  and  O9_9 
REMARK    3  A    between atoms: C10_11  and  O11_12 
REMARK    4  A    between atoms: C16_18  and  O17_19 
REMARK    5  A    between atoms: C19_22  and  O20_23 
ROOT
HETATM    1  O1          0      45.503  61.466 -20.223  1.00  0.00    -0.286 OA
HETATM    2  C2          0      44.968  62.119 -21.161  1.00  0.00     0.201 C 
HETATM    3  C3          0      44.373  63.355 -20.970  1.00  0.00     0.067 C 
HETATM    4  C4          0      43.701  64.006 -21.998  1.00  0.00     0.103 C 
HETATM    5  O13         0      43.651  63.432 -23.188  1.00  0.00    -0.307 OA
HETATM    6  C14         0      44.166  62.243 -23.412  1.00  0.00     0.107 C 
HETATM    7  C15         0      43.784  61.475 -24.502  1.00  0.00     0.049 C 
HETATM    8  C16         0      44.132  60.133 -24.597  1.00  0.00     0.093 C 
HETATM    9  C18         0      45.266  59.769 -23.881  1.00  0.00     0.048 C 
HETATM   10  C19         0      45.704  60.541 -22.813  1.00  0.00     0.096 C 
HETATM   11  C21         0      45.024  61.679 -22.474  1.00  0.00     0.084 C 
ENDROOT
BRANCH  10  12
HETATM   12  O20         0      46.536  59.968 -21.857  1.00  0.00    -0.359 OA
HETATM   13  H20         0      46.172  59.296 -21.294  1.00  0.00     0.218 HD
ENDBRANCH  10  12
BRANCH   4  14
HETATM   14  C5          0      42.634  64.934 -21.618  1.00  0.00     0.025 C 
HETATM   15  C6          0      42.244  65.133 -20.302  1.00  0.00     0.004 C 
HETATM   16  C7          0      41.911  66.428 -19.918  1.00  0.00     0.026 C 
HETATM   17  C8          0      41.837  67.467 -20.840  1.00  0.00     0.112 C 
HETATM   18  C10         0      41.617  67.064 -22.150  1.00  0.00     0.112 C 
HETATM   19  C12         0      42.037  65.795 -22.530  1.00  0.00     0.028 C 
BRANCH  17  20
HETATM   20  O9          0      42.172  68.760 -20.479  1.00  0.00    -0.357 OA
HETATM   21  H9          0      41.558  69.379 -20.103  1.00  0.00     0.218 HD
ENDBRANCH  17  20
BRANCH  18  22
HETATM   22  O11         0      41.347  68.061 -23.077  1.00  0.00    -0.357 OA
HETATM   23  H11         0      40.857  68.814 -22.768  1.00  0.00     0.218 HD
ENDBRANCH  18  22
ENDBRANCH   4  14
BRANCH   8  24
HETATM   24  O17         0      43.233  59.179 -25.087  1.00  0.00    -0.359 OA
HETATM   25  H17         0      42.973  58.426 -24.569  1.00  0.00     0.218 HD
ENDBRANCH   8  24
TORSDOF 5
ENDMDL
