MODEL 1
REMARK VINA RESULT:      -0.0      0.000      0.000
REMARK  5 active torsions:
REMARK  status: ('A' for Active; 'I' for Inactive)
REMARK    1  A    between atoms: C4_4  and  C5_5 
REMARK    2  A    between atoms: C8_8  and  O9_9 
REMARK    3  A    between atoms: C10_11  and  O11_12 
REMARK    4  A    between atoms: C16_18  and  O17_19 
REMARK    5  A    between atoms: C19_22  and  O20_23 
ROOT
HETATM    1  O1          0      38.949   9.396 -31.154  1.00  0.00    -0.286 OA
HETATM    2  C2          0      37.878   8.820 -31.490  1.00  0.00     0.201 C 
HETATM    3  C3          0      37.184   9.140 -32.644  1.00  0.00     0.067 C 
HETATM    4  C4          0      35.954   8.563 -32.939  1.00  0.00     0.103 C 
HETATM    5  O13         0      35.454   7.673 -32.100  1.00  0.00    -0.307 OA
HETATM    6  C14         0      36.054   7.361 -30.972  1.00  0.00     0.107 C 
HETATM    7  C15         0      35.373   6.757 -29.925  1.00  0.00     0.049 C 
HETATM    8  C16         0      35.935   6.662 -28.657  1.00  0.00     0.093 C 
HETATM    9  C18         0      37.324   6.695 -28.628  1.00  0.00     0.048 C 
HETATM   10  C19         0      38.039   7.249 -29.681  1.00  0.00     0.096 C 
HETATM   11  C21         0      37.372   7.752 -30.765  1.00  0.00     0.084 C 
ENDROOT
BRANCH  10  12
HETATM   12  O20         0      39.348   7.671 -29.467  1.00  0.00    -0.359 OA
HETATM   13  H20         0      40.007   7.009 -29.300  1.00  0.00     0.218 HD
ENDBRANCH  10  12
BRANCH   4  14
HETATM   14  C5          0      35.036   9.335 -33.778  1.00  0.00     0.025 C 
HETATM   15  C6          0      33.658   9.184 -33.720  1.00  0.00     0.004 C 
HETATM   16  C7          0      32.879  10.330 -33.844  1.00  0.00     0.026 C 
HETATM   17  C8          0      33.441  11.565 -34.149  1.00  0.00     0.112 C 
HETATM   18  C10         0      34.669  11.500 -34.794  1.00  0.00     0.112 C 
HETATM   19  C12         0      35.466  10.380 -34.585  1.00  0.00     0.028 C 
BRANCH  17  20
HETATM   20  O9          0      32.898  12.734 -33.647  1.00  0.00    -0.357 OA
HETATM   21  H9          0      33.306  13.256 -32.965  1.00  0.00     0.218 HD
ENDBRANCH  17  20
BRANCH  18  22
HETATM   22  O11         0      35.183  12.690 -35.288  1.00  0.00    -0.357 OA
HETATM   23  H11         0      35.618  13.262 -34.666  1.00  0.00     0.218 HD
ENDBRANCH  18  22
ENDBRANCH   4  14
BRANCH   8  24
HETATM   24  O17         0      35.170   6.861 -27.503  1.00  0.00    -0.359 OA
HETATM   25  H17         0      34.855   6.133 -26.981  1.00  0.00     0.218 HD
ENDBRANCH   8  24
TORSDOF 5
ENDMDL
MODEL 2
REMARK VINA RESULT:      -0.0      5.885      6.913
REMARK  5 active torsions:
REMARK  status: ('A' for Active; 'I' for Inactive)
REMARK    1  A    between atoms: C4_4  and  C5_5 
REMARK    2  A    between atoms: C8_8  and  O9_9 
REMARK    3  A    between atoms: C10_11  and  O11_12 
REMARK    4  A    between atoms: C16_18  and  O17_19 
REMARK    5  A    between atoms: C19_22  and  O20_23 
ROOT
HETATM    1  O1          0      36.718   5.245 -30.233  1.00  0.00    -0.286 OA
HETATM    2  C2          0      36.097   4.505 -29.421  1.00  0.00     0.201 C 
HETATM    3  C3          0      34.947   3.815 -29.764  1.00  0.00     0.067 C 
HETATM    4  C4          0      34.225   3.089 -28.823  1.00  0.00     0.103 C 
HETATM    5  O13         0      34.668   3.046 -27.579  1.00  0.00    -0.307 OA
HETATM    6  C14         0      35.733   3.713 -27.192  1.00  0.00     0.107 C 
HETATM    7  C15         0      35.971   4.000 -25.856  1.00  0.00     0.049 C 
HETATM    8  C16         0      36.948   4.912 -25.476  1.00  0.00     0.093 C 
HETATM    9  C18         0      37.974   5.091 -26.397  1.00  0.00     0.048 C 
HETATM   10  C19         0      37.785   4.770 -27.734  1.00  0.00     0.096 C 
HETATM   11  C21         0      36.585   4.258 -28.147  1.00  0.00     0.084 C 
ENDROOT
BRANCH  10  12
HETATM   12  O20         0      38.616   5.340 -28.694  1.00  0.00    -0.359 OA
HETATM   13  H20         0      38.922   6.227 -28.548  1.00  0.00     0.218 HD
ENDBRANCH  10  12
BRANCH   4  14
HETATM   14  C5          0      32.793   2.912 -29.069  1.00  0.00     0.025 C 
HETATM   15  C6          0      31.874   2.718 -28.048  1.00  0.00     0.004 C 
HETATM   16  C7          0      30.631   3.330 -28.175  1.00  0.00     0.026 C 
HETATM   17  C8          0      30.263   4.001 -29.336  1.00  0.00     0.112 C 
HETATM   18  C10         0      30.951   3.607 -30.476  1.00  0.00     0.112 C 
HETATM   19  C12         0      32.227   3.077 -30.326  1.00  0.00     0.028 C 
BRANCH  17  20
HETATM   20  O9          0      29.434   5.108 -29.283  1.00  0.00    -0.357 OA
HETATM   21  H9          0      29.653   5.950 -29.665  1.00  0.00     0.218 HD
ENDBRANCH  17  20
BRANCH  18  22
HETATM   22  O11         0      30.496   4.106 -31.688  1.00  0.00    -0.357 OA
HETATM   23  H11         0      31.080   4.022 -32.433  1.00  0.00     0.218 HD
ENDBRANCH  18  22
ENDBRANCH   4  14
BRANCH   8  24
HETATM   24  O17         0      36.736   5.813 -24.427  1.00  0.00    -0.359 OA
HETATM   25  H17         0      35.877   5.936 -24.041  1.00  0.00     0.218 HD
ENDBRANCH   8  24
TORSDOF 5
ENDMDL
MODEL 3
REMARK VINA RESULT:      -0.0      6.678      8.453
REMARK  5 active torsions:
REMARK  status: ('A' for Active; 'I' for Inactive)
REMARK    1  A    between atoms: C4_4  and  C5_5 
REMARK    2  A    between atoms: C8_8  and  O9_9 
REMARK    3  A    between atoms: C10_11  and  O11_12 
REMARK    4  A    between atoms: C16_18  and  O17_19 
REMARK    5  A    between atoms: C19_22  and  O20_23 
ROOT
HETATM    1  O1          0      35.244  10.020 -22.293  1.00  0.00    -0.286 OA
HETATM    2  C2          0      36.287  10.524 -22.793  1.00  0.00     0.201 C 
HETATM    3  C3          0      36.287  11.735 -23.465  1.00  0.00     0.067 C 
HETATM    4  C4          0      37.429  12.218 -24.095  1.00  0.00     0.103 C 
HETATM    5  O13         0      38.540  11.506 -24.027  1.00  0.00    -0.307 OA
HETATM    6  C14         0      38.585  10.333 -23.435  1.00  0.00     0.107 C 
HETATM    7  C15         0      39.596   9.420 -23.696  1.00  0.00     0.049 C 
HETATM    8  C16         0      39.504   8.100 -23.270  1.00  0.00     0.093 C 
HETATM    9  C18         0      38.676   7.894 -22.174  1.00  0.00     0.048 C 
HETATM   10  C19         0      37.684   8.811 -21.856  1.00  0.00     0.096 C 
HETATM   11  C21         0      37.531   9.937 -22.618  1.00  0.00     0.084 C 
ENDROOT
BRANCH  10  12
HETATM   12  O20         0      36.612   8.408 -21.066  1.00  0.00    -0.359 OA
HETATM   13  H20         0      36.095   9.081 -20.640  1.00  0.00     0.218 HD
ENDBRANCH  10  12
BRANCH   4  14
HETATM   14  C5          0      37.235  13.117 -25.234  1.00  0.00     0.025 C 
HETATM   15  C6          0      38.163  13.244 -26.258  1.00  0.00     0.004 C 
HETATM   16  C7          0      37.677  13.394 -27.552  1.00  0.00     0.026 C 
HETATM   17  C8          0      36.319  13.548 -27.809  1.00  0.00     0.112 C 
HETATM   18  C10         0      35.578  14.035 -26.739  1.00  0.00     0.112 C 
HETATM   19  C12         0      36.044  13.797 -25.452  1.00  0.00     0.028 C 
BRANCH  17  20
HETATM   20  O9          0      35.755  13.046 -28.968  1.00  0.00    -0.357 OA
HETATM   21  H9          0      34.852  12.757 -29.034  1.00  0.00     0.218 HD
ENDBRANCH  17  20
BRANCH  18  22
HETATM   22  O11         0      34.260  14.385 -26.995  1.00  0.00    -0.357 OA
HETATM   23  H11         0      33.837  13.957 -27.730  1.00  0.00     0.218 HD
ENDBRANCH  18  22
ENDBRANCH   4  14
BRANCH   8  24
HETATM   24  O17         0      39.932   7.042 -24.080  1.00  0.00    -0.359 OA
HETATM   25  H17         0      39.696   6.142 -23.890  1.00  0.00     0.218 HD
ENDBRANCH   8  24
TORSDOF 5
ENDMDL
MODEL 4
REMARK VINA RESULT:      -0.0      8.326     10.356
REMARK  5 active torsions:
REMARK  status: ('A' for Active; 'I' for Inactive)
REMARK    1  A    between atoms: C4_4  and  C5_5 
REMARK    2  A    between atoms: C8_8  and  O9_9 
REMARK    3  A    between atoms: C10_11  and  O11_12 
REMARK    4  A    between atoms: C16_18  and  O17_19 
REMARK    5  A    between atoms: C19_22  and  O20_23 
ROOT
HETATM    1  O1          0      28.996  11.154 -32.062  1.00  0.00    -0.286 OA
HETATM    2  C2          0      27.789  10.816 -32.207  1.00  0.00     0.201 C 
HETATM    3  C3          0      27.072  11.067 -33.365  1.00  0.00     0.067 C 
HETATM    4  C4          0      25.716  10.777 -33.459  1.00  0.00     0.103 C 
HETATM    5  O13         0      25.110  10.231 -32.420  1.00  0.00    -0.307 OA
HETATM    6  C14         0      25.734  10.006 -31.285  1.00  0.00     0.107 C 
HETATM    7  C15         0      25.044   9.819 -30.096  1.00  0.00     0.049 C 
HETATM    8  C16         0      25.699   9.838 -28.871  1.00  0.00     0.093 C 
HETATM    9  C18         0      27.050   9.519 -28.923  1.00  0.00     0.048 C 
HETATM   10  C19         0      27.761   9.650 -30.108  1.00  0.00     0.096 C 
HETATM   11  C21         0      27.122  10.081 -31.239  1.00  0.00     0.084 C 
ENDROOT
BRANCH  10  12
HETATM   12  O20         0      29.148   9.757 -30.062  1.00  0.00    -0.359 OA
HETATM   13  H20         0      29.648   9.359 -30.764  1.00  0.00     0.218 HD
ENDBRANCH  10  12
BRANCH   4  14
HETATM   14  C5          0      24.925  11.575 -34.398  1.00  0.00     0.025 C 
HETATM   15  C6          0      23.565  11.797 -34.236  1.00  0.00     0.004 C 
HETATM   16  C7          0      23.073  13.055 -34.567  1.00  0.00     0.026 C 
HETATM   17  C8          0      23.878  14.019 -35.165  1.00  0.00     0.112 C 
HETATM   18  C10         0      24.979  13.514 -35.844  1.00  0.00     0.112 C 
HETATM   19  C12         0      25.503  12.293 -35.437  1.00  0.00     0.028 C 
BRANCH  17  20
HETATM   20  O9          0      23.687  15.364 -34.904  1.00  0.00    -0.357 OA
HETATM   21  H9          0      24.365  16.023 -35.004  1.00  0.00     0.218 HD
ENDBRANCH  17  20
BRANCH  18  22
HETATM   22  O11         0      25.708  14.410 -36.614  1.00  0.00    -0.357 OA
HETATM   23  H11         0      26.016  14.100 -37.458  1.00  0.00     0.218 HD
ENDBRANCH  18  22
ENDBRANCH   4  14
BRANCH   8  24
HETATM   24  O17         0      25.131  10.452 -27.749  1.00  0.00    -0.359 OA
HETATM   25  H17         0      25.235  11.382 -27.582  1.00  0.00     0.218 HD
ENDBRANCH   8  24
TORSDOF 5
ENDMDL
MODEL 5
REMARK VINA RESULT:       0.0      7.636      8.960
REMARK  5 active torsions:
REMARK  status: ('A' for Active; 'I' for Inactive)
REMARK    1  A    between atoms: C4_4  and  C5_5 
REMARK    2  A    between atoms: C8_8  and  O9_9 
REMARK    3  A    between atoms: C10_11  and  O11_12 
REMARK    4  A    between atoms: C16_18  and  O17_19 
REMARK    5  A    between atoms: C19_22  and  O20_23 
ROOT
HETATM    1  O1          0      36.017  18.492 -27.924  1.00  0.00    -0.286 OA
HETATM    2  C2          0      35.355  17.652 -28.591  1.00  0.00     0.201 C 
HETATM    3  C3          0      34.171  17.970 -29.235  1.00  0.00     0.067 C 
HETATM    4  C4          0      33.409  17.001 -29.878  1.00  0.00     0.103 C 
HETATM    5  O13         0      33.843  15.753 -29.886  1.00  0.00    -0.307 OA
HETATM    6  C14         0      34.940  15.391 -29.258  1.00  0.00     0.107 C 
HETATM    7  C15         0      35.187  14.068 -28.923  1.00  0.00     0.049 C 
HETATM    8  C16         0      36.210  13.724 -28.046  1.00  0.00     0.093 C 
HETATM    9  C18         0      37.247  14.645 -27.964  1.00  0.00     0.048 C 
HETATM   10  C19         0      37.047  15.968 -28.336  1.00  0.00     0.096 C 
HETATM   11  C21         0      35.823  16.364 -28.803  1.00  0.00     0.084 C 
ENDROOT
BRANCH  10  12
HETATM   12  O20         0      37.911  16.947 -27.857  1.00  0.00    -0.359 OA
HETATM   13  H20         0      37.550  17.623 -27.296  1.00  0.00     0.218 HD
ENDBRANCH  10  12
BRANCH   4  14
HETATM   14  C5          0      31.970  17.247 -29.990  1.00  0.00     0.025 C 
HETATM   15  C6          0      31.037  16.225 -30.088  1.00  0.00     0.004 C 
HETATM   16  C7          0      29.829  16.388 -29.418  1.00  0.00     0.026 C 
HETATM   17  C8          0      29.502  17.582 -28.784  1.00  0.00     0.112 C 
HETATM   18  C10         0      30.173  18.697 -29.266  1.00  0.00     0.112 C 
HETATM   19  C12         0      31.419  18.515 -29.856  1.00  0.00     0.028 C 
BRANCH  17  20
HETATM   20  O9          0      28.732  17.586 -27.634  1.00  0.00    -0.357 OA
HETATM   21  H9          0      27.977  18.148 -27.507  1.00  0.00     0.218 HD
ENDBRANCH  17  20
BRANCH  18  22
HETATM   22  O11         0      29.750  19.935 -28.802  1.00  0.00    -0.357 OA
HETATM   23  H11         0      28.935  20.271 -29.156  1.00  0.00     0.218 HD
ENDBRANCH  18  22
ENDBRANCH   4  14
BRANCH   8  24
HETATM   24  O17         0      36.041  12.719 -27.088  1.00  0.00    -0.359 OA
HETATM   25  H17         0      36.031  11.799 -27.325  1.00  0.00     0.218 HD
ENDBRANCH   8  24
TORSDOF 5
ENDMDL
MODEL 6
REMARK VINA RESULT:       0.0      4.981      6.677
REMARK  5 active torsions:
REMARK  status: ('A' for Active; 'I' for Inactive)
REMARK    1  A    between atoms: C4_4  and  C5_5 
REMARK    2  A    between atoms: C8_8  and  O9_9 
REMARK    3  A    between atoms: C10_11  and  O11_12 
REMARK    4  A    between atoms: C16_18  and  O17_19 
REMARK    5  A    between atoms: C19_22  and  O20_23 
ROOT
HETATM    1  O1          0      30.190  11.393 -31.449  1.00  0.00    -0.286 OA
HETATM    2  C2          0      31.093  11.256 -30.579  1.00  0.00     0.201 C 
HETATM    3  C3          0      31.437  12.261 -29.691  1.00  0.00     0.067 C 
HETATM    4  C4          0      32.505  12.121 -28.811  1.00  0.00     0.103 C 
HETATM    5  O13         0      33.188  10.990 -28.817  1.00  0.00    -0.307 OA
HETATM    6  C14         0      32.927  10.020 -29.665  1.00  0.00     0.107 C 
HETATM    7  C15         0      33.856   9.030 -29.952  1.00  0.00     0.049 C 
HETATM    8  C16         0      33.679   8.163 -31.024  1.00  0.00     0.093 C 
HETATM    9  C18         0      32.361   7.987 -31.425  1.00  0.00     0.048 C 
HETATM   10  C19         0      31.396   8.936 -31.115  1.00  0.00     0.096 C 
HETATM   11  C21         0      31.742  10.046 -30.393  1.00  0.00     0.084 C 
ENDROOT
BRANCH  10  12
HETATM   12  O20         0      30.223   8.984 -31.862  1.00  0.00    -0.359 OA
HETATM   13  H20         0      29.473   8.496 -31.545  1.00  0.00     0.218 HD
ENDBRANCH  10  12
BRANCH   4  14
HETATM   14  C5          0      33.173  13.346 -28.369  1.00  0.00     0.025 C 
HETATM   15  C6          0      34.501  13.376 -27.970  1.00  0.00     0.004 C 
HETATM   16  C7          0      35.259  14.485 -28.334  1.00  0.00     0.026 C 
HETATM   17  C8          0      34.685  15.588 -28.956  1.00  0.00     0.112 C 
HETATM   18  C10         0      33.321  15.733 -28.737  1.00  0.00     0.112 C 
HETATM   19  C12         0      32.573  14.596 -28.459  1.00  0.00     0.028 C 
BRANCH  17  20
HETATM   20  O9          0      35.398  16.332 -29.880  1.00  0.00    -0.357 OA
HETATM   21  H9          0      35.182  16.373 -30.804  1.00  0.00     0.218 HD
ENDBRANCH  17  20
BRANCH  18  22
HETATM   22  O11         0      32.736  16.913 -29.175  1.00  0.00    -0.357 OA
HETATM   23  H11         0      33.267  17.700 -29.125  1.00  0.00     0.218 HD
ENDBRANCH  18  22
ENDBRANCH   4  14
BRANCH   8  24
HETATM   24  O17         0      34.753   7.778 -31.834  1.00  0.00    -0.359 OA
HETATM   25  H17         0      35.640   7.728 -31.497  1.00  0.00     0.218 HD
ENDBRANCH   8  24
TORSDOF 5
ENDMDL
MODEL 7
REMARK VINA RESULT:       0.0      2.868      4.225
REMARK  5 active torsions:
REMARK  status: ('A' for Active; 'I' for Inactive)
REMARK    1  A    between atoms: C4_4  and  C5_5 
REMARK    2  A    between atoms: C8_8  and  O9_9 
REMARK    3  A    between atoms: C10_11  and  O11_12 
REMARK    4  A    between atoms: C16_18  and  O17_19 
REMARK    5  A    between atoms: C19_22  and  O20_23 
ROOT
HETATM    1  O1          0      32.497   5.808 -31.173  1.00  0.00    -0.286 OA
HETATM    2  C2          0      33.041   6.928 -30.971  1.00  0.00     0.201 C 
HETATM    3  C3          0      33.385   7.791 -31.997  1.00  0.00     0.067 C 
HETATM    4  C4          0      34.076   8.973 -31.754  1.00  0.00     0.103 C 
HETATM    5  O13         0      34.390   9.280 -30.507  1.00  0.00    -0.307 OA
HETATM    6  C14         0      34.120   8.478 -29.501  1.00  0.00     0.107 C 
HETATM    7  C15         0      34.777   8.586 -28.284  1.00  0.00     0.049 C 
HETATM    8  C16         0      34.678   7.590 -27.319  1.00  0.00     0.093 C 
HETATM    9  C18         0      33.532   6.808 -27.399  1.00  0.00     0.048 C 
HETATM   10  C19         0      32.824   6.714 -28.589  1.00  0.00     0.096 C 
HETATM   11  C21         0      33.247   7.412 -29.688  1.00  0.00     0.084 C 
ENDROOT
BRANCH  10  12
HETATM   12  O20         0      31.973   5.632 -28.792  1.00  0.00    -0.359 OA
HETATM   13  H20         0      31.784   5.070 -28.050  1.00  0.00     0.218 HD
ENDBRANCH  10  12
BRANCH   4  14
HETATM   14  C5          0      34.906   9.499 -32.839  1.00  0.00     0.025 C 
HETATM   15  C6          0      36.020  10.295 -32.616  1.00  0.00     0.004 C 
HETATM   16  C7          0      37.127  10.098 -33.435  1.00  0.00     0.026 C 
HETATM   17  C8          0      37.084   9.235 -34.524  1.00  0.00     0.112 C 
HETATM   18  C10         0      35.812   8.997 -35.026  1.00  0.00     0.112 C 
HETATM   19  C12         0      34.729   9.119 -34.163  1.00  0.00     0.028 C 
BRANCH  17  20
HETATM   20  O9          0      38.208   8.526 -34.912  1.00  0.00    -0.357 OA
HETATM   21  H9          0      39.094   8.767 -34.668  1.00  0.00     0.218 HD
ENDBRANCH  17  20
BRANCH  18  22
HETATM   22  O11         0      35.728   8.298 -36.222  1.00  0.00    -0.357 OA
HETATM   23  H11         0      36.186   7.467 -36.267  1.00  0.00     0.218 HD
ENDBRANCH  18  22
ENDBRANCH   4  14
BRANCH   8  24
HETATM   24  O17         0      35.785   7.198 -26.559  1.00  0.00    -0.359 OA
HETATM   25  H17         0      36.610   7.668 -26.599  1.00  0.00     0.218 HD
ENDBRANCH   8  24
TORSDOF 5
ENDMDL
MODEL 8
REMARK VINA RESULT:       0.0      3.389      4.191
REMARK  5 active torsions:
REMARK  status: ('A' for Active; 'I' for Inactive)
REMARK    1  A    between atoms: C4_4  and  C5_5 
REMARK    2  A    between atoms: C8_8  and  O9_9 
REMARK    3  A    between atoms: C10_11  and  O11_12 
REMARK    4  A    between atoms: C16_18  and  O17_19 
REMARK    5  A    between atoms: C19_22  and  O20_23 
ROOT
HETATM    1  O1          0      35.899   6.577 -32.075  1.00  0.00    -0.286 OA
HETATM    2  C2          0      35.001   7.080 -31.346  1.00  0.00     0.201 C 
HETATM    3  C3          0      34.660   8.422 -31.392  1.00  0.00     0.067 C 
HETATM    4  C4          0      33.740   8.971 -30.507  1.00  0.00     0.103 C 
HETATM    5  O13         0      33.167   8.181 -29.616  1.00  0.00    -0.307 OA
HETATM    6  C14         0      33.481   6.909 -29.504  1.00  0.00     0.107 C 
HETATM    7  C15         0      33.203   6.185 -28.354  1.00  0.00     0.049 C 
HETATM    8  C16         0      33.757   4.929 -28.140  1.00  0.00     0.093 C 
HETATM    9  C18         0      34.127   4.246 -29.292  1.00  0.00     0.048 C 
HETATM   10  C19         0      34.368   4.935 -30.473  1.00  0.00     0.096 C 
HETATM   11  C21         0      34.224   6.295 -30.508  1.00  0.00     0.084 C 
ENDROOT
BRANCH  10  12
HETATM   12  O20         0      35.137   4.335 -31.466  1.00  0.00    -0.359 OA
HETATM   13  H20         0      36.078   4.307 -31.343  1.00  0.00     0.218 HD
ENDBRANCH  10  12
BRANCH   4  14
HETATM   14  C5          0      33.871  10.397 -30.203  1.00  0.00     0.025 C 
HETATM   15  C6          0      33.435  10.955 -29.010  1.00  0.00     0.004 C 
HETATM   16  C7          0      34.216  11.957 -28.443  1.00  0.00     0.026 C 
HETATM   17  C8          0      35.322  12.481 -29.103  1.00  0.00     0.112 C 
HETATM   18  C10         0      35.298  12.331 -30.484  1.00  0.00     0.112 C 
HETATM   19  C12         0      34.578  11.270 -31.020  1.00  0.00     0.028 C 
BRANCH  17  20
HETATM   20  O9          0      36.429  12.915 -28.397  1.00  0.00    -0.357 OA
HETATM   21  H9          0      36.739  12.505 -27.598  1.00  0.00     0.218 HD
ENDBRANCH  17  20
BRANCH  18  22
HETATM   22  O11         0      36.277  12.998 -31.205  1.00  0.00    -0.357 OA
HETATM   23  H11         0      36.834  12.469 -31.765  1.00  0.00     0.218 HD
ENDBRANCH  18  22
ENDBRANCH   4  14
BRANCH   8  24
HETATM   24  O17         0      34.212   4.538 -26.875  1.00  0.00    -0.359 OA
HETATM   25  H17         0      34.956   3.958 -26.770  1.00  0.00     0.218 HD
ENDBRANCH   8  24
TORSDOF 5
ENDMDL
MODEL 9
REMARK VINA RESULT:       0.0     11.094     12.433
REMARK  5 active torsions:
REMARK  status: ('A' for Active; 'I' for Inactive)
REMARK    1  A    between atoms: C4_4  and  C5_5 
REMARK    2  A    between atoms: C8_8  and  O9_9 
REMARK    3  A    between atoms: C10_11  and  O11_12 
REMARK    4  A    between atoms: C16_18  and  O17_19 
REMARK    5  A    between atoms: C19_22  and  O20_23 
ROOT
HETATM    1  O1          0      27.573   1.294 -27.626  1.00  0.00    -0.286 OA
HETATM    2  C2          0      27.325   2.350 -28.271  1.00  0.00     0.201 C 
HETATM    3  C3          0      27.244   3.595 -27.671  1.00  0.00     0.067 C 
HETATM    4  C4          0      26.868   4.726 -28.386  1.00  0.00     0.103 C 
HETATM    5  O13         0      26.603   4.603 -29.675  1.00  0.00    -0.307 OA
HETATM    6  C14         0      26.628   3.439 -30.285  1.00  0.00     0.107 C 
HETATM    7  C15         0      25.981   3.234 -31.496  1.00  0.00     0.049 C 
HETATM    8  C16         0      25.793   1.955 -32.007  1.00  0.00     0.093 C 
HETATM    9  C18         0      26.705   1.006 -31.560  1.00  0.00     0.048 C 
HETATM   10  C19         0      27.404   1.200 -30.377  1.00  0.00     0.096 C 
HETATM   11  C21         0      27.208   2.344 -29.653  1.00  0.00     0.084 C 
ENDROOT
BRANCH  10  12
HETATM   12  O20         0      27.958   0.102 -29.726  1.00  0.00    -0.359 OA
HETATM   13  H20         0      28.543   0.266 -28.996  1.00  0.00     0.218 HD
ENDBRANCH  10  12
BRANCH   4  14
HETATM   14  C5          0      26.235   5.813 -27.637  1.00  0.00     0.025 C 
HETATM   15  C6          0      25.353   6.712 -28.218  1.00  0.00     0.004 C 
HETATM   16  C7          0      24.259   7.121 -27.462  1.00  0.00     0.026 C 
HETATM   17  C8          0      24.116   6.756 -26.128  1.00  0.00     0.112 C 
HETATM   18  C10         0      25.302   6.420 -25.489  1.00  0.00     0.112 C 
HETATM   19  C12         0      26.352   5.933 -26.258  1.00  0.00     0.028 C 
BRANCH  17  20
HETATM   20  O9          0      22.862   6.549 -25.580  1.00  0.00    -0.357 OA
HETATM   21  H9          0      22.069   6.954 -25.909  1.00  0.00     0.218 HD
ENDBRANCH  17  20
BRANCH  18  22
HETATM   22  O11         0      25.244   6.232 -24.115  1.00  0.00    -0.357 OA
HETATM   23  H11         0      24.805   6.904 -23.607  1.00  0.00     0.218 HD
ENDBRANCH  18  22
ENDBRANCH   4  14
BRANCH   8  24
HETATM   24  O17         0      24.599   1.590 -32.637  1.00  0.00    -0.359 OA
HETATM   25  H17         0      24.082   2.216 -33.129  1.00  0.00     0.218 HD
ENDBRANCH   8  24
TORSDOF 5
ENDMDL
