MODEL 1
REMARK VINA RESULT:      -5.0      0.000      0.000
REMARK  5 active torsions:
REMARK  status: ('A' for Active; 'I' for Inactive)
REMARK    1  A    between atoms: C4_4  and  C5_5 
REMARK    2  A    between atoms: C8_8  and  O9_9 
REMARK    3  A    between atoms: C10_11  and  O11_12 
REMARK    4  A    between atoms: C16_18  and  O17_19 
REMARK    5  A    between atoms: C19_22  and  O20_23 
ROOT
HETATM    1  O1          0      70.718  37.474   0.033  1.00  0.00    -0.286 OA
HETATM    2  C2          0      70.314  37.980  -1.050  1.00  0.00     0.201 C 
HETATM    3  C3          0      69.931  39.306  -1.163  1.00  0.00     0.067 C 
HETATM    4  C4          0      69.393  39.811  -2.341  1.00  0.00     0.103 C 
HETATM    5  O13         0      69.266  39.003  -3.379  1.00  0.00    -0.307 OA
HETATM    6  C14         0      69.578  37.727  -3.314  1.00  0.00     0.107 C 
HETATM    7  C15         0      69.089  36.807  -4.230  1.00  0.00     0.049 C 
HETATM    8  C16         0      69.209  35.440  -4.014  1.00  0.00     0.093 C 
HETATM    9  C18         0      70.255  35.068  -3.178  1.00  0.00     0.048 C 
HETATM   10  C19         0      70.800  35.977  -2.282  1.00  0.00     0.096 C 
HETATM   11  C21         0      70.315  37.256  -2.233  1.00  0.00     0.084 C 
ENDROOT
BRANCH  10  12
HETATM   12  O20         0      71.510  35.506  -1.182  1.00  0.00    -0.359 OA
HETATM   13  H20         0      72.458  35.495  -1.236  1.00  0.00     0.218 HD
ENDBRANCH  10  12
BRANCH   4  14
HETATM   14  C5          0      68.491  40.959  -2.227  1.00  0.00     0.025 C 
HETATM   15  C6          0      68.076  41.701  -3.323  1.00  0.00     0.004 C 
HETATM   16  C7          0      66.760  42.153  -3.334  1.00  0.00     0.026 C 
HETATM   17  C8          0      65.924  41.990  -2.235  1.00  0.00     0.112 C 
HETATM   18  C10         0      66.583  41.833  -1.023  1.00  0.00     0.112 C 
HETATM   19  C12         0      67.866  41.299  -1.034  1.00  0.00     0.028 C 
BRANCH  17  20
HETATM   20  O9          0      64.565  41.793  -2.402  1.00  0.00    -0.357 OA
HETATM   21  H9          0      63.900  42.377  -2.055  1.00  0.00     0.218 HD
ENDBRANCH  17  20
BRANCH  18  22
HETATM   22  O11         0      65.803  41.856   0.124  1.00  0.00    -0.357 OA
HETATM   23  H11         0      65.541  42.710   0.449  1.00  0.00     0.218 HD
ENDBRANCH  18  22
ENDBRANCH   4  14
BRANCH   8  24
HETATM   24  O17         0      68.170  34.557  -4.330  1.00  0.00    -0.359 OA
HETATM   25  H17         0      68.098  34.160  -5.190  1.00  0.00     0.218 HD
ENDBRANCH   8  24
TORSDOF 5
ENDMDL
MODEL 2
REMARK VINA RESULT:      -4.7      3.110      4.513
REMARK  5 active torsions:
REMARK  status: ('A' for Active; 'I' for Inactive)
REMARK    1  A    between atoms: C4_4  and  C5_5 
REMARK    2  A    between atoms: C8_8  and  O9_9 
REMARK    3  A    between atoms: C10_11  and  O11_12 
REMARK    4  A    between atoms: C16_18  and  O17_19 
REMARK    5  A    between atoms: C19_22  and  O20_23 
ROOT
HETATM    1  O1          0      67.973  41.429  -1.065  1.00  0.00    -0.286 OA
HETATM    2  C2          0      68.002  41.209  -2.307  1.00  0.00     0.201 C 
HETATM    3  C3          0      67.484  42.094  -3.238  1.00  0.00     0.067 C 
HETATM    4  C4          0      67.437  41.781  -4.592  1.00  0.00     0.103 C 
HETATM    5  O13         0      67.919  40.618  -4.992  1.00  0.00    -0.307 OA
HETATM    6  C14         0      68.388  39.727  -4.146  1.00  0.00     0.107 C 
HETATM    7  C15         0      68.516  38.389  -4.490  1.00  0.00     0.049 C 
HETATM    8  C16         0      68.765  37.417  -3.528  1.00  0.00     0.093 C 
HETATM    9  C18         0      69.387  37.879  -2.374  1.00  0.00     0.048 C 
HETATM   10  C19         0      69.317  39.221  -2.025  1.00  0.00     0.096 C 
HETATM   11  C21         0      68.646  40.099  -2.831  1.00  0.00     0.084 C 
ENDROOT
BRANCH  10  12
HETATM   12  O20         0      69.545  39.592  -0.703  1.00  0.00    -0.359 OA
HETATM   13  H20         0      69.884  40.463  -0.538  1.00  0.00     0.218 HD
ENDBRANCH  10  12
BRANCH   4  14
HETATM   14  C5          0      66.392  42.424  -5.392  1.00  0.00     0.025 C 
HETATM   15  C6          0      66.343  43.794  -5.603  1.00  0.00     0.004 C 
HETATM   16  C7          0      65.949  44.239  -6.861  1.00  0.00     0.026 C 
HETATM   17  C8          0      65.489  43.359  -7.834  1.00  0.00     0.112 C 
HETATM   18  C10         0      64.986  42.162  -7.343  1.00  0.00     0.112 C 
HETATM   19  C12         0      65.461  41.697  -6.122  1.00  0.00     0.028 C 
BRANCH  17  20
HETATM   20  O9          0      65.726  43.599  -9.176  1.00  0.00    -0.357 OA
HETATM   21  H9          0      66.545  43.394  -9.612  1.00  0.00     0.218 HD
ENDBRANCH  17  20
BRANCH  18  22
HETATM   22  O11         0      64.344  41.330  -8.249  1.00  0.00    -0.357 OA
HETATM   23  H11         0      64.875  40.668  -8.676  1.00  0.00     0.218 HD
ENDBRANCH  18  22
ENDBRANCH   4  14
BRANCH   8  24
HETATM   24  O17         0      68.140  36.166  -3.577  1.00  0.00    -0.359 OA
HETATM   25  H17         0      67.750  35.834  -4.377  1.00  0.00     0.218 HD
ENDBRANCH   8  24
TORSDOF 5
ENDMDL
MODEL 3
REMARK VINA RESULT:      -4.7      2.007      6.862
REMARK  5 active torsions:
REMARK  status: ('A' for Active; 'I' for Inactive)
REMARK    1  A    between atoms: C4_4  and  C5_5 
REMARK    2  A    between atoms: C8_8  and  O9_9 
REMARK    3  A    between atoms: C10_11  and  O11_12 
REMARK    4  A    between atoms: C16_18  and  O17_19 
REMARK    5  A    between atoms: C19_22  and  O20_23 
ROOT
HETATM    1  O1          0      66.775  42.335  -5.667  1.00  0.00    -0.286 OA
HETATM    2  C2          0      67.394  41.552  -4.895  1.00  0.00     0.201 C 
HETATM    3  C3          0      67.960  40.365  -5.326  1.00  0.00     0.067 C 
HETATM    4  C4          0      68.547  39.472  -4.437  1.00  0.00     0.103 C 
HETATM    5  O13         0      68.577  39.782  -3.153  1.00  0.00    -0.307 OA
HETATM    6  C14         0      68.021  40.878  -2.686  1.00  0.00     0.107 C 
HETATM    7  C15         0      67.696  41.018  -1.344  1.00  0.00     0.049 C 
HETATM    8  C16         0      66.886  42.058  -0.902  1.00  0.00     0.093 C 
HETATM    9  C18         0      66.877  43.182  -1.719  1.00  0.00     0.048 C 
HETATM   10  C19         0      67.242  43.087  -3.055  1.00  0.00     0.096 C 
HETATM   11  C21         0      67.630  41.879  -3.568  1.00  0.00     0.084 C 
ENDROOT
BRANCH  10  12
HETATM   12  O20         0      66.825  44.071  -3.946  1.00  0.00    -0.359 OA
HETATM   13  H20         0      65.990  43.951  -4.382  1.00  0.00     0.218 HD
ENDBRANCH  10  12
BRANCH   4  14
HETATM   14  C5          0      68.566  38.059  -4.821  1.00  0.00     0.025 C 
HETATM   15  C6          0      68.864  37.634  -6.108  1.00  0.00     0.004 C 
HETATM   16  C7          0      69.621  36.475  -6.244  1.00  0.00     0.026 C 
HETATM   17  C8          0      69.958  35.690  -5.146  1.00  0.00     0.112 C 
HETATM   18  C10         0      69.116  35.832  -4.052  1.00  0.00     0.112 C 
HETATM   19  C12         0      68.435  37.034  -3.894  1.00  0.00     0.028 C 
BRANCH  17  20
HETATM   20  O9          0      71.158  35.003  -5.108  1.00  0.00    -0.357 OA
HETATM   21  H9          0      71.357  34.321  -4.476  1.00  0.00     0.218 HD
ENDBRANCH  17  20
BRANCH  18  22
HETATM   22  O11         0      69.292  34.940  -3.004  1.00  0.00    -0.357 OA
HETATM   23  H11         0      70.081  34.411  -3.017  1.00  0.00     0.218 HD
ENDBRANCH  18  22
ENDBRANCH   4  14
BRANCH   8  24
HETATM   24  O17         0      65.914  41.857   0.083  1.00  0.00    -0.359 OA
HETATM   25  H17         0      65.103  42.353   0.094  1.00  0.00     0.218 HD
ENDBRANCH   8  24
TORSDOF 5
ENDMDL
MODEL 4
REMARK VINA RESULT:      -4.7      1.854      3.948
REMARK  5 active torsions:
REMARK  status: ('A' for Active; 'I' for Inactive)
REMARK    1  A    between atoms: C4_4  and  C5_5 
REMARK    2  A    between atoms: C8_8  and  O9_9 
REMARK    3  A    between atoms: C10_11  and  O11_12 
REMARK    4  A    between atoms: C16_18  and  O17_19 
REMARK    5  A    between atoms: C19_22  and  O20_23 
ROOT
HETATM    1  O1          0      68.854  34.662  -5.748  1.00  0.00    -0.286 OA
HETATM    2  C2          0      69.128  35.089  -4.593  1.00  0.00     0.201 C 
HETATM    3  C3          0      68.784  36.359  -4.162  1.00  0.00     0.067 C 
HETATM    4  C4          0      69.187  36.842  -2.923  1.00  0.00     0.103 C 
HETATM    5  O13         0      69.899  36.055  -2.136  1.00  0.00    -0.307 OA
HETATM    6  C14         0      70.285  34.855  -2.511  1.00  0.00     0.107 C 
HETATM    7  C15         0      71.336  34.197  -1.889  1.00  0.00     0.049 C 
HETATM    8  C16         0      71.902  33.055  -2.444  1.00  0.00     0.093 C 
HETATM    9  C18         0      71.067  32.340  -3.293  1.00  0.00     0.048 C 
HETATM   10  C19         0      69.978  32.955  -3.896  1.00  0.00     0.096 C 
HETATM   11  C21         0      69.715  34.273  -3.639  1.00  0.00     0.084 C 
ENDROOT
BRANCH  10  12
HETATM   12  O20         0      69.427  32.392  -5.043  1.00  0.00    -0.359 OA
HETATM   13  H20         0      68.963  32.965  -5.641  1.00  0.00     0.218 HD
ENDBRANCH  10  12
BRANCH   4  14
HETATM   14  C5          0      69.329  38.293  -2.783  1.00  0.00     0.025 C 
HETATM   15  C6          0      68.619  39.196  -3.560  1.00  0.00     0.004 C 
HETATM   16  C7          0      68.160  40.356  -2.944  1.00  0.00     0.026 C 
HETATM   17  C8          0      68.508  40.674  -1.636  1.00  0.00     0.112 C 
HETATM   18  C10         0      69.679  40.077  -1.186  1.00  0.00     0.112 C 
HETATM   19  C12         0      70.069  38.874  -1.761  1.00  0.00     0.028 C 
BRANCH  17  20
HETATM   20  O9          0      67.628  41.355  -0.814  1.00  0.00    -0.357 OA
HETATM   21  H9          0      67.548  41.197   0.120  1.00  0.00     0.218 HD
ENDBRANCH  17  20
BRANCH  18  22
HETATM   22  O11         0      70.171  40.505   0.038  1.00  0.00    -0.357 OA
HETATM   23  H11         0      70.715  39.892   0.521  1.00  0.00     0.218 HD
ENDBRANCH  18  22
ENDBRANCH   4  14
BRANCH   8  24
HETATM   24  O17         0      73.284  32.840  -2.418  1.00  0.00    -0.359 OA
HETATM   25  H17         0      73.770  32.816  -1.602  1.00  0.00     0.218 HD
ENDBRANCH   8  24
TORSDOF 5
ENDMDL
MODEL 5
REMARK VINA RESULT:      -4.5      1.691      3.157
REMARK  5 active torsions:
REMARK  status: ('A' for Active; 'I' for Inactive)
REMARK    1  A    between atoms: C4_4  and  C5_5 
REMARK    2  A    between atoms: C8_8  and  O9_9 
REMARK    3  A    between atoms: C10_11  and  O11_12 
REMARK    4  A    between atoms: C16_18  and  O17_19 
REMARK    5  A    between atoms: C19_22  and  O20_23 
ROOT
HETATM    1  O1          0      69.714  36.053  -6.578  1.00  0.00    -0.286 OA
HETATM    2  C2          0      69.364  36.416  -5.422  1.00  0.00     0.201 C 
HETATM    3  C3          0      68.811  37.658  -5.161  1.00  0.00     0.067 C 
HETATM    4  C4          0      68.529  38.073  -3.864  1.00  0.00     0.103 C 
HETATM    5  O13         0      68.780  37.246  -2.865  1.00  0.00    -0.307 OA
HETATM    6  C14         0      69.339  36.070  -3.054  1.00  0.00     0.107 C 
HETATM    7  C15         0      69.961  35.382  -2.022  1.00  0.00     0.049 C 
HETATM    8  C16         0      70.764  34.276  -2.273  1.00  0.00     0.093 C 
HETATM    9  C18         0      70.485  33.606  -3.458  1.00  0.00     0.048 C 
HETATM   10  C19         0      69.822  34.250  -4.494  1.00  0.00     0.096 C 
HETATM   11  C21         0      69.424  35.550  -4.341  1.00  0.00     0.084 C 
ENDROOT
BRANCH  10  12
HETATM   12  O20         0      69.932  33.749  -5.788  1.00  0.00    -0.359 OA
HETATM   13  H20         0      70.656  34.053  -6.322  1.00  0.00     0.218 HD
ENDBRANCH  10  12
BRANCH   4  14
HETATM   14  C5          0      68.536  39.514  -3.605  1.00  0.00     0.025 C 
HETATM   15  C6          0      68.326  40.458  -4.600  1.00  0.00     0.004 C 
HETATM   16  C7          0      67.580  41.585  -4.272  1.00  0.00     0.026 C 
HETATM   17  C8          0      67.169  41.833  -2.967  1.00  0.00     0.112 C 
HETATM   18  C10         0      67.935  41.211  -1.990  1.00  0.00     0.112 C 
HETATM   19  C12         0      68.603  40.039  -2.321  1.00  0.00     0.028 C 
BRANCH  17  20
HETATM   20  O9          0      65.969  42.472  -2.711  1.00  0.00    -0.357 OA
HETATM   21  H9          0      65.904  43.343  -2.335  1.00  0.00     0.218 HD
ENDBRANCH  17  20
BRANCH  18  22
HETATM   22  O11         0      67.688  41.573  -0.673  1.00  0.00    -0.357 OA
HETATM   23  H11         0      67.586  42.501  -0.494  1.00  0.00     0.218 HD
ENDBRANCH  18  22
ENDBRANCH   4  14
BRANCH   8  24
HETATM   24  O17         0      71.956  34.066  -1.572  1.00  0.00    -0.359 OA
HETATM   25  H17         0      72.322  33.196  -1.459  1.00  0.00     0.218 HD
ENDBRANCH   8  24
TORSDOF 5
ENDMDL
MODEL 6
REMARK VINA RESULT:      -4.4      1.620      6.649
REMARK  5 active torsions:
REMARK  status: ('A' for Active; 'I' for Inactive)
REMARK    1  A    between atoms: C4_4  and  C5_5 
REMARK    2  A    between atoms: C8_8  and  O9_9 
REMARK    3  A    between atoms: C10_11  and  O11_12 
REMARK    4  A    between atoms: C16_18  and  O17_19 
REMARK    5  A    between atoms: C19_22  and  O20_23 
ROOT
HETATM    1  O1          0      68.188  39.871  -5.802  1.00  0.00    -0.286 OA
HETATM    2  C2          0      68.456  39.826  -4.571  1.00  0.00     0.201 C 
HETATM    3  C3          0      69.149  38.776  -3.992  1.00  0.00     0.067 C 
HETATM    4  C4          0      69.342  38.701  -2.617  1.00  0.00     0.103 C 
HETATM    5  O13         0      68.867  39.670  -1.855  1.00  0.00    -0.307 OA
HETATM    6  C14         0      68.170  40.670  -2.350  1.00  0.00     0.107 C 
HETATM    7  C15         0      67.345  41.451  -1.552  1.00  0.00     0.049 C 
HETATM    8  C16         0      66.425  42.330  -2.110  1.00  0.00     0.093 C 
HETATM    9  C18         0      66.734  42.768  -3.392  1.00  0.00     0.048 C 
HETATM   10  C19         0      67.593  42.035  -4.200  1.00  0.00     0.096 C 
HETATM   11  C21         0      68.153  40.881  -3.724  1.00  0.00     0.084 C 
ENDROOT
BRANCH  10  12
HETATM   12  O20         0      67.556  42.222  -5.578  1.00  0.00    -0.359 OA
HETATM   13  H20         0      67.159  43.019  -5.909  1.00  0.00     0.218 HD
ENDBRANCH  10  12
BRANCH   4  14
HETATM   14  C5          0      69.513  37.368  -2.037  1.00  0.00     0.025 C 
HETATM   15  C6          0      69.030  36.217  -2.642  1.00  0.00     0.004 C 
HETATM   16  C7          0      69.816  35.071  -2.569  1.00  0.00     0.026 C 
HETATM   17  C8          0      70.979  35.032  -1.807  1.00  0.00     0.112 C 
HETATM   18  C10         0      71.030  35.964  -0.779  1.00  0.00     0.112 C 
HETATM   19  C12         0      70.301  37.139  -0.916  1.00  0.00     0.028 C 
BRANCH  17  20
HETATM   20  O9          0      72.059  34.264  -2.203  1.00  0.00    -0.357 OA
HETATM   21  H9          0      72.928  34.616  -2.360  1.00  0.00     0.218 HD
ENDBRANCH  17  20
BRANCH  18  22
HETATM   22  O11         0      72.077  35.845   0.125  1.00  0.00    -0.357 OA
HETATM   23  H11         0      72.610  36.618   0.268  1.00  0.00     0.218 HD
ENDBRANCH  18  22
ENDBRANCH   4  14
BRANCH   8  24
HETATM   24  O17         0      65.145  42.487  -1.568  1.00  0.00    -0.359 OA
HETATM   25  H17         0      64.409  42.767  -2.099  1.00  0.00     0.218 HD
ENDBRANCH   8  24
TORSDOF 5
ENDMDL
MODEL 7
REMARK VINA RESULT:      -4.3      2.680      3.991
REMARK  5 active torsions:
REMARK  status: ('A' for Active; 'I' for Inactive)
REMARK    1  A    between atoms: C4_4  and  C5_5 
REMARK    2  A    between atoms: C8_8  and  O9_9 
REMARK    3  A    between atoms: C10_11  and  O11_12 
REMARK    4  A    between atoms: C16_18  and  O17_19 
REMARK    5  A    between atoms: C19_22  and  O20_23 
ROOT
HETATM    1  O1          0      71.590  35.544  -5.909  1.00  0.00    -0.286 OA
HETATM    2  C2          0      70.551  36.053  -5.406  1.00  0.00     0.201 C 
HETATM    3  C3          0      69.758  36.963  -6.084  1.00  0.00     0.067 C 
HETATM    4  C4          0      68.677  37.586  -5.470  1.00  0.00     0.103 C 
HETATM    5  O13         0      68.396  37.280  -4.216  1.00  0.00    -0.307 OA
HETATM    6  C14         0      69.139  36.451  -3.516  1.00  0.00     0.107 C 
HETATM    7  C15         0      69.102  36.430  -2.129  1.00  0.00     0.049 C 
HETATM    8  C16         0      70.060  35.744  -1.392  1.00  0.00     0.093 C 
HETATM    9  C18         0      70.682  34.699  -2.065  1.00  0.00     0.048 C 
HETATM   10  C19         0      70.697  34.664  -3.453  1.00  0.00     0.096 C 
HETATM   11  C21         0      70.080  35.657  -4.164  1.00  0.00     0.084 C 
ENDROOT
BRANCH  10  12
HETATM   12  O20         0      71.657  33.896  -4.104  1.00  0.00    -0.359 OA
HETATM   13  H20         0      71.474  33.613  -4.992  1.00  0.00     0.218 HD
ENDBRANCH  10  12
BRANCH   4  14
HETATM   14  C5          0      68.285  38.901  -5.979  1.00  0.00     0.025 C 
HETATM   15  C6          0      67.887  39.112  -7.292  1.00  0.00     0.004 C 
HETATM   16  C7          0      66.849  40.011  -7.514  1.00  0.00     0.026 C 
HETATM   17  C8          0      66.314  40.777  -6.484  1.00  0.00     0.112 C 
HETATM   18  C10         0      67.163  40.965  -5.401  1.00  0.00     0.112 C 
HETATM   19  C12         0      68.137  40.006  -5.151  1.00  0.00     0.028 C 
BRANCH  17  20
HETATM   20  O9          0      64.975  41.124  -6.480  1.00  0.00    -0.357 OA
HETATM   21  H9          0      64.583  41.726  -7.102  1.00  0.00     0.218 HD
ENDBRANCH  17  20
BRANCH  18  22
HETATM   22  O11         0      66.755  41.873  -4.433  1.00  0.00    -0.357 OA
HETATM   23  H11         0      65.979  42.386  -4.625  1.00  0.00     0.218 HD
ENDBRANCH  18  22
ENDBRANCH   4  14
BRANCH   8  24
HETATM   24  O17         0      70.587  36.273  -0.209  1.00  0.00    -0.359 OA
HETATM   25  H17         0      70.656  37.210  -0.068  1.00  0.00     0.218 HD
ENDBRANCH   8  24
TORSDOF 5
ENDMDL
MODEL 8
REMARK VINA RESULT:      -4.3      4.983      7.440
REMARK  5 active torsions:
REMARK  status: ('A' for Active; 'I' for Inactive)
REMARK    1  A    between atoms: C4_4  and  C5_5 
REMARK    2  A    between atoms: C8_8  and  O9_9 
REMARK    3  A    between atoms: C10_11  and  O11_12 
REMARK    4  A    between atoms: C16_18  and  O17_19 
REMARK    5  A    between atoms: C19_22  and  O20_23 
ROOT
HETATM    1  O1          0      67.698  45.992  -3.583  1.00  0.00    -0.286 OA
HETATM    2  C2          0      67.380  44.812  -3.899  1.00  0.00     0.201 C 
HETATM    3  C3          0      66.895  44.476  -5.152  1.00  0.00     0.067 C 
HETATM    4  C4          0      66.455  43.189  -5.441  1.00  0.00     0.103 C 
HETATM    5  O13         0      66.524  42.267  -4.497  1.00  0.00    -0.307 OA
HETATM    6  C14         0      66.941  42.542  -3.280  1.00  0.00     0.107 C 
HETATM    7  C15         0      66.647  41.718  -2.203  1.00  0.00     0.049 C 
HETATM    8  C16         0      66.864  42.135  -0.896  1.00  0.00     0.093 C 
HETATM    9  C18         0      67.834  43.119  -0.747  1.00  0.00     0.048 C 
HETATM   10  C19         0      68.186  43.931  -1.816  1.00  0.00     0.096 C 
HETATM   11  C21         0      67.585  43.750  -3.032  1.00  0.00     0.084 C 
ENDROOT
BRANCH  10  12
HETATM   12  O20         0      68.802  45.154  -1.569  1.00  0.00    -0.359 OA
HETATM   13  H20         0      68.484  45.915  -2.039  1.00  0.00     0.218 HD
ENDBRANCH  10  12
BRANCH   4  14
HETATM   14  C5          0      65.447  43.047  -6.493  1.00  0.00     0.025 C 
HETATM   15  C6          0      64.850  44.134  -7.114  1.00  0.00     0.004 C 
HETATM   16  C7          0      64.597  44.038  -8.479  1.00  0.00     0.026 C 
HETATM   17  C8          0      64.805  42.854  -9.177  1.00  0.00     0.112 C 
HETATM   18  C10         0      64.782  41.707  -8.395  1.00  0.00     0.112 C 
HETATM   19  C12         0      65.122  41.818  -7.052  1.00  0.00     0.028 C 
BRANCH  17  20
HETATM   20  O9          0      65.211  42.873 -10.500  1.00  0.00    -0.357 OA
HETATM   21  H9          0      65.667  43.603 -10.902  1.00  0.00     0.218 HD
ENDBRANCH  17  20
BRANCH  18  22
HETATM   22  O11         0      64.796  40.491  -9.062  1.00  0.00    -0.357 OA
HETATM   23  H11         0      65.003  40.511  -9.989  1.00  0.00     0.218 HD
ENDBRANCH  18  22
ENDBRANCH   4  14
BRANCH   8  24
HETATM   24  O17         0      65.954  41.839   0.125  1.00  0.00    -0.359 OA
HETATM   25  H17         0      65.032  42.057   0.050  1.00  0.00     0.218 HD
ENDBRANCH   8  24
TORSDOF 5
ENDMDL
MODEL 9
REMARK VINA RESULT:      -4.2      2.794      3.440
REMARK  5 active torsions:
REMARK  status: ('A' for Active; 'I' for Inactive)
REMARK    1  A    between atoms: C4_4  and  C5_5 
REMARK    2  A    between atoms: C8_8  and  O9_9 
REMARK    3  A    between atoms: C10_11  and  O11_12 
REMARK    4  A    between atoms: C16_18  and  O17_19 
REMARK    5  A    between atoms: C19_22  and  O20_23 
ROOT
HETATM    1  O1          0      69.302  37.232  -1.969  1.00  0.00    -0.286 OA
HETATM    2  C2          0      69.337  37.214  -3.230  1.00  0.00     0.201 C 
HETATM    3  C3          0      69.260  38.363  -4.000  1.00  0.00     0.067 C 
HETATM    4  C4          0      69.198  38.307  -5.387  1.00  0.00     0.103 C 
HETATM    5  O13         0      69.233  37.126  -5.978  1.00  0.00    -0.307 OA
HETATM    6  C14         0      69.268  36.003  -5.294  1.00  0.00     0.107 C 
HETATM    7  C15         0      68.907  34.790  -5.861  1.00  0.00     0.049 C 
HETATM    8  C16         0      68.700  33.660  -5.079  1.00  0.00     0.093 C 
HETATM    9  C18         0      69.364  33.662  -3.858  1.00  0.00     0.048 C 
HETATM   10  C19         0      69.781  34.855  -3.284  1.00  0.00     0.096 C 
HETATM   11  C21         0      69.551  36.038  -3.933  1.00  0.00     0.084 C 
ENDROOT
BRANCH  10  12
HETATM   12  O20         0      70.034  34.900  -1.916  1.00  0.00    -0.359 OA
HETATM   13  H20         0      70.435  34.139  -1.513  1.00  0.00     0.218 HD
ENDBRANCH  10  12
BRANCH   4  14
HETATM   14  C5          0      68.534  39.418  -6.072  1.00  0.00     0.025 C 
HETATM   15  C6          0      67.907  39.276  -7.302  1.00  0.00     0.004 C 
HETATM   16  C7          0      66.722  39.977  -7.505  1.00  0.00     0.026 C 
HETATM   17  C8          0      66.246  40.892  -6.572  1.00  0.00     0.112 C 
HETATM   18  C10         0      67.216  41.418  -5.729  1.00  0.00     0.112 C 
HETATM   19  C12         0      68.352  40.659  -5.476  1.00  0.00     0.028 C 
BRANCH  17  20
HETATM   20  O9          0      64.887  41.075  -6.388  1.00  0.00    -0.357 OA
HETATM   21  H9          0      64.489  41.916  -6.197  1.00  0.00     0.218 HD
ENDBRANCH  17  20
BRANCH  18  22
HETATM   22  O11         0      66.833  42.470  -4.910  1.00  0.00    -0.357 OA
HETATM   23  H11         0      66.517  43.256  -5.339  1.00  0.00     0.218 HD
ENDBRANCH  18  22
ENDBRANCH   4  14
BRANCH   8  24
HETATM   24  O17         0      67.655  32.769  -5.347  1.00  0.00    -0.359 OA
HETATM   25  H17         0      66.960  32.984  -5.958  1.00  0.00     0.218 HD
ENDBRANCH   8  24
TORSDOF 5
ENDMDL
