MODEL 1
REMARK VINA RESULT:      -0.0      0.000      0.000
REMARK  5 active torsions:
REMARK  status: ('A' for Active; 'I' for Inactive)
REMARK    1  A    between atoms: C4_4  and  C5_5 
REMARK    2  A    between atoms: C8_8  and  O9_9 
REMARK    3  A    between atoms: C10_11  and  O11_12 
REMARK    4  A    between atoms: C16_18  and  O17_19 
REMARK    5  A    between atoms: C19_22  and  O20_23 
ROOT
HETATM    1  O1          0      24.780  85.118  32.803  1.00  0.00    -0.286 OA
HETATM    2  C2          0      24.548  83.911  33.084  1.00  0.00     0.201 C 
HETATM    3  C3          0      24.242  83.484  34.365  1.00  0.00     0.067 C 
HETATM    4  C4          0      24.092  82.135  34.667  1.00  0.00     0.103 C 
HETATM    5  O13         0      24.227  81.248  33.697  1.00  0.00    -0.307 OA
HETATM    6  C14         0      24.553  81.597  32.472  1.00  0.00     0.107 C 
HETATM    7  C15         0      25.080  80.685  31.568  1.00  0.00     0.049 C 
HETATM    8  C16         0      25.656  81.103  30.374  1.00  0.00     0.093 C 
HETATM    9  C18         0      25.213  82.335  29.908  1.00  0.00     0.048 C 
HETATM   10  C19         0      24.638  83.253  30.777  1.00  0.00     0.096 C 
HETATM   11  C21         0      24.491  82.936  32.100  1.00  0.00     0.084 C 
ENDROOT
BRANCH  10  12
HETATM   12  O20         0      24.604  84.597  30.421  1.00  0.00    -0.359 OA
HETATM   13  H20         0      25.371  85.126  30.605  1.00  0.00     0.218 HD
ENDBRANCH  10  12
BRANCH   4  14
HETATM   14  C5          0      24.373  81.721  36.043  1.00  0.00     0.025 C 
HETATM   15  C6          0      24.957  80.504  36.358  1.00  0.00     0.004 C 
HETATM   16  C7          0      25.877  80.481  37.402  1.00  0.00     0.026 C 
HETATM   17  C8          0      26.109  81.600  38.194  1.00  0.00     0.112 C 
HETATM   18  C10         0      25.068  82.518  38.220  1.00  0.00     0.112 C 
HETATM   19  C12         0      24.213  82.578  37.125  1.00  0.00     0.028 C 
BRANCH  17  20
HETATM   20  O9          0      27.363  81.846  38.724  1.00  0.00    -0.357 OA
HETATM   21  H9          0      28.175  81.656  38.269  1.00  0.00     0.218 HD
ENDBRANCH  17  20
BRANCH  18  22
HETATM   22  O11         0      25.166  83.555  39.137  1.00  0.00    -0.357 OA
HETATM   23  H11         0      25.539  84.371  38.824  1.00  0.00     0.218 HD
ENDBRANCH  18  22
ENDBRANCH   4  14
BRANCH   8  24
HETATM   24  O17         0      26.816  80.502  29.875  1.00  0.00    -0.359 OA
HETATM   25  H17         0      27.616  80.996  29.740  1.00  0.00     0.218 HD
ENDBRANCH   8  24
TORSDOF 5
ENDMDL
MODEL 2
REMARK VINA RESULT:      -0.0      2.373      6.832
REMARK  5 active torsions:
REMARK  status: ('A' for Active; 'I' for Inactive)
REMARK    1  A    between atoms: C4_4  and  C5_5 
REMARK    2  A    between atoms: C8_8  and  O9_9 
REMARK    3  A    between atoms: C10_11  and  O11_12 
REMARK    4  A    between atoms: C16_18  and  O17_19 
REMARK    5  A    between atoms: C19_22  and  O20_23 
ROOT
HETATM    1  O1          0      25.909  82.987  35.988  1.00  0.00    -0.286 OA
HETATM    2  C2          0      24.990  82.129  35.880  1.00  0.00     0.201 C 
HETATM    3  C3          0      24.840  81.326  34.763  1.00  0.00     0.067 C 
HETATM    4  C4          0      23.760  80.461  34.626  1.00  0.00     0.103 C 
HETATM    5  O13         0      22.870  80.399  35.601  1.00  0.00    -0.307 OA
HETATM    6  C14         0      22.944  81.167  36.666  1.00  0.00     0.107 C 
HETATM    7  C15         0      21.843  81.399  37.477  1.00  0.00     0.049 C 
HETATM    8  C16         0      21.856  82.400  38.441  1.00  0.00     0.093 C 
HETATM    9  C18         0      23.118  82.758  38.899  1.00  0.00     0.048 C 
HETATM   10  C19         0      24.247  82.498  38.133  1.00  0.00     0.096 C 
HETATM   11  C21         0      24.117  81.868  36.925  1.00  0.00     0.084 C 
ENDROOT
BRANCH  10  12
HETATM   12  O20         0      25.411  83.221  38.370  1.00  0.00    -0.359 OA
HETATM   13  H20         0      25.333  84.157  38.513  1.00  0.00     0.218 HD
ENDBRANCH  10  12
BRANCH   4  14
HETATM   14  C5          0      23.339  80.126  33.265  1.00  0.00     0.025 C 
HETATM   15  C6          0      22.010  79.940  32.913  1.00  0.00     0.004 C 
HETATM   16  C7          0      21.599  80.416  31.672  1.00  0.00     0.026 C 
HETATM   17  C8          0      22.505  80.937  30.754  1.00  0.00     0.112 C 
HETATM   18  C10         0      23.814  80.506  30.923  1.00  0.00     0.112 C 
HETATM   19  C12         0      24.222  80.117  32.193  1.00  0.00     0.028 C 
BRANCH  17  20
HETATM   20  O9          0      22.137  81.959  29.897  1.00  0.00    -0.357 OA
HETATM   21  H9          0      21.803  81.817  29.018  1.00  0.00     0.218 HD
ENDBRANCH  17  20
BRANCH  18  22
HETATM   22  O11         0      24.720  80.843  29.927  1.00  0.00    -0.357 OA
HETATM   23  H11         0      24.389  80.873  29.037  1.00  0.00     0.218 HD
ENDBRANCH  18  22
ENDBRANCH   4  14
BRANCH   8  24
HETATM   24  O17         0      20.734  83.203  38.674  1.00  0.00    -0.359 OA
HETATM   25  H17         0      19.928  83.087  38.185  1.00  0.00     0.218 HD
ENDBRANCH   8  24
TORSDOF 5
ENDMDL
MODEL 3
REMARK VINA RESULT:      -0.0     10.280     11.483
REMARK  5 active torsions:
REMARK  status: ('A' for Active; 'I' for Inactive)
REMARK    1  A    between atoms: C4_4  and  C5_5 
REMARK    2  A    between atoms: C8_8  and  O9_9 
REMARK    3  A    between atoms: C10_11  and  O11_12 
REMARK    4  A    between atoms: C16_18  and  O17_19 
REMARK    5  A    between atoms: C19_22  and  O20_23 
ROOT
HETATM    1  O1          0      17.652  88.886  39.326  1.00  0.00    -0.286 OA
HETATM    2  C2          0      16.720  88.492  38.572  1.00  0.00     0.201 C 
HETATM    3  C3          0      15.981  87.349  38.827  1.00  0.00     0.067 C 
HETATM    4  C4          0      15.029  86.881  37.928  1.00  0.00     0.103 C 
HETATM    5  O13         0      14.818  87.562  36.816  1.00  0.00    -0.307 OA
HETATM    6  C14         0      15.518  88.632  36.507  1.00  0.00     0.107 C 
HETATM    7  C15         0      15.591  89.108  35.206  1.00  0.00     0.049 C 
HETATM    8  C16         0      16.523  90.073  34.842  1.00  0.00     0.093 C 
HETATM    9  C18         0      16.968  90.881  35.881  1.00  0.00     0.048 C 
HETATM   10  C19         0      16.866  90.456  37.199  1.00  0.00     0.096 C 
HETATM   11  C21         0      16.309  89.238  37.478  1.00  0.00     0.084 C 
ENDROOT
BRANCH  10  12
HETATM   12  O20         0      17.680  91.038  38.166  1.00  0.00    -0.359 OA
HETATM   13  H20         0      17.817  91.977  38.126  1.00  0.00     0.218 HD
ENDBRANCH  10  12
BRANCH   4  14
HETATM   14  C5          0      14.746  85.445  37.940  1.00  0.00     0.025 C 
HETATM   15  C6          0      14.280  84.762  36.826  1.00  0.00     0.004 C 
HETATM   16  C7          0      14.768  83.477  36.607  1.00  0.00     0.026 C 
HETATM   17  C8          0      15.588  82.841  37.533  1.00  0.00     0.112 C 
HETATM   18  C10         0      15.475  83.317  38.832  1.00  0.00     0.112 C 
HETATM   19  C12         0      15.066  84.632  39.020  1.00  0.00     0.028 C 
BRANCH  17  20
HETATM   20  O9          0      16.574  81.962  37.120  1.00  0.00    -0.357 OA
HETATM   21  H9          0      16.782  81.792  36.209  1.00  0.00     0.218 HD
ENDBRANCH  17  20
BRANCH  18  22
HETATM   22  O11         0      16.125  82.598  39.824  1.00  0.00    -0.357 OA
HETATM   23  H11         0      16.346  81.695  39.626  1.00  0.00     0.218 HD
ENDBRANCH  18  22
ENDBRANCH   4  14
BRANCH   8  24
HETATM   24  O17         0      17.199  90.008  33.619  1.00  0.00    -0.359 OA
HETATM   25  H17         0      17.471  90.792  33.157  1.00  0.00     0.218 HD
ENDBRANCH   8  24
TORSDOF 5
ENDMDL
MODEL 4
REMARK VINA RESULT:      -0.0      8.962     11.846
REMARK  5 active torsions:
REMARK  status: ('A' for Active; 'I' for Inactive)
REMARK    1  A    between atoms: C4_4  and  C5_5 
REMARK    2  A    between atoms: C8_8  and  O9_9 
REMARK    3  A    between atoms: C10_11  and  O11_12 
REMARK    4  A    between atoms: C16_18  and  O17_19 
REMARK    5  A    between atoms: C19_22  and  O20_23 
ROOT
HETATM    1  O1          0      18.017  88.802  42.485  1.00  0.00    -0.286 OA
HETATM    2  C2          0      18.328  88.453  41.313  1.00  0.00     0.201 C 
HETATM    3  C3          0      17.541  88.739  40.211  1.00  0.00     0.067 C 
HETATM    4  C4          0      17.855  88.255  38.946  1.00  0.00     0.103 C 
HETATM    5  O13         0      18.944  87.521  38.800  1.00  0.00    -0.307 OA
HETATM    6  C14         0      19.706  87.189  39.819  1.00  0.00     0.107 C 
HETATM    7  C15         0      20.591  86.123  39.753  1.00  0.00     0.049 C 
HETATM    8  C16         0      21.200  85.619  40.896  1.00  0.00     0.093 C 
HETATM    9  C18         0      21.305  86.518  41.950  1.00  0.00     0.048 C 
HETATM   10  C19         0      20.466  87.622  42.023  1.00  0.00     0.096 C 
HETATM   11  C21         0      19.539  87.835  41.039  1.00  0.00     0.084 C 
ENDROOT
BRANCH  10  12
HETATM   12  O20         0      20.273  88.250  43.249  1.00  0.00    -0.359 OA
HETATM   13  H20         0      20.843  88.976  43.472  1.00  0.00     0.218 HD
ENDBRANCH  10  12
BRANCH   4  14
HETATM   14  C5          0      16.748  88.068  38.007  1.00  0.00     0.025 C 
HETATM   15  C6          0      16.785  87.140  36.976  1.00  0.00     0.004 C 
HETATM   16  C7          0      15.610  86.454  36.683  1.00  0.00     0.026 C 
HETATM   17  C8          0      14.406  86.773  37.301  1.00  0.00     0.112 C 
HETATM   18  C10         0      14.337  88.066  37.804  1.00  0.00     0.112 C 
HETATM   19  C12         0      15.520  88.697  38.168  1.00  0.00     0.028 C 
BRANCH  17  20
HETATM   20  O9          0      13.463  85.795  37.565  1.00  0.00    -0.357 OA
HETATM   21  H9          0      12.574  85.815  37.230  1.00  0.00     0.218 HD
ENDBRANCH  17  20
BRANCH  18  22
HETATM   22  O11         0      13.099  88.497  38.260  1.00  0.00    -0.357 OA
HETATM   23  H11         0      12.333  88.142  37.824  1.00  0.00     0.218 HD
ENDBRANCH  18  22
ENDBRANCH   4  14
BRANCH   8  24
HETATM   24  O17         0      21.376  84.243  41.082  1.00  0.00    -0.359 OA
HETATM   25  H17         0      20.662  83.628  40.967  1.00  0.00     0.218 HD
ENDBRANCH   8  24
TORSDOF 5
ENDMDL
MODEL 5
REMARK VINA RESULT:      -0.0      5.284      6.671
REMARK  5 active torsions:
REMARK  status: ('A' for Active; 'I' for Inactive)
REMARK    1  A    between atoms: C4_4  and  C5_5 
REMARK    2  A    between atoms: C8_8  and  O9_9 
REMARK    3  A    between atoms: C10_11  and  O11_12 
REMARK    4  A    between atoms: C16_18  and  O17_19 
REMARK    5  A    between atoms: C19_22  and  O20_23 
ROOT
HETATM    1  O1          0      20.685  88.347  38.492  1.00  0.00    -0.286 OA
HETATM    2  C2          0      20.519  87.405  37.669  1.00  0.00     0.201 C 
HETATM    3  C3          0      20.015  86.168  38.035  1.00  0.00     0.067 C 
HETATM    4  C4          0      19.938  85.116  37.130  1.00  0.00     0.103 C 
HETATM    5  O13         0      20.340  85.317  35.888  1.00  0.00    -0.307 OA
HETATM    6  C14         0      20.861  86.459  35.497  1.00  0.00     0.107 C 
HETATM    7  C15         0      21.634  86.556  34.350  1.00  0.00     0.049 C 
HETATM    8  C16         0      22.386  87.693  34.080  1.00  0.00     0.093 C 
HETATM    9  C18         0      21.926  88.857  34.683  1.00  0.00     0.048 C 
HETATM   10  C19         0      21.112  88.797  35.805  1.00  0.00     0.096 C 
HETATM   11  C21         0      20.745  87.580  36.312  1.00  0.00     0.084 C 
ENDROOT
BRANCH  10  12
HETATM   12  O20         0      21.019  89.906  36.639  1.00  0.00    -0.359 OA
HETATM   13  H20         0      20.198  90.056  37.092  1.00  0.00     0.218 HD
ENDBRANCH  10  12
BRANCH   4  14
HETATM   14  C5          0      19.988  83.758  37.676  1.00  0.00     0.025 C 
HETATM   15  C6          0      20.454  82.672  36.950  1.00  0.00     0.004 C 
HETATM   16  C7          0      21.205  81.717  37.629  1.00  0.00     0.026 C 
HETATM   17  C8          0      21.374  81.768  39.008  1.00  0.00     0.112 C 
HETATM   18  C10         0      20.390  82.474  39.687  1.00  0.00     0.112 C 
HETATM   19  C12         0      19.713  83.481  39.009  1.00  0.00     0.028 C 
BRANCH  17  20
HETATM   20  O9          0      22.546  81.325  39.595  1.00  0.00    -0.357 OA
HETATM   21  H9          0      23.122  81.881  40.108  1.00  0.00     0.218 HD
ENDBRANCH  17  20
BRANCH  18  22
HETATM   22  O11         0      20.404  82.398  41.073  1.00  0.00    -0.357 OA
HETATM   23  H11         0      19.580  82.548  41.520  1.00  0.00     0.218 HD
ENDBRANCH  18  22
ENDBRANCH   4  14
BRANCH   8  24
HETATM   24  O17         0      23.673  87.604  33.537  1.00  0.00    -0.359 OA
HETATM   25  H17         0      23.912  88.066  32.742  1.00  0.00     0.218 HD
ENDBRANCH   8  24
TORSDOF 5
ENDMDL
MODEL 6
REMARK VINA RESULT:      -0.0     16.152     18.710
REMARK  5 active torsions:
REMARK  status: ('A' for Active; 'I' for Inactive)
REMARK    1  A    between atoms: C4_4  and  C5_5 
REMARK    2  A    between atoms: C8_8  and  O9_9 
REMARK    3  A    between atoms: C10_11  and  O11_12 
REMARK    4  A    between atoms: C16_18  and  O17_19 
REMARK    5  A    between atoms: C19_22  and  O20_23 
ROOT
HETATM    1  O1          0      11.397  87.306  49.650  1.00  0.00    -0.286 OA
HETATM    2  C2          0      11.683  86.965  48.470  1.00  0.00     0.201 C 
HETATM    3  C3          0      11.780  85.642  48.073  1.00  0.00     0.067 C 
HETATM    4  C4          0      12.197  85.293  46.794  1.00  0.00     0.103 C 
HETATM    5  O13         0      12.487  86.256  45.936  1.00  0.00    -0.307 OA
HETATM    6  C14         0      12.447  87.527  46.272  1.00  0.00     0.107 C 
HETATM    7  C15         0      13.115  88.498  45.540  1.00  0.00     0.049 C 
HETATM    8  C16         0      13.283  89.786  46.033  1.00  0.00     0.093 C 
HETATM    9  C18         0      12.341  90.181  46.975  1.00  0.00     0.048 C 
HETATM   10  C19         0      11.621  89.236  47.693  1.00  0.00     0.096 C 
HETATM   11  C21         0      11.829  87.904  47.460  1.00  0.00     0.084 C 
ENDROOT
BRANCH  10  12
HETATM   12  O20         0      11.028  89.603  48.897  1.00  0.00    -0.359 OA
HETATM   13  H20         0      10.591  88.927  49.402  1.00  0.00     0.218 HD
ENDBRANCH  10  12
BRANCH   4  14
HETATM   14  C5          0      12.840  83.988  46.631  1.00  0.00     0.025 C 
HETATM   15  C6          0      13.755  83.721  45.623  1.00  0.00     0.004 C 
HETATM   16  C7          0      14.843  82.912  45.938  1.00  0.00     0.026 C 
HETATM   17  C8          0      14.948  82.280  47.172  1.00  0.00     0.112 C 
HETATM   18  C10         0      13.742  82.091  47.832  1.00  0.00     0.112 C 
HETATM   19  C12         0      12.697  82.967  47.561  1.00  0.00     0.028 C 
BRANCH  17  20
HETATM   20  O9          0      16.185  82.065  47.755  1.00  0.00    -0.357 OA
HETATM   21  H9          0      16.376  82.245  48.668  1.00  0.00     0.218 HD
ENDBRANCH  17  20
BRANCH  18  22
HETATM   22  O11         0      13.766  81.301  48.973  1.00  0.00    -0.357 OA
HETATM   23  H11         0      12.975  81.281  49.499  1.00  0.00     0.218 HD
ENDBRANCH  18  22
ENDBRANCH   4  14
BRANCH   8  24
HETATM   24  O17         0      14.482  90.485  45.853  1.00  0.00    -0.359 OA
HETATM   25  H17         0      14.870  90.998  46.552  1.00  0.00     0.218 HD
ENDBRANCH   8  24
TORSDOF 5
ENDMDL
MODEL 7
REMARK VINA RESULT:      -0.0     12.972     15.650
REMARK  5 active torsions:
REMARK  status: ('A' for Active; 'I' for Inactive)
REMARK    1  A    between atoms: C4_4  and  C5_5 
REMARK    2  A    between atoms: C8_8  and  O9_9 
REMARK    3  A    between atoms: C10_11  and  O11_12 
REMARK    4  A    between atoms: C16_18  and  O17_19 
REMARK    5  A    between atoms: C19_22  and  O20_23 
ROOT
HETATM    1  O1          0      23.647  93.029  39.839  1.00  0.00    -0.286 OA
HETATM    2  C2          0      23.148  93.488  40.902  1.00  0.00     0.201 C 
HETATM    3  C3          0      23.211  94.829  41.243  1.00  0.00     0.067 C 
HETATM    4  C4          0      22.743  95.292  42.467  1.00  0.00     0.103 C 
HETATM    5  O13         0      22.210  94.427  43.312  1.00  0.00    -0.307 OA
HETATM    6  C14         0      22.159  93.139  43.054  1.00  0.00     0.107 C 
HETATM    7  C15         0      21.982  92.199  44.058  1.00  0.00     0.049 C 
HETATM    8  C16         0      22.183  90.844  43.823  1.00  0.00     0.093 C 
HETATM    9  C18         0      22.036  90.451  42.498  1.00  0.00     0.048 C 
HETATM   10  C19         0      22.160  91.375  41.470  1.00  0.00     0.096 C 
HETATM   11  C21         0      22.413  92.687  41.763  1.00  0.00     0.084 C 
ENDROOT
BRANCH  10  12
HETATM   12  O20         0      22.446  90.927  40.184  1.00  0.00    -0.359 OA
HETATM   13  H20         0      22.577  89.995  40.055  1.00  0.00     0.218 HD
ENDBRANCH  10  12
BRANCH   4  14
HETATM   14  C5          0      23.355  96.511  43.000  1.00  0.00     0.025 C 
HETATM   15  C6          0      23.415  96.791  44.357  1.00  0.00     0.004 C 
HETATM   16  C7          0      24.570  97.398  44.840  1.00  0.00     0.026 C 
HETATM   17  C8          0      25.576  97.835  43.986  1.00  0.00     0.112 C 
HETATM   18  C10         0      25.163  98.088  42.685  1.00  0.00     0.112 C 
HETATM   19  C12         0      24.055  97.404  42.199  1.00  0.00     0.028 C 
BRANCH  17  20
HETATM   20  O9          0      26.903  97.801  44.378  1.00  0.00    -0.357 OA
HETATM   21  H9          0      27.375  97.000  44.576  1.00  0.00     0.218 HD
ENDBRANCH  17  20
BRANCH  18  22
HETATM   22  O11         0      26.079  98.703  41.843  1.00  0.00    -0.357 OA
HETATM   23  H11         0      26.032  99.650  41.774  1.00  0.00     0.218 HD
ENDBRANCH  18  22
ENDBRANCH   4  14
BRANCH   8  24
HETATM   24  O17         0      22.808  90.024  44.769  1.00  0.00    -0.359 OA
HETATM   25  H17         0      22.318  89.603  45.465  1.00  0.00     0.218 HD
ENDBRANCH   8  24
TORSDOF 5
ENDMDL
MODEL 8
REMARK VINA RESULT:      -0.0     10.054     12.569
REMARK  5 active torsions:
REMARK  status: ('A' for Active; 'I' for Inactive)
REMARK    1  A    between atoms: C4_4  and  C5_5 
REMARK    2  A    between atoms: C8_8  and  O9_9 
REMARK    3  A    between atoms: C10_11  and  O11_12 
REMARK    4  A    between atoms: C16_18  and  O17_19 
REMARK    5  A    between atoms: C19_22  and  O20_23 
ROOT
HETATM    1  O1          0      24.043  93.620  35.404  1.00  0.00    -0.286 OA
HETATM    2  C2          0      23.393  92.983  36.278  1.00  0.00     0.201 C 
HETATM    3  C3          0      22.549  91.931  35.967  1.00  0.00     0.067 C 
HETATM    4  C4          0      21.766  91.314  36.936  1.00  0.00     0.103 C 
HETATM    5  O13         0      21.852  91.736  38.185  1.00  0.00    -0.307 OA
HETATM    6  C14         0      22.609  92.755  38.528  1.00  0.00     0.107 C 
HETATM    7  C15         0      22.410  93.447  39.714  1.00  0.00     0.049 C 
HETATM    8  C16         0      23.035  94.665  39.952  1.00  0.00     0.093 C 
HETATM    9  C18         0      24.211  94.870  39.241  1.00  0.00     0.048 C 
HETATM   10  C19         0      24.464  94.160  38.076  1.00  0.00     0.096 C 
HETATM   11  C21         0      23.556  93.239  37.631  1.00  0.00     0.084 C 
ENDROOT
BRANCH  10  12
HETATM   12  O20         0      25.388  94.659  37.162  1.00  0.00    -0.359 OA
HETATM   13  H20         0      26.310  94.513  37.336  1.00  0.00     0.218 HD
ENDBRANCH  10  12
BRANCH   4  14
HETATM   14  C5          0      20.523  90.681  36.490  1.00  0.00     0.025 C 
HETATM   15  C6          0      19.423  90.519  37.318  1.00  0.00     0.004 C 
HETATM   16  C7          0      18.162  90.697  36.757  1.00  0.00     0.026 C 
HETATM   17  C8          0      17.993  90.897  35.392  1.00  0.00     0.112 C 
HETATM   18  C10         0      19.031  90.420  34.603  1.00  0.00     0.112 C 
HETATM   19  C12         0      20.300  90.332  35.164  1.00  0.00     0.028 C 
BRANCH  17  20
HETATM   20  O9          0      16.970  91.696  34.913  1.00  0.00    -0.357 OA
HETATM   21  H9          0      16.556  91.573  34.067  1.00  0.00     0.218 HD
ENDBRANCH  17  20
BRANCH  18  22
HETATM   22  O11         0      18.830  90.422  33.230  1.00  0.00    -0.357 OA
HETATM   23  H11         0      19.372  89.835  32.715  1.00  0.00     0.218 HD
ENDBRANCH  18  22
ENDBRANCH   4  14
BRANCH   8  24
HETATM   24  O17         0      22.363  95.719  40.582  1.00  0.00    -0.359 OA
HETATM   25  H17         0      21.965  96.424  40.086  1.00  0.00     0.218 HD
ENDBRANCH   8  24
TORSDOF 5
ENDMDL
MODEL 9
REMARK VINA RESULT:      -0.0     10.212     12.422
REMARK  5 active torsions:
REMARK  status: ('A' for Active; 'I' for Inactive)
REMARK    1  A    between atoms: C4_4  and  C5_5 
REMARK    2  A    between atoms: C8_8  and  O9_9 
REMARK    3  A    between atoms: C10_11  and  O11_12 
REMARK    4  A    between atoms: C16_18  and  O17_19 
REMARK    5  A    between atoms: C19_22  and  O20_23 
ROOT
HETATM    1  O1          0      16.641  90.778  41.341  1.00  0.00    -0.286 OA
HETATM    2  C2          0      16.457  89.862  40.492  1.00  0.00     0.201 C 
HETATM    3  C3          0      17.398  88.881  40.231  1.00  0.00     0.067 C 
HETATM    4  C4          0      17.213  87.945  39.220  1.00  0.00     0.103 C 
HETATM    5  O13         0      16.100  87.990  38.509  1.00  0.00    -0.307 OA
HETATM    6  C14         0      15.191  88.923  38.691  1.00  0.00     0.107 C 
HETATM    7  C15         0      14.244  89.220  37.722  1.00  0.00     0.049 C 
HETATM    8  C16         0      13.458  90.363  37.807  1.00  0.00     0.093 C 
HETATM    9  C18         0      13.287  90.863  39.093  1.00  0.00     0.048 C 
HETATM   10  C19         0      14.190  90.547  40.099  1.00  0.00     0.096 C 
HETATM   11  C21         0      15.249  89.724  39.827  1.00  0.00     0.084 C 
ENDROOT
BRANCH  10  12
HETATM   12  O20         0      14.271  91.365  41.221  1.00  0.00    -0.359 OA
HETATM   13  H20         0      13.462  91.610  41.653  1.00  0.00     0.218 HD
ENDBRANCH  10  12
BRANCH   4  14
HETATM   14  C5          0      18.414  87.370  38.612  1.00  0.00     0.025 C 
HETATM   15  C6          0      18.440  86.882  37.313  1.00  0.00     0.004 C 
HETATM   16  C7          0      19.588  87.112  36.561  1.00  0.00     0.026 C 
HETATM   17  C8          0      20.723  87.687  37.121  1.00  0.00     0.112 C 
HETATM   18  C10         0      20.824  87.549  38.499  1.00  0.00     0.112 C 
HETATM   19  C12         0      19.655  87.406  39.235  1.00  0.00     0.028 C 
BRANCH  17  20
HETATM   20  O9          0      21.549  88.504  36.368  1.00  0.00    -0.357 OA
HETATM   21  H9          0      22.276  88.997  36.730  1.00  0.00     0.218 HD
ENDBRANCH  17  20
BRANCH  18  22
HETATM   22  O11         0      22.022  87.935  39.083  1.00  0.00    -0.357 OA
HETATM   23  H11         0      22.795  87.432  38.853  1.00  0.00     0.218 HD
ENDBRANCH  18  22
ENDBRANCH   4  14
BRANCH   8  24
HETATM   24  O17         0      13.157  91.127  36.675  1.00  0.00    -0.359 OA
HETATM   25  H17         0      12.819  92.012  36.745  1.00  0.00     0.218 HD
ENDBRANCH   8  24
TORSDOF 5
ENDMDL
