MODEL 1
REMARK VINA RESULT:      -4.3      0.000      0.000
REMARK  5 active torsions:
REMARK  status: ('A' for Active; 'I' for Inactive)
REMARK    1  A    between atoms: C4_4  and  C5_5 
REMARK    2  A    between atoms: C8_8  and  O9_9 
REMARK    3  A    between atoms: C10_11  and  O11_12 
REMARK    4  A    between atoms: C16_18  and  O17_19 
REMARK    5  A    between atoms: C19_22  and  O20_23 
ROOT
HETATM    1  O1          0      32.031  19.967   3.326  1.00  0.00    -0.286 OA
HETATM    2  C2          0      31.313  18.931   3.358  1.00  0.00     0.201 C 
HETATM    3  C3          0      29.994  18.945   3.779  1.00  0.00     0.067 C 
HETATM    4  C4          0      29.256  17.773   3.902  1.00  0.00     0.103 C 
HETATM    5  O13         0      29.830  16.625   3.588  1.00  0.00    -0.307 OA
HETATM    6  C14         0      31.090  16.552   3.219  1.00  0.00     0.107 C 
HETATM    7  C15         0      31.801  15.362   3.278  1.00  0.00     0.049 C 
HETATM    8  C16         0      33.183  15.339   3.134  1.00  0.00     0.093 C 
HETATM    9  C18         0      33.718  16.409   2.427  1.00  0.00     0.048 C 
HETATM   10  C19         0      33.013  17.599   2.310  1.00  0.00     0.096 C 
HETATM   11  C21         0      31.775  17.714   2.880  1.00  0.00     0.084 C 
ENDROOT
BRANCH  10  12
HETATM   12  O20         0      33.700  18.769   2.001  1.00  0.00    -0.359 OA
HETATM   13  H20         0      33.205  19.494   1.638  1.00  0.00     0.218 HD
ENDBRANCH  10  12
BRANCH   4  14
HETATM   14  C5          0      28.160  17.770   4.873  1.00  0.00     0.025 C 
HETATM   15  C6          0      28.249  17.140   6.106  1.00  0.00     0.004 C 
HETATM   16  C7          0      27.659  17.771   7.196  1.00  0.00     0.026 C 
HETATM   17  C8          0      26.891  18.921   7.046  1.00  0.00     0.112 C 
HETATM   18  C10         0      26.349  19.095   5.779  1.00  0.00     0.112 C 
HETATM   19  C12         0      27.007  18.524   4.696  1.00  0.00     0.028 C 
BRANCH  17  20
HETATM   20  O9          0      26.868  19.892   8.031  1.00  0.00    -0.357 OA
HETATM   21  H9          0      27.545  20.550   8.140  1.00  0.00     0.218 HD
ENDBRANCH  17  20
BRANCH  18  22
HETATM   22  O11         0      25.425  20.118   5.626  1.00  0.00    -0.357 OA
HETATM   23  H11         0      25.707  20.882   5.136  1.00  0.00     0.218 HD
ENDBRANCH  18  22
ENDBRANCH   4  14
BRANCH   8  24
HETATM   24  O17         0      33.984  14.502   3.919  1.00  0.00    -0.359 OA
HETATM   25  H17         0      34.483  13.788   3.540  1.00  0.00     0.218 HD
ENDBRANCH   8  24
TORSDOF 5
ENDMDL
MODEL 2
REMARK VINA RESULT:      -4.2      2.004      7.044
REMARK  5 active torsions:
REMARK  status: ('A' for Active; 'I' for Inactive)
REMARK    1  A    between atoms: C4_4  and  C5_5 
REMARK    2  A    between atoms: C8_8  and  O9_9 
REMARK    3  A    between atoms: C10_11  and  O11_12 
REMARK    4  A    between atoms: C16_18  and  O17_19 
REMARK    5  A    between atoms: C19_22  and  O20_23 
ROOT
HETATM    1  O1          0      26.643  19.230   7.875  1.00  0.00    -0.286 OA
HETATM    2  C2          0      26.960  18.869   6.708  1.00  0.00     0.201 C 
HETATM    3  C3          0      28.274  18.787   6.279  1.00  0.00     0.067 C 
HETATM    4  C4          0      28.592  18.486   4.960  1.00  0.00     0.103 C 
HETATM    5  O13         0      27.609  18.255   4.107  1.00  0.00    -0.307 OA
HETATM    6  C14         0      26.345  18.356   4.453  1.00  0.00     0.107 C 
HETATM    7  C15         0      25.339  18.512   3.510  1.00  0.00     0.049 C 
HETATM    8  C16         0      24.050  18.872   3.883  1.00  0.00     0.093 C 
HETATM    9  C18         0      23.704  18.547   5.190  1.00  0.00     0.048 C 
HETATM   10  C19         0      24.687  18.339   6.148  1.00  0.00     0.096 C 
HETATM   11  C21         0      26.007  18.437   5.800  1.00  0.00     0.084 C 
ENDROOT
BRANCH  10  12
HETATM   12  O20         0      24.358  18.450   7.495  1.00  0.00    -0.359 OA
HETATM   13  H20         0      24.897  19.010   8.040  1.00  0.00     0.218 HD
ENDBRANCH  10  12
BRANCH   4  14
HETATM   14  C5          0      29.867  18.991   4.446  1.00  0.00     0.025 C 
HETATM   15  C6          0      31.053  18.904   5.160  1.00  0.00     0.004 C 
HETATM   16  C7          0      32.214  18.622   4.449  1.00  0.00     0.026 C 
HETATM   17  C8          0      32.222  18.561   3.060  1.00  0.00     0.112 C 
HETATM   18  C10         0      31.196  19.263   2.443  1.00  0.00     0.112 C 
HETATM   19  C12         0      30.013  19.458   3.146  1.00  0.00     0.028 C 
BRANCH  17  20
HETATM   20  O9          0      33.067  17.691   2.393  1.00  0.00    -0.357 OA
HETATM   21  H9          0      33.885  17.368   2.754  1.00  0.00     0.218 HD
ENDBRANCH  17  20
BRANCH  18  22
HETATM   22  O11         0      31.264  19.393   1.063  1.00  0.00    -0.357 OA
HETATM   23  H11         0      30.621  18.914   0.554  1.00  0.00     0.218 HD
ENDBRANCH  18  22
ENDBRANCH   4  14
BRANCH   8  24
HETATM   24  O17         0      23.298  19.778   3.127  1.00  0.00    -0.359 OA
HETATM   25  H17         0      23.711  20.422   2.564  1.00  0.00     0.218 HD
ENDBRANCH   8  24
TORSDOF 5
ENDMDL
MODEL 3
REMARK VINA RESULT:      -4.2      1.987      6.648
REMARK  5 active torsions:
REMARK  status: ('A' for Active; 'I' for Inactive)
REMARK    1  A    between atoms: C4_4  and  C5_5 
REMARK    2  A    between atoms: C8_8  and  O9_9 
REMARK    3  A    between atoms: C10_11  and  O11_12 
REMARK    4  A    between atoms: C16_18  and  O17_19 
REMARK    5  A    between atoms: C19_22  and  O20_23 
ROOT
HETATM    1  O1          0      26.872  19.830   2.945  1.00  0.00    -0.286 OA
HETATM    2  C2          0      27.723  19.462   3.800  1.00  0.00     0.201 C 
HETATM    3  C3          0      29.082  19.426   3.539  1.00  0.00     0.067 C 
HETATM    4  C4          0      29.989  18.919   4.463  1.00  0.00     0.103 C 
HETATM    5  O13         0      29.534  18.482   5.624  1.00  0.00    -0.307 OA
HETATM    6  C14         0      28.250  18.458   5.908  1.00  0.00     0.107 C 
HETATM    7  C15         0      27.740  17.656   6.919  1.00  0.00     0.049 C 
HETATM    8  C16         0      26.373  17.440   7.047  1.00  0.00     0.093 C 
HETATM    9  C18         0      25.568  18.433   6.504  1.00  0.00     0.048 C 
HETATM   10  C19         0      26.061  19.284   5.524  1.00  0.00     0.096 C 
HETATM   11  C21         0      27.356  19.154   5.102  1.00  0.00     0.084 C 
ENDROOT
BRANCH  10  12
HETATM   12  O20         0      25.169  19.957   4.695  1.00  0.00    -0.359 OA
HETATM   13  H20         0      24.375  20.303   5.084  1.00  0.00     0.218 HD
ENDBRANCH  10  12
BRANCH   4  14
HETATM   14  C5          0      31.238  18.362   3.940  1.00  0.00     0.025 C 
HETATM   15  C6          0      31.273  17.284   3.068  1.00  0.00     0.004 C 
HETATM   16  C7          0      32.222  17.308   2.052  1.00  0.00     0.026 C 
HETATM   17  C8          0      33.191  18.303   1.982  1.00  0.00     0.112 C 
HETATM   18  C10         0      33.467  18.929   3.190  1.00  0.00     0.112 C 
HETATM   19  C12         0      32.470  18.965   4.158  1.00  0.00     0.028 C 
BRANCH  17  20
HETATM   20  O9          0      33.663  18.749   0.760  1.00  0.00    -0.357 OA
HETATM   21  H9          0      33.230  18.576  -0.068  1.00  0.00     0.218 HD
ENDBRANCH  17  20
BRANCH  18  22
HETATM   22  O11         0      34.553  19.793   3.217  1.00  0.00    -0.357 OA
HETATM   23  H11         0      34.533  20.528   2.614  1.00  0.00     0.218 HD
ENDBRANCH  18  22
ENDBRANCH   4  14
BRANCH   8  24
HETATM   24  O17         0      25.863  16.181   7.384  1.00  0.00    -0.359 OA
HETATM   25  H17         0      24.961  16.066   7.659  1.00  0.00     0.218 HD
ENDBRANCH   8  24
TORSDOF 5
ENDMDL
MODEL 4
REMARK VINA RESULT:      -4.1      3.190      4.728
REMARK  5 active torsions:
REMARK  status: ('A' for Active; 'I' for Inactive)
REMARK    1  A    between atoms: C4_4  and  C5_5 
REMARK    2  A    between atoms: C8_8  and  O9_9 
REMARK    3  A    between atoms: C10_11  and  O11_12 
REMARK    4  A    between atoms: C16_18  and  O17_19 
REMARK    5  A    between atoms: C19_22  and  O20_23 
ROOT
HETATM    1  O1          0      31.629  14.560   4.593  1.00  0.00    -0.286 OA
HETATM    2  C2          0      30.518  14.803   5.138  1.00  0.00     0.201 C 
HETATM    3  C3          0      29.746  15.904   4.808  1.00  0.00     0.067 C 
HETATM    4  C4          0      28.575  16.205   5.495  1.00  0.00     0.103 C 
HETATM    5  O13         0      28.188  15.403   6.471  1.00  0.00    -0.307 OA
HETATM    6  C14         0      28.903  14.365   6.849  1.00  0.00     0.107 C 
HETATM    7  C15         0      28.728  13.770   8.090  1.00  0.00     0.049 C 
HETATM    8  C16         0      29.645  12.850   8.584  1.00  0.00     0.093 C 
HETATM    9  C18         0      30.390  12.186   7.617  1.00  0.00     0.048 C 
HETATM   10  C19         0      30.546  12.731   6.349  1.00  0.00     0.096 C 
HETATM   11  C21         0      29.947  13.923   6.044  1.00  0.00     0.084 C 
ENDROOT
BRANCH  10  12
HETATM   12  O20         0      31.609  12.313   5.555  1.00  0.00    -0.359 OA
HETATM   13  H20         0      31.710  12.712   4.700  1.00  0.00     0.218 HD
ENDBRANCH  10  12
BRANCH   4  14
HETATM   14  C5          0      28.161  17.609   5.531  1.00  0.00     0.025 C 
HETATM   15  C6          0      27.664  18.275   4.420  1.00  0.00     0.004 C 
HETATM   16  C7          0      26.624  19.177   4.621  1.00  0.00     0.026 C 
HETATM   17  C8          0      26.182  19.507   5.898  1.00  0.00     0.112 C 
HETATM   18  C10         0      27.115  19.303   6.905  1.00  0.00     0.112 C 
HETATM   19  C12         0      28.093  18.335   6.713  1.00  0.00     0.028 C 
BRANCH  17  20
HETATM   20  O9          0      24.851  19.807   6.131  1.00  0.00    -0.357 OA
HETATM   21  H9          0      24.127  19.302   5.780  1.00  0.00     0.218 HD
ENDBRANCH  17  20
BRANCH  18  22
HETATM   22  O11         0      26.796  19.791   8.165  1.00  0.00    -0.357 OA
HETATM   23  H11         0      25.901  20.081   8.300  1.00  0.00     0.218 HD
ENDBRANCH  18  22
ENDBRANCH   4  14
BRANCH   8  24
HETATM   24  O17         0      30.020  12.846   9.932  1.00  0.00    -0.359 OA
HETATM   25  H17         0      30.515  13.560  10.315  1.00  0.00     0.218 HD
ENDBRANCH   8  24
TORSDOF 5
ENDMDL
MODEL 5
REMARK VINA RESULT:      -4.0      1.563      2.667
REMARK  5 active torsions:
REMARK  status: ('A' for Active; 'I' for Inactive)
REMARK    1  A    between atoms: C4_4  and  C5_5 
REMARK    2  A    between atoms: C8_8  and  O9_9 
REMARK    3  A    between atoms: C10_11  and  O11_12 
REMARK    4  A    between atoms: C16_18  and  O17_19 
REMARK    5  A    between atoms: C19_22  and  O20_23 
ROOT
HETATM    1  O1          0      29.879  15.864   1.485  1.00  0.00    -0.286 OA
HETATM    2  C2          0      29.915  16.437   2.608  1.00  0.00     0.201 C 
HETATM    3  C3          0      28.781  16.673   3.367  1.00  0.00     0.067 C 
HETATM    4  C4          0      28.835  17.397   4.553  1.00  0.00     0.103 C 
HETATM    5  O13         0      30.005  17.849   4.967  1.00  0.00    -0.307 OA
HETATM    6  C14         0      31.106  17.686   4.266  1.00  0.00     0.107 C 
HETATM    7  C15         0      32.228  18.475   4.473  1.00  0.00     0.049 C 
HETATM    8  C16         0      33.287  18.475   3.573  1.00  0.00     0.093 C 
HETATM    9  C18         0      33.406  17.321   2.808  1.00  0.00     0.048 C 
HETATM   10  C19         0      32.315  16.484   2.619  1.00  0.00     0.096 C 
HETATM   11  C21         0      31.117  16.788   3.204  1.00  0.00     0.084 C 
ENDROOT
BRANCH  10  12
HETATM   12  O20         0      32.310  15.607   1.539  1.00  0.00    -0.359 OA
HETATM   13  H20         0      33.146  15.289   1.219  1.00  0.00     0.218 HD
ENDBRANCH  10  12
BRANCH   4  14
HETATM   14  C5          0      27.621  18.105   4.961  1.00  0.00     0.025 C 
HETATM   15  C6          0      26.359  17.763   4.497  1.00  0.00     0.004 C 
HETATM   16  C7          0      25.300  17.834   5.397  1.00  0.00     0.026 C 
HETATM   17  C8          0      25.464  18.356   6.676  1.00  0.00     0.112 C 
HETATM   18  C10         0      26.540  19.222   6.815  1.00  0.00     0.112 C 
HETATM   19  C12         0      27.623  19.073   5.957  1.00  0.00     0.028 C 
BRANCH  17  20
HETATM   20  O9          0      24.729  17.865   7.741  1.00  0.00    -0.357 OA
HETATM   21  H9          0      24.089  17.167   7.663  1.00  0.00     0.218 HD
ENDBRANCH  17  20
BRANCH  18  22
HETATM   22  O11         0      26.638  19.914   8.014  1.00  0.00    -0.357 OA
HETATM   23  H11         0      26.948  20.811   7.968  1.00  0.00     0.218 HD
ENDBRANCH  18  22
ENDBRANCH   4  14
BRANCH   8  24
HETATM   24  O17         0      33.954  19.657   3.231  1.00  0.00    -0.359 OA
HETATM   25  H17         0      34.566  19.692   2.505  1.00  0.00     0.218 HD
ENDBRANCH   8  24
TORSDOF 5
ENDMDL
MODEL 6
REMARK VINA RESULT:      -4.0      1.769      6.771
REMARK  5 active torsions:
REMARK  status: ('A' for Active; 'I' for Inactive)
REMARK    1  A    between atoms: C4_4  and  C5_5 
REMARK    2  A    between atoms: C8_8  and  O9_9 
REMARK    3  A    between atoms: C10_11  and  O11_12 
REMARK    4  A    between atoms: C16_18  and  O17_19 
REMARK    5  A    between atoms: C19_22  and  O20_23 
ROOT
HETATM    1  O1          0      29.140  14.918   5.961  1.00  0.00    -0.286 OA
HETATM    2  C2          0      29.027  15.998   5.319  1.00  0.00     0.201 C 
HETATM    3  C3          0      29.886  16.355   4.294  1.00  0.00     0.067 C 
HETATM    4  C4          0      29.802  17.596   3.672  1.00  0.00     0.103 C 
HETATM    5  O13         0      28.863  18.439   4.063  1.00  0.00    -0.307 OA
HETATM    6  C14         0      28.046  18.165   5.057  1.00  0.00     0.107 C 
HETATM    7  C15         0      27.349  19.161   5.726  1.00  0.00     0.049 C 
HETATM    8  C16         0      26.694  18.902   6.924  1.00  0.00     0.093 C 
HETATM    9  C18         0      26.328  17.576   7.118  1.00  0.00     0.048 C 
HETATM   10  C19         0      26.973  16.558   6.430  1.00  0.00     0.096 C 
HETATM   11  C21         0      27.966  16.864   5.540  1.00  0.00     0.084 C 
ENDROOT
BRANCH  10  12
HETATM   12  O20         0      26.921  15.260   6.929  1.00  0.00    -0.359 OA
HETATM   13  H20         0      26.524  15.126   7.781  1.00  0.00     0.218 HD
ENDBRANCH  10  12
BRANCH   4  14
HETATM   14  C5          0      31.028  18.131   3.078  1.00  0.00     0.025 C 
HETATM   15  C6          0      31.761  19.154   3.661  1.00  0.00     0.004 C 
HETATM   16  C7          0      33.148  19.077   3.586  1.00  0.00     0.026 C 
HETATM   17  C8          0      33.784  18.089   2.842  1.00  0.00     0.112 C 
HETATM   18  C10         0      33.012  17.540   1.826  1.00  0.00     0.112 C 
HETATM   19  C12         0      31.630  17.555   1.967  1.00  0.00     0.028 C 
BRANCH  17  20
HETATM   20  O9          0      35.004  17.573   3.244  1.00  0.00    -0.357 OA
HETATM   21  H9          0      35.568  17.054   2.683  1.00  0.00     0.218 HD
ENDBRANCH  17  20
BRANCH  18  22
HETATM   22  O11         0      33.655  16.690   0.937  1.00  0.00    -0.357 OA
HETATM   23  H11         0      33.104  16.177   0.358  1.00  0.00     0.218 HD
ENDBRANCH  18  22
ENDBRANCH   4  14
BRANCH   8  24
HETATM   24  O17         0      26.710  19.823   7.977  1.00  0.00    -0.359 OA
HETATM   25  H17         0      26.362  20.702   7.878  1.00  0.00     0.218 HD
ENDBRANCH   8  24
TORSDOF 5
ENDMDL
MODEL 7
REMARK VINA RESULT:      -4.0      2.156      6.876
REMARK  5 active torsions:
REMARK  status: ('A' for Active; 'I' for Inactive)
REMARK    1  A    between atoms: C4_4  and  C5_5 
REMARK    2  A    between atoms: C8_8  and  O9_9 
REMARK    3  A    between atoms: C10_11  and  O11_12 
REMARK    4  A    between atoms: C16_18  and  O17_19 
REMARK    5  A    between atoms: C19_22  and  O20_23 
ROOT
HETATM    1  O1          0      25.116  20.033   2.772  1.00  0.00    -0.286 OA
HETATM    2  C2          0      25.962  19.748   3.662  1.00  0.00     0.201 C 
HETATM    3  C3          0      27.328  19.795   3.441  1.00  0.00     0.067 C 
HETATM    4  C4          0      28.237  19.377   4.407  1.00  0.00     0.103 C 
HETATM    5  O13         0      27.777  18.944   5.567  1.00  0.00    -0.307 OA
HETATM    6  C14         0      26.489  18.844   5.815  1.00  0.00     0.107 C 
HETATM    7  C15         0      26.001  18.040   6.834  1.00  0.00     0.049 C 
HETATM    8  C16         0      24.648  17.737   6.930  1.00  0.00     0.093 C 
HETATM    9  C18         0      23.797  18.659   6.333  1.00  0.00     0.048 C 
HETATM   10  C19         0      24.264  19.511   5.342  1.00  0.00     0.096 C 
HETATM   11  C21         0      25.577  19.455   4.961  1.00  0.00     0.084 C 
ENDROOT
BRANCH  10  12
HETATM   12  O20         0      23.355  20.099   4.467  1.00  0.00    -0.359 OA
HETATM   13  H20         0      22.959  19.549   3.802  1.00  0.00     0.218 HD
ENDBRANCH  10  12
BRANCH   4  14
HETATM   14  C5          0      29.535  18.889   3.938  1.00  0.00     0.025 C 
HETATM   15  C6          0      30.638  19.716   3.782  1.00  0.00     0.004 C 
HETATM   16  C7          0      31.883  19.202   4.130  1.00  0.00     0.026 C 
HETATM   17  C8          0      32.047  17.869   4.493  1.00  0.00     0.112 C 
HETATM   18  C10         0      31.063  17.014   4.017  1.00  0.00     0.112 C 
HETATM   19  C12         0      29.802  17.537   3.757  1.00  0.00     0.028 C 
BRANCH  17  20
HETATM   20  O9          0      33.000  17.501   5.426  1.00  0.00    -0.357 OA
HETATM   21  H9          0      33.903  17.298   5.207  1.00  0.00     0.218 HD
ENDBRANCH  17  20
BRANCH  18  22
HETATM   22  O11         0      31.276  15.653   4.188  1.00  0.00    -0.357 OA
HETATM   23  H11         0      31.909  15.397   4.848  1.00  0.00     0.218 HD
ENDBRANCH  18  22
ENDBRANCH   4  14
BRANCH   8  24
HETATM   24  O17         0      24.211  16.458   7.292  1.00  0.00    -0.359 OA
HETATM   25  H17         0      24.697  15.678   7.052  1.00  0.00     0.218 HD
ENDBRANCH   8  24
TORSDOF 5
ENDMDL
MODEL 8
REMARK VINA RESULT:      -4.0      3.826      8.637
REMARK  5 active torsions:
REMARK  status: ('A' for Active; 'I' for Inactive)
REMARK    1  A    between atoms: C4_4  and  C5_5 
REMARK    2  A    between atoms: C8_8  and  O9_9 
REMARK    3  A    between atoms: C10_11  and  O11_12 
REMARK    4  A    between atoms: C16_18  and  O17_19 
REMARK    5  A    between atoms: C19_22  and  O20_23 
ROOT
HETATM    1  O1          0      22.994  18.587   2.240  1.00  0.00    -0.286 OA
HETATM    2  C2          0      23.249  19.124   3.353  1.00  0.00     0.201 C 
HETATM    3  C3          0      24.527  19.501   3.729  1.00  0.00     0.067 C 
HETATM    4  C4          0      24.796  19.996   5.000  1.00  0.00     0.103 C 
HETATM    5  O13         0      23.798  20.124   5.856  1.00  0.00    -0.307 OA
HETATM    6  C14         0      22.573  19.746   5.563  1.00  0.00     0.107 C 
HETATM    7  C15         0      21.628  19.502   6.548  1.00  0.00     0.049 C 
HETATM    8  C16         0      20.428  18.864   6.256  1.00  0.00     0.093 C 
HETATM    9  C18         0      20.011  18.976   4.935  1.00  0.00     0.048 C 
HETATM   10  C19         0      20.923  19.266   3.929  1.00  0.00     0.096 C 
HETATM   11  C21         0      22.241  19.460   4.243  1.00  0.00     0.084 C 
ENDROOT
BRANCH  10  12
HETATM   12  O20         0      20.606  18.951   2.611  1.00  0.00    -0.359 OA
HETATM   13  H20         0      20.451  18.039   2.396  1.00  0.00     0.218 HD
ENDBRANCH  10  12
BRANCH   4  14
HETATM   14  C5          0      26.151  19.802   5.521  1.00  0.00     0.025 C 
HETATM   15  C6          0      26.453  19.867   6.873  1.00  0.00     0.004 C 
HETATM   16  C7          0      27.391  18.967   7.368  1.00  0.00     0.026 C 
HETATM   17  C8          0      28.106  18.121   6.527  1.00  0.00     0.112 C 
HETATM   18  C10         0      28.204  18.559   5.213  1.00  0.00     0.112 C 
HETATM   19  C12         0      27.206  19.390   4.717  1.00  0.00     0.028 C 
BRANCH  17  20
HETATM   20  O9          0      28.487  16.859   6.947  1.00  0.00    -0.357 OA
HETATM   21  H9          0      29.391  16.585   7.041  1.00  0.00     0.218 HD
ENDBRANCH  17  20
BRANCH  18  22
HETATM   22  O11         0      29.060  17.854   4.378  1.00  0.00    -0.357 OA
HETATM   23  H11         0      28.675  17.452   3.608  1.00  0.00     0.218 HD
ENDBRANCH  18  22
ENDBRANCH   4  14
BRANCH   8  24
HETATM   24  O17         0      19.875  17.917   7.124  1.00  0.00    -0.359 OA
HETATM   25  H17         0      20.386  17.191   7.462  1.00  0.00     0.218 HD
ENDBRANCH   8  24
TORSDOF 5
ENDMDL
MODEL 9
REMARK VINA RESULT:      -3.9      2.427      6.847
REMARK  5 active torsions:
REMARK  status: ('A' for Active; 'I' for Inactive)
REMARK    1  A    between atoms: C4_4  and  C5_5 
REMARK    2  A    between atoms: C8_8  and  O9_9 
REMARK    3  A    between atoms: C10_11  and  O11_12 
REMARK    4  A    between atoms: C16_18  and  O17_19 
REMARK    5  A    between atoms: C19_22  and  O20_23 
ROOT
HETATM    1  O1          0      25.179  19.527   5.551  1.00  0.00    -0.286 OA
HETATM    2  C2          0      26.148  18.794   5.890  1.00  0.00     0.201 C 
HETATM    3  C3          0      27.451  19.044   5.495  1.00  0.00     0.067 C 
HETATM    4  C4          0      28.485  18.164   5.797  1.00  0.00     0.103 C 
HETATM    5  O13         0      28.210  17.077   6.495  1.00  0.00    -0.307 OA
HETATM    6  C14         0      26.984  16.774   6.862  1.00  0.00     0.107 C 
HETATM    7  C15         0      26.629  15.483   7.228  1.00  0.00     0.049 C 
HETATM    8  C16         0      25.296  15.113   7.366  1.00  0.00     0.093 C 
HETATM    9  C18         0      24.424  16.158   7.647  1.00  0.00     0.048 C 
HETATM   10  C19         0      24.767  17.467   7.337  1.00  0.00     0.096 C 
HETATM   11  C21         0      25.982  17.733   6.767  1.00  0.00     0.084 C 
ENDROOT
BRANCH  10  12
HETATM   12  O20         0      23.763  18.422   7.210  1.00  0.00    -0.359 OA
HETATM   13  H20         0      23.321  18.711   7.999  1.00  0.00     0.218 HD
ENDBRANCH  10  12
BRANCH   4  14
HETATM   14  C5          0      29.636  18.149   4.892  1.00  0.00     0.025 C 
HETATM   15  C6          0      30.723  18.997   5.044  1.00  0.00     0.004 C 
HETATM   16  C7          0      31.987  18.480   4.778  1.00  0.00     0.026 C 
HETATM   17  C8          0      32.157  17.205   4.250  1.00  0.00     0.112 C 
HETATM   18  C10         0      31.057  16.711   3.562  1.00  0.00     0.112 C 
HETATM   19  C12         0      29.796  17.183   3.907  1.00  0.00     0.028 C 
BRANCH  17  20
HETATM   20  O9          0      33.260  16.440   4.584  1.00  0.00    -0.357 OA
HETATM   21  H9          0      34.047  16.794   4.983  1.00  0.00     0.218 HD
ENDBRANCH  17  20
BRANCH  18  22
HETATM   22  O11         0      31.235  15.529   2.857  1.00  0.00    -0.357 OA
HETATM   23  H11         0      30.976  14.725   3.293  1.00  0.00     0.218 HD
ENDBRANCH  18  22
ENDBRANCH   4  14
BRANCH   8  24
HETATM   24  O17         0      24.836  13.868   6.926  1.00  0.00    -0.359 OA
HETATM   25  H17         0      24.366  13.277   7.503  1.00  0.00     0.218 HD
ENDBRANCH   8  24
TORSDOF 5
ENDMDL
