MODEL 1
REMARK VINA RESULT:      -5.1      0.000      0.000
REMARK  5 active torsions:
REMARK  status: ('A' for Active; 'I' for Inactive)
REMARK    1  A    between atoms: C4_4  and  C5_5 
REMARK    2  A    between atoms: C8_8  and  O9_9 
REMARK    3  A    between atoms: C10_11  and  O11_12 
REMARK    4  A    between atoms: C16_18  and  O17_19 
REMARK    5  A    between atoms: C19_22  and  O20_23 
ROOT
HETATM    1  O1          0      48.369  46.509  43.669  1.00  0.00    -0.286 OA
HETATM    2  C2          0      48.555  45.779  42.657  1.00  0.00     0.201 C 
HETATM    3  C3          0      48.412  46.243  41.361  1.00  0.00     0.067 C 
HETATM    4  C4          0      48.522  45.393  40.266  1.00  0.00     0.103 C 
HETATM    5  O13         0      48.790  44.117  40.479  1.00  0.00    -0.307 OA
HETATM    6  C14         0      48.899  43.617  41.690  1.00  0.00     0.107 C 
HETATM    7  C15         0      48.780  42.257  41.934  1.00  0.00     0.049 C 
HETATM    8  C16         0      48.641  41.764  43.226  1.00  0.00     0.093 C 
HETATM    9  C18         0      49.149  42.585  44.225  1.00  0.00     0.048 C 
HETATM   10  C19         0      49.325  43.944  44.000  1.00  0.00     0.096 C 
HETATM   11  C21         0      49.012  44.476  42.779  1.00  0.00     0.084 C 
ENDROOT
BRANCH  10  12
HETATM   12  O20         0      49.406  44.809  45.087  1.00  0.00    -0.359 OA
HETATM   13  H20         0      48.769  44.709  45.784  1.00  0.00     0.218 HD
ENDBRANCH  10  12
BRANCH   4  14
HETATM   14  C5          0      47.796  45.768  39.051  1.00  0.00     0.025 C 
HETATM   15  C6          0      47.808  47.056  38.536  1.00  0.00     0.004 C 
HETATM   16  C7          0      47.850  47.196  37.152  1.00  0.00     0.026 C 
HETATM   17  C8          0      47.747  46.098  36.304  1.00  0.00     0.112 C 
HETATM   18  C10         0      47.119  44.992  36.862  1.00  0.00     0.112 C 
HETATM   19  C12         0      47.166  44.832  38.242  1.00  0.00     0.028 C 
BRANCH  17  20
HETATM   20  O9          0      48.414  46.073  35.093  1.00  0.00    -0.357 OA
HETATM   21  H9          0      49.170  46.614  34.895  1.00  0.00     0.218 HD
ENDBRANCH  17  20
BRANCH  18  22
HETATM   22  O11         0      46.821  43.941  36.007  1.00  0.00    -0.357 OA
HETATM   23  H11         0      46.011  43.471  36.168  1.00  0.00     0.218 HD
ENDBRANCH  18  22
ENDBRANCH   4  14
BRANCH   8  24
HETATM   24  O17         0      47.768  40.708  43.513  1.00  0.00    -0.359 OA
HETATM   25  H17         0      48.078  39.815  43.601  1.00  0.00     0.218 HD
ENDBRANCH   8  24
TORSDOF 5
ENDMDL
MODEL 2
REMARK VINA RESULT:      -5.1      2.664      6.288
REMARK  5 active torsions:
REMARK  status: ('A' for Active; 'I' for Inactive)
REMARK    1  A    between atoms: C4_4  and  C5_5 
REMARK    2  A    between atoms: C8_8  and  O9_9 
REMARK    3  A    between atoms: C10_11  and  O11_12 
REMARK    4  A    between atoms: C16_18  and  O17_19 
REMARK    5  A    between atoms: C19_22  and  O20_23 
ROOT
HETATM    1  O1          0      47.875  47.561  40.871  1.00  0.00    -0.286 OA
HETATM    2  C2          0      47.858  46.800  39.865  1.00  0.00     0.201 C 
HETATM    3  C3          0      48.092  45.438  39.950  1.00  0.00     0.067 C 
HETATM    4  C4          0      48.170  44.640  38.815  1.00  0.00     0.103 C 
HETATM    5  O13         0      47.994  45.200  37.631  1.00  0.00    -0.307 OA
HETATM    6  C14         0      47.806  46.494  37.492  1.00  0.00     0.107 C 
HETATM    7  C15         0      48.019  47.137  36.281  1.00  0.00     0.049 C 
HETATM    8  C16         0      48.068  48.524  36.199  1.00  0.00     0.093 C 
HETATM    9  C18         0      47.391  49.196  37.209  1.00  0.00     0.048 C 
HETATM   10  C19         0      47.120  48.567  38.416  1.00  0.00     0.096 C 
HETATM   11  C21         0      47.508  47.269  38.608  1.00  0.00     0.084 C 
ENDROOT
BRANCH  10  12
HETATM   12  O20         0      46.852  49.340  39.542  1.00  0.00    -0.359 OA
HETATM   13  H20         0      45.945  49.465  39.791  1.00  0.00     0.218 HD
ENDBRANCH  10  12
BRANCH   4  14
HETATM   14  C5          0      48.980  43.423  38.905  1.00  0.00     0.025 C 
HETATM   15  C6          0      49.980  43.255  39.852  1.00  0.00     0.004 C 
HETATM   16  C7          0      50.124  41.992  40.419  1.00  0.00     0.026 C 
HETATM   17  C8          0      49.391  40.901  39.965  1.00  0.00     0.112 C 
HETATM   18  C10         0      48.925  41.017  38.663  1.00  0.00     0.112 C 
HETATM   19  C12         0      48.708  42.290  38.150  1.00  0.00     0.028 C 
BRANCH  17  20
HETATM   20  O9          0      48.999  39.899  40.836  1.00  0.00    -0.357 OA
HETATM   21  H9          0      49.494  39.100  40.978  1.00  0.00     0.218 HD
ENDBRANCH  17  20
BRANCH  18  22
HETATM   22  O11         0      48.353  39.886  38.097  1.00  0.00    -0.357 OA
HETATM   23  H11         0      47.928  39.276  38.690  1.00  0.00     0.218 HD
ENDBRANCH  18  22
ENDBRANCH   4  14
BRANCH   8  24
HETATM   24  O17         0      48.996  49.173  35.377  1.00  0.00    -0.359 OA
HETATM   25  H17         0      49.352  48.757  34.601  1.00  0.00     0.218 HD
ENDBRANCH   8  24
TORSDOF 5
ENDMDL
MODEL 3
REMARK VINA RESULT:      -5.0      1.671      6.478
REMARK  5 active torsions:
REMARK  status: ('A' for Active; 'I' for Inactive)
REMARK    1  A    between atoms: C4_4  and  C5_5 
REMARK    2  A    between atoms: C8_8  and  O9_9 
REMARK    3  A    between atoms: C10_11  and  O11_12 
REMARK    4  A    between atoms: C16_18  and  O17_19 
REMARK    5  A    between atoms: C19_22  and  O20_23 
ROOT
HETATM    1  O1          0      48.587  48.022  40.655  1.00  0.00    -0.286 OA
HETATM    2  C2          0      48.159  46.911  40.238  1.00  0.00     0.201 C 
HETATM    3  C3          0      48.115  45.778  41.032  1.00  0.00     0.067 C 
HETATM    4  C4          0      47.735  44.543  40.519  1.00  0.00     0.103 C 
HETATM    5  O13         0      47.391  44.464  39.245  1.00  0.00    -0.307 OA
HETATM    6  C14         0      47.451  45.500  38.439  1.00  0.00     0.107 C 
HETATM    7  C15         0      47.485  45.353  37.060  1.00  0.00     0.049 C 
HETATM    8  C16         0      47.803  46.419  36.227  1.00  0.00     0.093 C 
HETATM    9  C18         0      47.557  47.677  36.765  1.00  0.00     0.048 C 
HETATM   10  C19         0      47.471  47.852  38.139  1.00  0.00     0.096 C 
HETATM   11  C21         0      47.612  46.775  38.971  1.00  0.00     0.084 C 
ENDROOT
BRANCH  10  12
HETATM   12  O20         0      47.663  49.121  38.676  1.00  0.00    -0.359 OA
HETATM   13  H20         0      47.893  49.826  38.083  1.00  0.00     0.218 HD
ENDBRANCH  10  12
BRANCH   4  14
HETATM   14  C5          0      48.267  43.351  41.181  1.00  0.00     0.025 C 
HETATM   15  C6          0      49.622  43.055  41.223  1.00  0.00     0.004 C 
HETATM   16  C7          0      50.125  42.502  42.396  1.00  0.00     0.026 C 
HETATM   17  C8          0      49.290  42.131  43.444  1.00  0.00     0.112 C 
HETATM   18  C10         0      47.976  41.874  43.075  1.00  0.00     0.112 C 
HETATM   19  C12         0      47.472  42.506  41.945  1.00  0.00     0.028 C 
BRANCH  17  20
HETATM   20  O9          0      49.714  42.228  44.758  1.00  0.00    -0.357 OA
HETATM   21  H9          0      50.607  42.065  45.037  1.00  0.00     0.218 HD
ENDBRANCH  17  20
BRANCH  18  22
HETATM   22  O11         0      47.149  41.319  44.041  1.00  0.00    -0.357 OA
HETATM   23  H11         0      46.544  40.644  43.754  1.00  0.00     0.218 HD
ENDBRANCH  18  22
ENDBRANCH   4  14
BRANCH   8  24
HETATM   24  O17         0      48.611  46.246  35.098  1.00  0.00    -0.359 OA
HETATM   25  H17         0      48.744  45.392  34.705  1.00  0.00     0.218 HD
ENDBRANCH   8  24
TORSDOF 5
ENDMDL
MODEL 4
REMARK VINA RESULT:      -4.9      2.565      3.705
REMARK  5 active torsions:
REMARK  status: ('A' for Active; 'I' for Inactive)
REMARK    1  A    between atoms: C4_4  and  C5_5 
REMARK    2  A    between atoms: C8_8  and  O9_9 
REMARK    3  A    between atoms: C10_11  and  O11_12 
REMARK    4  A    between atoms: C16_18  and  O17_19 
REMARK    5  A    between atoms: C19_22  and  O20_23 
ROOT
HETATM    1  O1          0      48.536  45.524  40.860  1.00  0.00    -0.286 OA
HETATM    2  C2          0      48.388  45.066  39.694  1.00  0.00     0.201 C 
HETATM    3  C3          0      47.795  45.790  38.674  1.00  0.00     0.067 C 
HETATM    4  C4          0      47.552  45.226  37.426  1.00  0.00     0.103 C 
HETATM    5  O13         0      47.917  43.974  37.214  1.00  0.00    -0.307 OA
HETATM    6  C14         0      48.450  43.231  38.159  1.00  0.00     0.107 C 
HETATM    7  C15         0      48.465  41.846  38.079  1.00  0.00     0.049 C 
HETATM    8  C16         0      48.791  41.063  39.180  1.00  0.00     0.093 C 
HETATM    9  C18         0      49.584  41.691  40.133  1.00  0.00     0.048 C 
HETATM   10  C19         0      49.629  43.077  40.210  1.00  0.00     0.096 C 
HETATM   11  C21         0      48.900  43.830  39.331  1.00  0.00     0.084 C 
ENDROOT
BRANCH  10  12
HETATM   12  O20         0      50.049  43.679  41.393  1.00  0.00    -0.359 OA
HETATM   13  H20         0      50.356  43.117  42.094  1.00  0.00     0.218 HD
ENDBRANCH  10  12
BRANCH   4  14
HETATM   14  C5          0      46.443  45.778  36.646  1.00  0.00     0.025 C 
HETATM   15  C6          0      45.121  45.698  37.058  1.00  0.00     0.004 C 
HETATM   16  C7          0      44.302  46.797  36.815  1.00  0.00     0.026 C 
HETATM   17  C8          0      44.744  47.885  36.070  1.00  0.00     0.112 C 
HETATM   18  C10         0      45.791  47.606  35.201  1.00  0.00     0.112 C 
HETATM   19  C12         0      46.645  46.555  35.512  1.00  0.00     0.028 C 
BRANCH  17  20
HETATM   20  O9          0      44.300  49.164  36.352  1.00  0.00    -0.357 OA
HETATM   21  H9          0      43.384  49.394  36.458  1.00  0.00     0.218 HD
ENDBRANCH  17  20
BRANCH  18  22
HETATM   22  O11         0      46.143  48.602  34.302  1.00  0.00    -0.357 OA
HETATM   23  H11         0      46.558  48.325  33.494  1.00  0.00     0.218 HD
ENDBRANCH  18  22
ENDBRANCH   4  14
BRANCH   8  24
HETATM   24  O17         0      48.104  39.877  39.461  1.00  0.00    -0.359 OA
HETATM   25  H17         0      47.495  39.813  40.187  1.00  0.00     0.218 HD
ENDBRANCH   8  24
TORSDOF 5
ENDMDL
MODEL 5
REMARK VINA RESULT:      -4.8      1.791      2.642
REMARK  5 active torsions:
REMARK  status: ('A' for Active; 'I' for Inactive)
REMARK    1  A    between atoms: C4_4  and  C5_5 
REMARK    2  A    between atoms: C8_8  and  O9_9 
REMARK    3  A    between atoms: C10_11  and  O11_12 
REMARK    4  A    between atoms: C16_18  and  O17_19 
REMARK    5  A    between atoms: C19_22  and  O20_23 
ROOT
HETATM    1  O1          0      48.654  46.333  42.505  1.00  0.00    -0.286 OA
HETATM    2  C2          0      48.968  45.157  42.173  1.00  0.00     0.201 C 
HETATM    3  C3          0      49.241  44.794  40.865  1.00  0.00     0.067 C 
HETATM    4  C4          0      49.485  43.471  40.512  1.00  0.00     0.103 C 
HETATM    5  O13         0      49.474  42.549  41.459  1.00  0.00    -0.307 OA
HETATM    6  C14         0      49.184  42.835  42.709  1.00  0.00     0.107 C 
HETATM    7  C15         0      48.781  41.857  43.608  1.00  0.00     0.049 C 
HETATM    8  C16         0      48.236  42.191  44.841  1.00  0.00     0.093 C 
HETATM    9  C18         0      48.600  43.442  45.325  1.00  0.00     0.048 C 
HETATM   10  C19         0      49.052  44.429  44.459  1.00  0.00     0.096 C 
HETATM   11  C21         0      49.155  44.163  43.121  1.00  0.00     0.084 C 
ENDROOT
BRANCH  10  12
HETATM   12  O20         0      48.995  45.761  44.857  1.00  0.00    -0.359 OA
HETATM   13  H20         0      49.639  46.360  44.500  1.00  0.00     0.218 HD
ENDBRANCH  10  12
BRANCH   4  14
HETATM   14  C5          0      49.168  43.075  39.139  1.00  0.00     0.025 C 
HETATM   15  C6          0      49.002  41.752  38.757  1.00  0.00     0.004 C 
HETATM   16  C7          0      48.006  41.469  37.828  1.00  0.00     0.026 C 
HETATM   17  C8          0      47.288  42.479  37.198  1.00  0.00     0.112 C 
HETATM   18  C10         0      47.930  43.710  37.159  1.00  0.00     0.112 C 
HETATM   19  C12         0      48.861  44.001  38.150  1.00  0.00     0.028 C 
BRANCH  17  20
HETATM   20  O9          0      45.963  42.293  36.845  1.00  0.00    -0.357 OA
HETATM   21  H9          0      45.593  41.450  36.609  1.00  0.00     0.218 HD
ENDBRANCH  17  20
BRANCH  18  22
HETATM   22  O11         0      47.346  44.699  36.382  1.00  0.00    -0.357 OA
HETATM   23  H11         0      46.424  44.596  36.176  1.00  0.00     0.218 HD
ENDBRANCH  18  22
ENDBRANCH   4  14
BRANCH   8  24
HETATM   24  O17         0      47.156  41.481  45.377  1.00  0.00    -0.359 OA
HETATM   25  H17         0      47.283  40.697  45.899  1.00  0.00     0.218 HD
ENDBRANCH   8  24
TORSDOF 5
ENDMDL
MODEL 6
REMARK VINA RESULT:      -4.7      1.703      2.339
REMARK  5 active torsions:
REMARK  status: ('A' for Active; 'I' for Inactive)
REMARK    1  A    between atoms: C4_4  and  C5_5 
REMARK    2  A    between atoms: C8_8  and  O9_9 
REMARK    3  A    between atoms: C10_11  and  O11_12 
REMARK    4  A    between atoms: C16_18  and  O17_19 
REMARK    5  A    between atoms: C19_22  and  O20_23 
ROOT
HETATM    1  O1          0      48.963  45.903  42.480  1.00  0.00    -0.286 OA
HETATM    2  C2          0      48.944  44.920  41.690  1.00  0.00     0.201 C 
HETATM    3  C3          0      48.693  45.051  40.335  1.00  0.00     0.067 C 
HETATM    4  C4          0      48.576  43.942  39.505  1.00  0.00     0.103 C 
HETATM    5  O13         0      48.730  42.738  40.028  1.00  0.00    -0.307 OA
HETATM    6  C14         0      48.932  42.556  41.315  1.00  0.00     0.107 C 
HETATM    7  C15         0      48.697  41.333  41.926  1.00  0.00     0.049 C 
HETATM    8  C16         0      48.665  41.211  43.310  1.00  0.00     0.093 C 
HETATM    9  C18         0      49.377  42.184  44.001  1.00  0.00     0.048 C 
HETATM   10  C19         0      49.670  43.402  43.403  1.00  0.00     0.096 C 
HETATM   11  C21         0      49.269  43.641  42.117  1.00  0.00     0.084 C 
ENDROOT
BRANCH  10  12
HETATM   12  O20         0      49.977  44.497  44.205  1.00  0.00    -0.359 OA
HETATM   13  H20         0      50.289  44.330  45.086  1.00  0.00     0.218 HD
ENDBRANCH  10  12
BRANCH   4  14
HETATM   14  C5          0      47.752  44.088  38.304  1.00  0.00     0.025 C 
HETATM   15  C6          0      47.614  43.081  37.359  1.00  0.00     0.004 C 
HETATM   16  C7          0      46.361  42.909  36.779  1.00  0.00     0.026 C 
HETATM   17  C8          0      45.315  43.790  37.028  1.00  0.00     0.112 C 
HETATM   18  C10         0      45.708  45.055  37.442  1.00  0.00     0.112 C 
HETATM   19  C12         0      46.928  45.187  38.096  1.00  0.00     0.028 C 
BRANCH  17  20
HETATM   20  O9          0      44.005  43.345  37.057  1.00  0.00    -0.357 OA
HETATM   21  H9          0      43.702  42.632  37.608  1.00  0.00     0.218 HD
ENDBRANCH  17  20
BRANCH  18  22
HETATM   22  O11         0      44.720  46.026  37.522  1.00  0.00    -0.357 OA
HETATM   23  H11         0      44.998  46.931  37.436  1.00  0.00     0.218 HD
ENDBRANCH  18  22
ENDBRANCH   4  14
BRANCH   8  24
HETATM   24  O17         0      47.726  40.394  43.949  1.00  0.00    -0.359 OA
HETATM   25  H17         0      47.060  40.753  44.523  1.00  0.00     0.218 HD
ENDBRANCH   8  24
TORSDOF 5
ENDMDL
MODEL 7
REMARK VINA RESULT:      -4.7      3.043      4.936
REMARK  5 active torsions:
REMARK  status: ('A' for Active; 'I' for Inactive)
REMARK    1  A    between atoms: C4_4  and  C5_5 
REMARK    2  A    between atoms: C8_8  and  O9_9 
REMARK    3  A    between atoms: C10_11  and  O11_12 
REMARK    4  A    between atoms: C16_18  and  O17_19 
REMARK    5  A    between atoms: C19_22  and  O20_23 
ROOT
HETATM    1  O1          0      47.306  45.940  40.553  1.00  0.00    -0.286 OA
HETATM    2  C2          0      47.376  45.740  39.310  1.00  0.00     0.201 C 
HETATM    3  C3          0      47.805  46.707  38.417  1.00  0.00     0.067 C 
HETATM    4  C4          0      47.776  46.494  37.043  1.00  0.00     0.103 C 
HETATM    5  O13         0      47.346  45.330  36.590  1.00  0.00    -0.307 OA
HETATM    6  C14         0      46.892  44.392  37.392  1.00  0.00     0.107 C 
HETATM    7  C15         0      46.087  43.361  36.930  1.00  0.00     0.049 C 
HETATM    8  C16         0      45.407  42.527  37.809  1.00  0.00     0.093 C 
HETATM    9  C18         0      45.969  42.427  39.076  1.00  0.00     0.048 C 
HETATM   10  C19         0      46.816  43.418  39.552  1.00  0.00     0.096 C 
HETATM   11  C21         0      47.115  44.493  38.761  1.00  0.00     0.084 C 
ENDROOT
BRANCH  10  12
HETATM   12  O20         0      47.016  43.541  40.924  1.00  0.00    -0.359 OA
HETATM   13  H20         0      46.703  42.841  41.484  1.00  0.00     0.218 HD
ENDBRANCH  10  12
BRANCH   4  14
HETATM   14  C5          0      47.651  47.674  36.185  1.00  0.00     0.025 C 
HETATM   15  C6          0      46.491  47.977  35.487  1.00  0.00     0.004 C 
HETATM   16  C7          0      46.124  49.316  35.396  1.00  0.00     0.026 C 
HETATM   17  C8          0      46.950  50.332  35.866  1.00  0.00     0.112 C 
HETATM   18  C10         0      48.294  49.995  35.949  1.00  0.00     0.112 C 
HETATM   19  C12         0      48.630  48.658  36.125  1.00  0.00     0.028 C 
BRANCH  17  20
HETATM   20  O9          0      46.414  51.492  36.397  1.00  0.00    -0.357 OA
HETATM   21  H9          0      45.917  51.521  37.207  1.00  0.00     0.218 HD
ENDBRANCH  17  20
BRANCH  18  22
HETATM   22  O11         0      49.184  51.022  36.229  1.00  0.00    -0.357 OA
HETATM   23  H11         0      50.030  50.774  36.582  1.00  0.00     0.218 HD
ENDBRANCH  18  22
ENDBRANCH   4  14
BRANCH   8  24
HETATM   24  O17         0      44.099  42.103  37.548  1.00  0.00    -0.359 OA
HETATM   25  H17         0      43.523  41.807  38.242  1.00  0.00     0.218 HD
ENDBRANCH   8  24
TORSDOF 5
ENDMDL
MODEL 8
REMARK VINA RESULT:      -4.7      1.671      2.718
REMARK  5 active torsions:
REMARK  status: ('A' for Active; 'I' for Inactive)
REMARK    1  A    between atoms: C4_4  and  C5_5 
REMARK    2  A    between atoms: C8_8  and  O9_9 
REMARK    3  A    between atoms: C10_11  and  O11_12 
REMARK    4  A    between atoms: C16_18  and  O17_19 
REMARK    5  A    between atoms: C19_22  and  O20_23 
ROOT
HETATM    1  O1          0      46.632  47.114  41.928  1.00  0.00    -0.286 OA
HETATM    2  C2          0      47.528  46.260  41.684  1.00  0.00     0.201 C 
HETATM    3  C3          0      47.839  45.844  40.400  1.00  0.00     0.067 C 
HETATM    4  C4          0      48.759  44.828  40.166  1.00  0.00     0.103 C 
HETATM    5  O13         0      49.361  44.266  41.200  1.00  0.00    -0.307 OA
HETATM    6  C14         0      49.075  44.597  42.440  1.00  0.00     0.107 C 
HETATM    7  C15         0      49.384  43.767  43.508  1.00  0.00     0.049 C 
HETATM    8  C16         0      48.860  43.996  44.775  1.00  0.00     0.093 C 
HETATM    9  C18         0      48.490  45.311  45.028  1.00  0.00     0.048 C 
HETATM   10  C19         0      48.219  46.182  43.982  1.00  0.00     0.096 C 
HETATM   11  C21         0      48.333  45.747  42.690  1.00  0.00     0.084 C 
ENDROOT
BRANCH  10  12
HETATM   12  O20         0      47.450  47.316  44.223  1.00  0.00    -0.359 OA
HETATM   13  H20         0      47.547  47.749  45.062  1.00  0.00     0.218 HD
ENDBRANCH  10  12
BRANCH   4  14
HETATM   14  C5          0      48.600  44.052  38.935  1.00  0.00     0.025 C 
HETATM   15  C6          0      48.642  42.666  38.910  1.00  0.00     0.004 C 
HETATM   16  C7          0      47.765  42.010  38.052  1.00  0.00     0.026 C 
HETATM   17  C8          0      46.966  42.708  37.153  1.00  0.00     0.112 C 
HETATM   18  C10         0      47.440  43.968  36.814  1.00  0.00     0.112 C 
HETATM   19  C12         0      48.247  44.637  37.726  1.00  0.00     0.028 C 
BRANCH  17  20
HETATM   20  O9          0      45.708  42.242  36.812  1.00  0.00    -0.357 OA
HETATM   21  H9          0      45.469  41.960  35.937  1.00  0.00     0.218 HD
ENDBRANCH  17  20
BRANCH  18  22
HETATM   22  O11         0      46.787  44.628  35.782  1.00  0.00    -0.357 OA
HETATM   23  H11         0      47.149  45.463  35.509  1.00  0.00     0.218 HD
ENDBRANCH  18  22
ENDBRANCH   4  14
BRANCH   8  24
HETATM   24  O17         0      48.430  42.940  45.587  1.00  0.00    -0.359 OA
HETATM   25  H17         0      47.528  42.643  45.582  1.00  0.00     0.218 HD
ENDBRANCH   8  24
TORSDOF 5
ENDMDL
MODEL 9
REMARK VINA RESULT:      -4.7      3.090      6.960
REMARK  5 active torsions:
REMARK  status: ('A' for Active; 'I' for Inactive)
REMARK    1  A    between atoms: C4_4  and  C5_5 
REMARK    2  A    between atoms: C8_8  and  O9_9 
REMARK    3  A    between atoms: C10_11  and  O11_12 
REMARK    4  A    between atoms: C16_18  and  O17_19 
REMARK    5  A    between atoms: C19_22  and  O20_23 
ROOT
HETATM    1  O1          0      47.283  46.541  35.285  1.00  0.00    -0.286 OA
HETATM    2  C2          0      46.882  46.050  36.375  1.00  0.00     0.201 C 
HETATM    3  C3          0      47.725  45.396  37.258  1.00  0.00     0.067 C 
HETATM    4  C4          0      47.240  44.774  38.403  1.00  0.00     0.103 C 
HETATM    5  O13         0      45.944  44.832  38.657  1.00  0.00    -0.307 OA
HETATM    6  C14         0      45.096  45.407  37.833  1.00  0.00     0.107 C 
HETATM    7  C15         0      43.737  45.133  37.875  1.00  0.00     0.049 C 
HETATM    8  C16         0      42.887  45.539  36.853  1.00  0.00     0.093 C 
HETATM    9  C18         0      43.332  46.632  36.119  1.00  0.00     0.048 C 
HETATM   10  C19         0      44.680  46.962  36.092  1.00  0.00     0.096 C 
HETATM   11  C21         0      45.576  46.216  36.809  1.00  0.00     0.084 C 
ENDROOT
BRANCH  10  12
HETATM   12  O20         0      45.168  47.746  35.051  1.00  0.00    -0.359 OA
HETATM   13  H20         0      44.862  48.642  34.987  1.00  0.00     0.218 HD
ENDBRANCH  10  12
BRANCH   4  14
HETATM   14  C5          0      48.012  43.648  38.932  1.00  0.00     0.025 C 
HETATM   15  C6          0      48.194  43.433  40.291  1.00  0.00     0.004 C 
HETATM   16  C7          0      48.172  42.118  40.743  1.00  0.00     0.026 C 
HETATM   17  C8          0      48.108  41.044  39.862  1.00  0.00     0.112 C 
HETATM   18  C10         0      48.562  41.319  38.579  1.00  0.00     0.112 C 
HETATM   19  C12         0      48.493  42.629  38.121  1.00  0.00     0.028 C 
BRANCH  17  20
HETATM   20  O9          0      47.443  39.881  40.209  1.00  0.00    -0.357 OA
HETATM   21  H9          0      47.744  39.011  39.975  1.00  0.00     0.218 HD
ENDBRANCH  17  20
BRANCH  18  22
HETATM   22  O11         0      48.697  40.241  37.716  1.00  0.00    -0.357 OA
HETATM   23  H11         0      49.559  39.845  37.654  1.00  0.00     0.218 HD
ENDBRANCH  18  22
ENDBRANCH   4  14
BRANCH   8  24
HETATM   24  O17         0      41.854  44.715  36.393  1.00  0.00    -0.359 OA
HETATM   25  H17         0      40.951  45.010  36.371  1.00  0.00     0.218 HD
ENDBRANCH   8  24
TORSDOF 5
ENDMDL
