MODEL 1
REMARK VINA RESULT:      -0.0      0.000      0.000
REMARK  5 active torsions:
REMARK  status: ('A' for Active; 'I' for Inactive)
REMARK    1  A    between atoms: C4_4  and  C5_5 
REMARK    2  A    between atoms: C8_8  and  O9_9 
REMARK    3  A    between atoms: C10_11  and  O11_12 
REMARK    4  A    between atoms: C16_18  and  O17_19 
REMARK    5  A    between atoms: C19_22  and  O20_23 
ROOT
HETATM    1  O1          0       8.077 114.150 -24.364  1.00  0.00    -0.286 OA
HETATM    2  C2          0       7.680 114.213 -25.560  1.00  0.00     0.201 C 
HETATM    3  C3          0       7.104 115.351 -26.100  1.00  0.00     0.067 C 
HETATM    4  C4          0       6.581 115.362 -27.388  1.00  0.00     0.103 C 
HETATM    5  O13         0       6.658 114.260 -28.113  1.00  0.00    -0.307 OA
HETATM    6  C14         0       7.161 113.142 -27.636  1.00  0.00     0.107 C 
HETATM    7  C15         0       6.890 111.912 -28.217  1.00  0.00     0.049 C 
HETATM    8  C16         0       7.207 110.723 -27.571  1.00  0.00     0.093 C 
HETATM    9  C18         0       8.234 110.817 -26.640  1.00  0.00     0.048 C 
HETATM   10  C19         0       8.562 112.041 -26.073  1.00  0.00     0.096 C 
HETATM   11  C21         0       7.881 113.167 -26.446  1.00  0.00     0.084 C 
ENDROOT
BRANCH  10  12
HETATM   12  O20         0       9.255 112.067 -24.866  1.00  0.00    -0.359 OA
HETATM   13  H20         0       9.578 111.244 -24.520  1.00  0.00     0.218 HD
ENDBRANCH  10  12
BRANCH   4  14
HETATM   14  C5          0       5.505 116.315 -27.666  1.00  0.00     0.025 C 
HETATM   15  C6          0       4.550 116.104 -28.650  1.00  0.00     0.004 C 
HETATM   16  C7          0       3.244 116.498 -28.375  1.00  0.00     0.026 C 
HETATM   17  C8          0       2.922 117.198 -27.218  1.00  0.00     0.112 C 
HETATM   18  C10         0       3.980 117.892 -26.646  1.00  0.00     0.112 C 
HETATM   19  C12         0       5.271 117.427 -26.867  1.00  0.00     0.028 C 
BRANCH  17  20
HETATM   20  O9          0       1.696 117.022 -26.601  1.00  0.00    -0.357 OA
HETATM   21  H9          0       0.868 117.000 -27.068  1.00  0.00     0.218 HD
ENDBRANCH  17  20
BRANCH  18  22
HETATM   22  O11         0       3.675 118.755 -25.604  1.00  0.00    -0.357 OA
HETATM   23  H11         0       3.605 118.374 -24.736  1.00  0.00     0.218 HD
ENDBRANCH  18  22
ENDBRANCH   4  14
BRANCH   8  24
HETATM   24  O17         0       6.345 109.621 -27.608  1.00  0.00    -0.359 OA
HETATM   25  H17         0       6.014 109.220 -26.814  1.00  0.00     0.218 HD
ENDBRANCH   8  24
TORSDOF 5
ENDMDL
MODEL 2
REMARK VINA RESULT:      -0.0      8.226     11.012
REMARK  5 active torsions:
REMARK  status: ('A' for Active; 'I' for Inactive)
REMARK    1  A    between atoms: C4_4  and  C5_5 
REMARK    2  A    between atoms: C8_8  and  O9_9 
REMARK    3  A    between atoms: C10_11  and  O11_12 
REMARK    4  A    between atoms: C16_18  and  O17_19 
REMARK    5  A    between atoms: C19_22  and  O20_23 
ROOT
HETATM    1  O1          0       9.304 114.852 -33.622  1.00  0.00    -0.286 OA
HETATM    2  C2          0      10.535 115.117 -33.544  1.00  0.00     0.201 C 
HETATM    3  C3          0      11.497 114.433 -34.266  1.00  0.00     0.067 C 
HETATM    4  C4          0      12.854 114.676 -34.084  1.00  0.00     0.103 C 
HETATM    5  O13         0      13.223 115.598 -33.212  1.00  0.00    -0.307 OA
HETATM    6  C14         0      12.352 116.249 -32.474  1.00  0.00     0.107 C 
HETATM    7  C15         0      12.725 116.903 -31.308  1.00  0.00     0.049 C 
HETATM    8  C16         0      11.776 117.367 -30.405  1.00  0.00     0.093 C 
HETATM    9  C18         0      10.524 117.624 -30.950  1.00  0.00     0.048 C 
HETATM   10  C19         0      10.136 117.024 -32.140  1.00  0.00     0.096 C 
HETATM   11  C21         0      10.999 116.185 -32.791  1.00  0.00     0.084 C 
ENDROOT
BRANCH  10  12
HETATM   12  O20         0       8.781 116.930 -32.444  1.00  0.00    -0.359 OA
HETATM   13  H20         0       8.188 116.657 -31.755  1.00  0.00     0.218 HD
ENDBRANCH  10  12
BRANCH   4  14
HETATM   14  C5          0      13.776 113.578 -34.382  1.00  0.00     0.025 C 
HETATM   15  C6          0      15.018 113.454 -33.775  1.00  0.00     0.004 C 
HETATM   16  C7          0      15.448 112.173 -33.444  1.00  0.00     0.026 C 
HETATM   17  C8          0      14.732 111.043 -33.822  1.00  0.00     0.112 C 
HETATM   18  C10         0      13.902 111.223 -34.921  1.00  0.00     0.112 C 
HETATM   19  C12         0      13.417 112.500 -35.179  1.00  0.00     0.028 C 
BRANCH  17  20
HETATM   20  O9          0      14.711 109.915 -33.021  1.00  0.00    -0.357 OA
HETATM   21  H9          0      15.311 109.185 -33.121  1.00  0.00     0.218 HD
ENDBRANCH  17  20
BRANCH  18  22
HETATM   22  O11         0      13.311 110.087 -35.455  1.00  0.00    -0.357 OA
HETATM   23  H11         0      12.388 110.144 -35.673  1.00  0.00     0.218 HD
ENDBRANCH  18  22
ENDBRANCH   4  14
BRANCH   8  24
HETATM   24  O17         0      11.969 117.257 -29.024  1.00  0.00    -0.359 OA
HETATM   25  H17         0      11.514 117.821 -28.410  1.00  0.00     0.218 HD
ENDBRANCH   8  24
TORSDOF 5
ENDMDL
MODEL 3
REMARK VINA RESULT:       0.0      3.333      5.305
REMARK  5 active torsions:
REMARK  status: ('A' for Active; 'I' for Inactive)
REMARK    1  A    between atoms: C4_4  and  C5_5 
REMARK    2  A    between atoms: C8_8  and  O9_9 
REMARK    3  A    between atoms: C10_11  and  O11_12 
REMARK    4  A    between atoms: C16_18  and  O17_19 
REMARK    5  A    between atoms: C19_22  and  O20_23 
ROOT
HETATM    1  O1          0      11.344 115.919 -26.836  1.00  0.00    -0.286 OA
HETATM    2  C2          0      10.136 115.832 -27.190  1.00  0.00     0.201 C 
HETATM    3  C3          0       9.112 115.553 -26.302  1.00  0.00     0.067 C 
HETATM    4  C4          0       7.805 115.362 -26.734  1.00  0.00     0.103 C 
HETATM    5  O13         0       7.540 115.471 -28.024  1.00  0.00    -0.307 OA
HETATM    6  C14         0       8.482 115.698 -28.914  1.00  0.00     0.107 C 
HETATM    7  C15         0       8.297 115.421 -30.261  1.00  0.00     0.049 C 
HETATM    8  C16         0       9.364 115.419 -31.151  1.00  0.00     0.093 C 
HETATM    9  C18         0      10.451 116.195 -30.765  1.00  0.00     0.048 C 
HETATM   10  C19         0      10.641 116.530 -29.431  1.00  0.00     0.096 C 
HETATM   11  C21         0       9.742 116.107 -28.490  1.00  0.00     0.084 C 
ENDROOT
BRANCH  10  12
HETATM   12  O20         0      11.908 116.909 -28.999  1.00  0.00    -0.359 OA
HETATM   13  H20         0      12.052 117.824 -28.792  1.00  0.00     0.218 HD
ENDBRANCH  10  12
BRANCH   4  14
HETATM   14  C5          0       6.943 114.514 -25.908  1.00  0.00     0.025 C 
HETATM   15  C6          0       5.867 113.806 -26.424  1.00  0.00     0.004 C 
HETATM   16  C7          0       5.630 112.533 -25.914  1.00  0.00     0.026 C 
HETATM   17  C8          0       6.352 112.033 -24.836  1.00  0.00     0.112 C 
HETATM   18  C10         0       6.922 113.001 -24.020  1.00  0.00     0.112 C 
HETATM   19  C12         0       7.227 114.237 -24.577  1.00  0.00     0.028 C 
BRANCH  17  20
HETATM   20  O9          0       6.637 110.682 -24.739  1.00  0.00    -0.357 OA
HETATM   21  H9          0       6.033 109.996 -24.998  1.00  0.00     0.218 HD
ENDBRANCH  17  20
BRANCH  18  22
HETATM   22  O11         0       7.490 112.566 -22.831  1.00  0.00    -0.357 OA
HETATM   23  H11         0       7.640 111.632 -22.743  1.00  0.00     0.218 HD
ENDBRANCH  18  22
ENDBRANCH   4  14
BRANCH   8  24
HETATM   24  O17         0       9.468 114.460 -32.163  1.00  0.00    -0.359 OA
HETATM   25  H17         0      10.072 114.563 -32.889  1.00  0.00     0.218 HD
ENDBRANCH   8  24
TORSDOF 5
ENDMDL
MODEL 4
REMARK VINA RESULT:       0.0      6.235      8.468
REMARK  5 active torsions:
REMARK  status: ('A' for Active; 'I' for Inactive)
REMARK    1  A    between atoms: C4_4  and  C5_5 
REMARK    2  A    between atoms: C8_8  and  O9_9 
REMARK    3  A    between atoms: C10_11  and  O11_12 
REMARK    4  A    between atoms: C16_18  and  O17_19 
REMARK    5  A    between atoms: C19_22  and  O20_23 
ROOT
HETATM    1  O1          0      10.422 109.871 -31.394  1.00  0.00    -0.286 OA
HETATM    2  C2          0      10.029 111.065 -31.501  1.00  0.00     0.201 C 
HETATM    3  C3          0      10.088 111.770 -32.691  1.00  0.00     0.067 C 
HETATM    4  C4          0       9.744 113.116 -32.758  1.00  0.00     0.103 C 
HETATM    5  O13         0       9.334 113.721 -31.658  1.00  0.00    -0.307 OA
HETATM    6  C14         0       9.295 113.108 -30.495  1.00  0.00     0.107 C 
HETATM    7  C15         0       9.259 113.811 -29.299  1.00  0.00     0.049 C 
HETATM    8  C16         0       9.475 113.175 -28.082  1.00  0.00     0.093 C 
HETATM    9  C18         0       9.195 111.814 -28.073  1.00  0.00     0.048 C 
HETATM   10  C19         0       9.177 111.090 -29.257  1.00  0.00     0.096 C 
HETATM   11  C21         0       9.419 111.724 -30.445  1.00  0.00     0.084 C 
ENDROOT
BRANCH  10  12
HETATM   12  O20         0       9.333 109.708 -29.212  1.00  0.00    -0.359 OA
HETATM   13  H20         0      10.118 109.336 -29.594  1.00  0.00     0.218 HD
ENDBRANCH  10  12
BRANCH   4  14
HETATM   14  C5          0      10.373 113.916 -33.810  1.00  0.00     0.025 C 
HETATM   15  C6          0      10.573 115.284 -33.697  1.00  0.00     0.004 C 
HETATM   16  C7          0      11.755 115.808 -34.211  1.00  0.00     0.026 C 
HETATM   17  C8          0      12.647 115.023 -34.933  1.00  0.00     0.112 C 
HETATM   18  C10         0      12.085 113.897 -35.520  1.00  0.00     0.112 C 
HETATM   19  C12         0      10.952 113.343 -34.936  1.00  0.00     0.028 C 
BRANCH  17  20
HETATM   20  O9          0      14.009 115.258 -34.871  1.00  0.00    -0.357 OA
HETATM   21  H9          0      14.548 115.045 -34.118  1.00  0.00     0.218 HD
ENDBRANCH  17  20
BRANCH  18  22
HETATM   22  O11         0      12.883 113.184 -36.404  1.00  0.00    -0.357 OA
HETATM   23  H11         0      13.379 112.457 -36.045  1.00  0.00     0.218 HD
ENDBRANCH  18  22
ENDBRANCH   4  14
BRANCH   8  24
HETATM   24  O17         0      10.225 113.779 -27.067  1.00  0.00    -0.359 OA
HETATM   25  H17         0       9.966 113.725 -26.155  1.00  0.00     0.218 HD
ENDBRANCH   8  24
TORSDOF 5
ENDMDL
MODEL 5
REMARK VINA RESULT:       0.0      4.781      7.312
REMARK  5 active torsions:
REMARK  status: ('A' for Active; 'I' for Inactive)
REMARK    1  A    between atoms: C4_4  and  C5_5 
REMARK    2  A    between atoms: C8_8  and  O9_9 
REMARK    3  A    between atoms: C10_11  and  O11_12 
REMARK    4  A    between atoms: C16_18  and  O17_19 
REMARK    5  A    between atoms: C19_22  and  O20_23 
ROOT
HETATM    1  O1          0      12.621 111.403 -29.590  1.00  0.00    -0.286 OA
HETATM    2  C2          0      12.065 110.487 -28.923  1.00  0.00     0.201 C 
HETATM    3  C3          0      10.721 110.181 -29.045  1.00  0.00     0.067 C 
HETATM    4  C4          0      10.112 109.237 -28.225  1.00  0.00     0.103 C 
HETATM    5  O13         0      10.847 108.610 -27.324  1.00  0.00    -0.307 OA
HETATM    6  C14         0      12.119 108.890 -27.142  1.00  0.00     0.107 C 
HETATM    7  C15         0      12.782 108.547 -25.972  1.00  0.00     0.049 C 
HETATM    8  C16         0      14.039 109.063 -25.678  1.00  0.00     0.093 C 
HETATM    9  C18         0      14.782 109.464 -26.782  1.00  0.00     0.048 C 
HETATM   10  C19         0      14.154 109.769 -27.982  1.00  0.00     0.096 C 
HETATM   11  C21         0      12.794 109.658 -28.084  1.00  0.00     0.084 C 
ENDROOT
BRANCH  10  12
HETATM   12  O20         0      14.815 110.564 -28.913  1.00  0.00    -0.359 OA
HETATM   13  H20         0      14.334 110.842 -29.683  1.00  0.00     0.218 HD
ENDBRANCH  10  12
BRANCH   4  14
HETATM   14  C5          0       8.676 109.390 -27.981  1.00  0.00     0.025 C 
HETATM   15  C6          0       8.054 108.917 -26.834  1.00  0.00     0.004 C 
HETATM   16  C7          0       7.044 109.698 -26.280  1.00  0.00     0.026 C 
HETATM   17  C8          0       6.575 110.842 -26.917  1.00  0.00     0.112 C 
HETATM   18  C10         0       6.788 110.871 -28.288  1.00  0.00     0.112 C 
HETATM   19  C12         0       7.857 110.149 -28.806  1.00  0.00     0.028 C 
BRANCH  17  20
HETATM   20  O9          0       6.132 111.929 -26.184  1.00  0.00    -0.357 OA
HETATM   21  H9          0       6.210 111.996 -25.240  1.00  0.00     0.218 HD
ENDBRANCH  17  20
BRANCH  18  22
HETATM   22  O11         0       6.176 111.895 -28.998  1.00  0.00    -0.357 OA
HETATM   23  H11         0       5.381 112.260 -28.627  1.00  0.00     0.218 HD
ENDBRANCH  18  22
ENDBRANCH   4  14
BRANCH   8  24
HETATM   24  O17         0      14.380 109.456 -24.379  1.00  0.00    -0.359 OA
HETATM   25  H17         0      15.073 110.084 -24.214  1.00  0.00     0.218 HD
ENDBRANCH   8  24
TORSDOF 5
ENDMDL
MODEL 6
REMARK VINA RESULT:       0.0      6.771      9.925
REMARK  5 active torsions:
REMARK  status: ('A' for Active; 'I' for Inactive)
REMARK    1  A    between atoms: C4_4  and  C5_5 
REMARK    2  A    between atoms: C8_8  and  O9_9 
REMARK    3  A    between atoms: C10_11  and  O11_12 
REMARK    4  A    between atoms: C16_18  and  O17_19 
REMARK    5  A    between atoms: C19_22  and  O20_23 
ROOT
HETATM    1  O1          0      14.348 110.630 -28.321  1.00  0.00    -0.286 OA
HETATM    2  C2          0      14.104 109.622 -27.602  1.00  0.00     0.201 C 
HETATM    3  C3          0      12.819 109.244 -27.253  1.00  0.00     0.067 C 
HETATM    4  C4          0      12.582 108.191 -26.377  1.00  0.00     0.103 C 
HETATM    5  O13         0      13.616 107.529 -25.886  1.00  0.00    -0.307 OA
HETATM    6  C14         0      14.856 107.871 -26.156  1.00  0.00     0.107 C 
HETATM    7  C15         0      15.917 107.462 -25.359  1.00  0.00     0.049 C 
HETATM    8  C16         0      17.179 108.027 -25.494  1.00  0.00     0.093 C 
HETATM    9  C18         0      17.447 108.576 -26.742  1.00  0.00     0.048 C 
HETATM   10  C19         0      16.409 108.953 -27.584  1.00  0.00     0.096 C 
HETATM   11  C21         0      15.113 108.766 -27.189  1.00  0.00     0.084 C 
ENDROOT
BRANCH  10  12
HETATM   12  O20         0      16.656 109.873 -28.598  1.00  0.00    -0.359 OA
HETATM   13  H20         0      17.273 110.573 -28.424  1.00  0.00     0.218 HD
ENDBRANCH  10  12
BRANCH   4  14
HETATM   14  C5          0      11.339 108.228 -25.605  1.00  0.00     0.025 C 
HETATM   15  C6          0      11.201 107.611 -24.370  1.00  0.00     0.004 C 
HETATM   16  C7          0      10.453 108.270 -23.400  1.00  0.00     0.026 C 
HETATM   17  C8          0       9.752 109.436 -23.687  1.00  0.00     0.112 C 
HETATM   18  C10         0       9.437 109.608 -25.028  1.00  0.00     0.112 C 
HETATM   19  C12         0      10.253 109.008 -25.980  1.00  0.00     0.028 C 
BRANCH  17  20
HETATM   20  O9          0       9.589 110.420 -22.727  1.00  0.00    -0.357 OA
HETATM   21  H9          0      10.297 110.964 -22.404  1.00  0.00     0.218 HD
ENDBRANCH  17  20
BRANCH  18  22
HETATM   22  O11         0       8.581 110.653 -25.344  1.00  0.00    -0.357 OA
HETATM   23  H11         0       7.994 110.951 -24.658  1.00  0.00     0.218 HD
ENDBRANCH  18  22
ENDBRANCH   4  14
BRANCH   8  24
HETATM   24  O17         0      17.971 108.316 -24.377  1.00  0.00    -0.359 OA
HETATM   25  H17         0      17.838 109.103 -23.861  1.00  0.00     0.218 HD
ENDBRANCH   8  24
TORSDOF 5
ENDMDL
MODEL 7
REMARK VINA RESULT:       0.0      5.294      7.260
REMARK  5 active torsions:
REMARK  status: ('A' for Active; 'I' for Inactive)
REMARK    1  A    between atoms: C4_4  and  C5_5 
REMARK    2  A    between atoms: C8_8  and  O9_9 
REMARK    3  A    between atoms: C10_11  and  O11_12 
REMARK    4  A    between atoms: C16_18  and  O17_19 
REMARK    5  A    between atoms: C19_22  and  O20_23 
ROOT
HETATM    1  O1          0      11.938 112.704 -25.496  1.00  0.00    -0.286 OA
HETATM    2  C2          0      11.939 113.685 -26.289  1.00  0.00     0.201 C 
HETATM    3  C3          0      10.884 113.962 -27.141  1.00  0.00     0.067 C 
HETATM    4  C4          0      10.953 114.988 -28.077  1.00  0.00     0.103 C 
HETATM    5  O13         0      12.050 115.723 -28.134  1.00  0.00    -0.307 OA
HETATM    6  C14         0      13.095 115.478 -27.374  1.00  0.00     0.107 C 
HETATM    7  C15         0      14.357 115.960 -27.690  1.00  0.00     0.049 C 
HETATM    8  C16         0      15.492 115.494 -27.037  1.00  0.00     0.093 C 
HETATM    9  C18         0      15.267 114.976 -25.768  1.00  0.00     0.048 C 
HETATM   10  C19         0      14.005 114.528 -25.402  1.00  0.00     0.096 C 
HETATM   11  C21         0      12.970 114.613 -26.293  1.00  0.00     0.084 C 
ENDROOT
BRANCH  10  12
HETATM   12  O20         0      13.880 113.637 -24.340  1.00  0.00    -0.359 OA
HETATM   13  H20         0      14.461 112.886 -24.319  1.00  0.00     0.218 HD
ENDBRANCH  10  12
BRANCH   4  14
HETATM   14  C5          0      10.133 114.851 -29.283  1.00  0.00     0.025 C 
HETATM   15  C6          0      10.467 115.446 -30.490  1.00  0.00     0.004 C 
HETATM   16  C7          0      10.221 114.725 -31.654  1.00  0.00     0.026 C 
HETATM   17  C8          0       9.544 113.511 -31.631  1.00  0.00     0.112 C 
HETATM   18  C10         0       8.725 113.325 -30.525  1.00  0.00     0.112 C 
HETATM   19  C12         0       9.043 113.993 -29.348  1.00  0.00     0.028 C 
BRANCH  17  20
HETATM   20  O9          0       9.849 112.511 -32.537  1.00  0.00    -0.357 OA
HETATM   21  H9          0      10.617 112.522 -33.096  1.00  0.00     0.218 HD
ENDBRANCH  17  20
BRANCH  18  22
HETATM   22  O11         0       7.886 112.220 -30.543  1.00  0.00    -0.357 OA
HETATM   23  H11         0       7.735 111.781 -29.714  1.00  0.00     0.218 HD
ENDBRANCH  18  22
ENDBRANCH   4  14
BRANCH   8  24
HETATM   24  O17         0      16.685 115.257 -27.728  1.00  0.00    -0.359 OA
HETATM   25  H17         0      17.471 114.964 -27.281  1.00  0.00     0.218 HD
ENDBRANCH   8  24
TORSDOF 5
ENDMDL
MODEL 8
REMARK VINA RESULT:       0.0     10.465     11.758
REMARK  5 active torsions:
REMARK  status: ('A' for Active; 'I' for Inactive)
REMARK    1  A    between atoms: C4_4  and  C5_5 
REMARK    2  A    between atoms: C8_8  and  O9_9 
REMARK    3  A    between atoms: C10_11  and  O11_12 
REMARK    4  A    between atoms: C16_18  and  O17_19 
REMARK    5  A    between atoms: C19_22  and  O20_23 
ROOT
HETATM    1  O1          0      15.131 109.653 -27.485  1.00  0.00    -0.286 OA
HETATM    2  C2          0      15.270 109.355 -26.267  1.00  0.00     0.201 C 
HETATM    3  C3          0      14.887 108.130 -25.746  1.00  0.00     0.067 C 
HETATM    4  C4          0      14.956 107.865 -24.383  1.00  0.00     0.103 C 
HETATM    5  O13         0      15.417 108.804 -23.576  1.00  0.00    -0.307 OA
HETATM    6  C14         0      15.758 109.996 -24.014  1.00  0.00     0.107 C 
HETATM    7  C15         0      15.854 111.087 -23.162  1.00  0.00     0.049 C 
HETATM    8  C16         0      15.962 112.381 -23.657  1.00  0.00     0.093 C 
HETATM    9  C18         0      16.491 112.478 -24.938  1.00  0.00     0.048 C 
HETATM   10  C19         0      16.454 111.390 -25.801  1.00  0.00     0.096 C 
HETATM   11  C21         0      15.907 110.209 -25.380  1.00  0.00     0.084 C 
ENDROOT
BRANCH  10  12
HETATM   12  O20         0      16.570 111.604 -27.171  1.00  0.00    -0.359 OA
HETATM   13  H20         0      16.486 110.854 -27.747  1.00  0.00     0.218 HD
ENDBRANCH  10  12
BRANCH   4  14
HETATM   14  C5          0      14.025 106.869 -23.848  1.00  0.00     0.025 C 
HETATM   15  C6          0      13.592 106.878 -22.530  1.00  0.00     0.004 C 
HETATM   16  C7          0      12.266 106.538 -22.285  1.00  0.00     0.026 C 
HETATM   17  C8          0      11.433 106.075 -23.298  1.00  0.00     0.112 C 
HETATM   18  C10         0      12.094 105.513 -24.381  1.00  0.00     0.112 C 
HETATM   19  C12         0      13.391 105.934 -24.654  1.00  0.00     0.028 C 
BRANCH  17  20
HETATM   20  O9          0      10.079 106.361 -23.288  1.00  0.00    -0.357 OA
HETATM   21  H9          0       9.516 106.225 -22.535  1.00  0.00     0.218 HD
ENDBRANCH  17  20
BRANCH  18  22
HETATM   22  O11         0      11.313 104.868 -25.329  1.00  0.00    -0.357 OA
HETATM   23  H11         0      11.660 104.064 -25.698  1.00  0.00     0.218 HD
ENDBRANCH  18  22
ENDBRANCH   4  14
BRANCH   8  24
HETATM   24  O17         0      15.285 113.450 -23.058  1.00  0.00    -0.359 OA
HETATM   25  H17         0      14.880 114.136 -23.575  1.00  0.00     0.218 HD
ENDBRANCH   8  24
TORSDOF 5
ENDMDL
MODEL 9
REMARK VINA RESULT:       0.0      5.944      7.661
REMARK  5 active torsions:
REMARK  status: ('A' for Active; 'I' for Inactive)
REMARK    1  A    between atoms: C4_4  and  C5_5 
REMARK    2  A    between atoms: C8_8  and  O9_9 
REMARK    3  A    between atoms: C10_11  and  O11_12 
REMARK    4  A    between atoms: C16_18  and  O17_19 
REMARK    5  A    between atoms: C19_22  and  O20_23 
ROOT
HETATM    1  O1          0       9.245 110.778 -27.102  1.00  0.00    -0.286 OA
HETATM    2  C2          0      10.133 111.154 -27.915  1.00  0.00     0.201 C 
HETATM    3  C3          0      11.407 111.524 -27.517  1.00  0.00     0.067 C 
HETATM    4  C4          0      12.334 112.032 -28.420  1.00  0.00     0.103 C 
HETATM    5  O13         0      11.988 112.142 -29.690  1.00  0.00    -0.307 OA
HETATM    6  C14         0      10.780 111.841 -30.115  1.00  0.00     0.107 C 
HETATM    7  C15         0      10.289 112.318 -31.322  1.00  0.00     0.049 C 
HETATM    8  C16         0       8.942 112.213 -31.645  1.00  0.00     0.093 C 
HETATM    9  C18         0       8.261 111.189 -30.998  1.00  0.00     0.048 C 
HETATM   10  C19         0       8.749 110.657 -29.812  1.00  0.00     0.096 C 
HETATM   11  C21         0       9.918 111.133 -29.285  1.00  0.00     0.084 C 
ENDROOT
BRANCH  10  12
HETATM   12  O20         0       7.881 109.975 -28.965  1.00  0.00    -0.359 OA
HETATM   13  H20         0       7.853 110.235 -28.052  1.00  0.00     0.218 HD
ENDBRANCH  10  12
BRANCH   4  14
HETATM   14  C5          0      13.364 112.927 -27.890  1.00  0.00     0.025 C 
HETATM   15  C6          0      13.984 113.900 -28.660  1.00  0.00     0.004 C 
HETATM   16  C7          0      14.266 115.120 -28.054  1.00  0.00     0.026 C 
HETATM   17  C8          0      14.063 115.321 -26.693  1.00  0.00     0.112 C 
HETATM   18  C10         0      14.059 114.162 -25.929  1.00  0.00     0.112 C 
HETATM   19  C12         0      13.691 112.969 -26.541  1.00  0.00     0.028 C 
BRANCH  17  20
HETATM   20  O9          0      13.687 116.562 -26.208  1.00  0.00    -0.357 OA
HETATM   21  H9          0      12.869 116.990 -26.433  1.00  0.00     0.218 HD
ENDBRANCH  17  20
BRANCH  18  22
HETATM   22  O11         0      14.050 114.317 -24.550  1.00  0.00    -0.357 OA
HETATM   23  H11         0      14.874 114.183 -24.097  1.00  0.00     0.218 HD
ENDBRANCH  18  22
ENDBRANCH   4  14
BRANCH   8  24
HETATM   24  O17         0       8.265 113.251 -32.295  1.00  0.00    -0.359 OA
HETATM   25  H17         0       7.940 113.157 -33.182  1.00  0.00     0.218 HD
ENDBRANCH   8  24
TORSDOF 5
ENDMDL
