MODEL 1
REMARK VINA RESULT:      -0.0      0.000      0.000
REMARK  5 active torsions:
REMARK  status: ('A' for Active; 'I' for Inactive)
REMARK    1  A    between atoms: C4_4  and  C5_5 
REMARK    2  A    between atoms: C8_8  and  O9_9 
REMARK    3  A    between atoms: C10_11  and  O11_12 
REMARK    4  A    between atoms: C16_18  and  O17_19 
REMARK    5  A    between atoms: C19_22  and  O20_23 
ROOT
HETATM    1  O1          0      10.467  58.606  41.101  1.00  0.00    -0.286 OA
HETATM    2  C2          0      11.268  59.299  41.786  1.00  0.00     0.201 C 
HETATM    3  C3          0      11.966  60.375  41.263  1.00  0.00     0.067 C 
HETATM    4  C4          0      12.919  61.058  42.010  1.00  0.00     0.103 C 
HETATM    5  O13         0      13.143  60.676  43.255  1.00  0.00    -0.307 OA
HETATM    6  C14         0      12.535  59.638  43.788  1.00  0.00     0.107 C 
HETATM    7  C15         0      13.035  58.996  44.912  1.00  0.00     0.049 C 
HETATM    8  C16         0      12.541  57.762  45.317  1.00  0.00     0.093 C 
HETATM    9  C18         0      11.244  57.484  44.902  1.00  0.00     0.048 C 
HETATM   10  C19         0      10.696  58.142  43.810  1.00  0.00     0.096 C 
HETATM   11  C21         0      11.433  59.084  43.146  1.00  0.00     0.084 C 
ENDROOT
BRANCH  10  12
HETATM   12  O20         0       9.613  57.573  43.146  1.00  0.00    -0.359 OA
HETATM   13  H20         0       8.754  57.661  43.541  1.00  0.00     0.218 HD
ENDBRANCH  10  12
BRANCH   4  14
HETATM   14  C5          0      13.994  61.726  41.274  1.00  0.00     0.025 C 
HETATM   15  C6          0      15.246  61.963  41.822  1.00  0.00     0.004 C 
HETATM   16  C7          0      16.352  61.818  40.990  1.00  0.00     0.026 C 
HETATM   17  C8          0      16.213  61.578  39.627  1.00  0.00     0.112 C 
HETATM   18  C10         0      14.999  61.983  39.088  1.00  0.00     0.112 C 
HETATM   19  C12         0      13.890  62.037  39.924  1.00  0.00     0.028 C 
BRANCH  17  20
HETATM   20  O9          0      17.137  60.806  38.945  1.00  0.00    -0.357 OA
HETATM   21  H9          0      17.618  61.109  38.184  1.00  0.00     0.218 HD
ENDBRANCH  17  20
BRANCH  18  22
HETATM   22  O11         0      14.880  61.941  37.706  1.00  0.00    -0.357 OA
HETATM   23  H11         0      15.503  62.455  37.205  1.00  0.00     0.218 HD
ENDBRANCH  18  22
ENDBRANCH   4  14
BRANCH   8  24
HETATM   24  O17         0      13.390  56.760  45.800  1.00  0.00    -0.359 OA
HETATM   25  H17         0      13.311  55.858  45.515  1.00  0.00     0.218 HD
ENDBRANCH   8  24
TORSDOF 5
ENDMDL
MODEL 2
REMARK VINA RESULT:      -0.0      7.095     10.089
REMARK  5 active torsions:
REMARK  status: ('A' for Active; 'I' for Inactive)
REMARK    1  A    between atoms: C4_4  and  C5_5 
REMARK    2  A    between atoms: C8_8  and  O9_9 
REMARK    3  A    between atoms: C10_11  and  O11_12 
REMARK    4  A    between atoms: C16_18  and  O17_19 
REMARK    5  A    between atoms: C19_22  and  O20_23 
ROOT
HETATM    1  O1          0       7.152  55.768  36.701  1.00  0.00    -0.286 OA
HETATM    2  C2          0       7.293  56.590  37.647  1.00  0.00     0.201 C 
HETATM    3  C3          0       6.879  56.323  38.941  1.00  0.00     0.067 C 
HETATM    4  C4          0       6.953  57.285  39.942  1.00  0.00     0.103 C 
HETATM    5  O13         0       7.451  58.472  39.646  1.00  0.00    -0.307 OA
HETATM    6  C14         0       7.824  58.790  38.426  1.00  0.00     0.107 C 
HETATM    7  C15         0       7.962  60.110  38.024  1.00  0.00     0.049 C 
HETATM    8  C16         0       8.104  60.445  36.683  1.00  0.00     0.093 C 
HETATM    9  C18         0       8.623  59.438  35.878  1.00  0.00     0.048 C 
HETATM   10  C19         0       8.544  58.109  36.272  1.00  0.00     0.096 C 
HETATM   11  C21         0       7.965  57.790  37.470  1.00  0.00     0.084 C 
ENDROOT
BRANCH  10  12
HETATM   12  O20         0       8.653  57.108  35.312  1.00  0.00    -0.359 OA
HETATM   13  H20         0       8.328  56.243  35.532  1.00  0.00     0.218 HD
ENDBRANCH  10  12
BRANCH   4  14
HETATM   14  C5          0       5.998  57.176  41.047  1.00  0.00     0.025 C 
HETATM   15  C6          0       5.579  58.271  41.789  1.00  0.00     0.004 C 
HETATM   16  C7          0       4.246  58.311  42.182  1.00  0.00     0.026 C 
HETATM   17  C8          0       3.388  57.238  41.963  1.00  0.00     0.112 C 
HETATM   18  C10         0       4.021  56.012  41.813  1.00  0.00     0.112 C 
HETATM   19  C12         0       5.326  55.996  41.337  1.00  0.00     0.028 C 
BRANCH  17  20
HETATM   20  O9          0       2.044  57.446  41.708  1.00  0.00    -0.357 OA
HETATM   21  H9          0       1.507  58.069  42.184  1.00  0.00     0.218 HD
ENDBRANCH  17  20
BRANCH  18  22
HETATM   22  O11         0       3.210  54.886  41.781  1.00  0.00    -0.357 OA
HETATM   23  H11         0       2.973  54.502  42.618  1.00  0.00     0.218 HD
ENDBRANCH  18  22
ENDBRANCH   4  14
BRANCH   8  24
HETATM   24  O17         0       7.467  61.566  36.139  1.00  0.00    -0.359 OA
HETATM   25  H17         0       6.569  61.529  35.831  1.00  0.00     0.218 HD
ENDBRANCH   8  24
TORSDOF 5
ENDMDL
MODEL 3
REMARK VINA RESULT:       0.0      4.958      6.331
REMARK  5 active torsions:
REMARK  status: ('A' for Active; 'I' for Inactive)
REMARK    1  A    between atoms: C4_4  and  C5_5 
REMARK    2  A    between atoms: C8_8  and  O9_9 
REMARK    3  A    between atoms: C10_11  and  O11_12 
REMARK    4  A    between atoms: C16_18  and  O17_19 
REMARK    5  A    between atoms: C19_22  and  O20_23 
ROOT
HETATM    1  O1          0      11.522  61.901  41.207  1.00  0.00    -0.286 OA
HETATM    2  C2          0      10.829  62.778  40.621  1.00  0.00     0.201 C 
HETATM    3  C3          0      11.139  63.261  39.361  1.00  0.00     0.067 C 
HETATM    4  C4          0      10.420  64.300  38.782  1.00  0.00     0.103 C 
HETATM    5  O13         0       9.404  64.818  39.450  1.00  0.00    -0.307 OA
HETATM    6  C14         0       9.091  64.422  40.664  1.00  0.00     0.107 C 
HETATM    7  C15         0       8.317  65.203  41.511  1.00  0.00     0.049 C 
HETATM    8  C16         0       8.201  64.905  42.863  1.00  0.00     0.093 C 
HETATM    9  C18         0       8.427  63.573  43.192  1.00  0.00     0.048 C 
HETATM   10  C19         0       9.158  62.752  42.345  1.00  0.00     0.096 C 
HETATM   11  C21         0       9.647  63.252  41.169  1.00  0.00     0.084 C 
ENDROOT
BRANCH  10  12
HETATM   12  O20         0       9.742  61.596  42.855  1.00  0.00    -0.359 OA
HETATM   13  H20         0      10.042  60.939  42.238  1.00  0.00     0.218 HD
ENDBRANCH  10  12
BRANCH   4  14
HETATM   14  C5          0      11.118  65.134  37.803  1.00  0.00     0.025 C 
HETATM   15  C6          0      10.771  66.455  37.556  1.00  0.00     0.004 C 
HETATM   16  C7          0      11.802  67.359  37.322  1.00  0.00     0.026 C 
HETATM   17  C8          0      13.124  66.944  37.204  1.00  0.00     0.112 C 
HETATM   18  C10         0      13.284  65.614  36.836  1.00  0.00     0.112 C 
HETATM   19  C12         0      12.275  64.715  37.157  1.00  0.00     0.028 C 
BRANCH  17  20
HETATM   20  O9          0      14.162  67.752  37.633  1.00  0.00    -0.357 OA
HETATM   21  H9          0      15.081  67.527  37.538  1.00  0.00     0.218 HD
ENDBRANCH  17  20
BRANCH  18  22
HETATM   22  O11         0      14.570  65.200  36.521  1.00  0.00    -0.357 OA
HETATM   23  H11         0      15.120  65.819  36.056  1.00  0.00     0.218 HD
ENDBRANCH  18  22
ENDBRANCH   4  14
BRANCH   8  24
HETATM   24  O17         0       8.198  65.912  43.834  1.00  0.00    -0.359 OA
HETATM   25  H17         0       8.687  66.718  43.718  1.00  0.00     0.218 HD
ENDBRANCH   8  24
TORSDOF 5
ENDMDL
MODEL 4
REMARK VINA RESULT:       0.0      8.172     10.109
REMARK  5 active torsions:
REMARK  status: ('A' for Active; 'I' for Inactive)
REMARK    1  A    between atoms: C4_4  and  C5_5 
REMARK    2  A    between atoms: C8_8  and  O9_9 
REMARK    3  A    between atoms: C10_11  and  O11_12 
REMARK    4  A    between atoms: C16_18  and  O17_19 
REMARK    5  A    between atoms: C19_22  and  O20_23 
ROOT
HETATM    1  O1          0       7.712  61.072  31.221  1.00  0.00    -0.286 OA
HETATM    2  C2          0       7.950  60.852  32.440  1.00  0.00     0.201 C 
HETATM    3  C3          0       7.553  61.712  33.450  1.00  0.00     0.067 C 
HETATM    4  C4          0       7.918  61.499  34.774  1.00  0.00     0.103 C 
HETATM    5  O13         0       8.644  60.435  35.069  1.00  0.00    -0.307 OA
HETATM    6  C14         0       9.079  59.607  34.144  1.00  0.00     0.107 C 
HETATM    7  C15         0      10.142  58.746  34.375  1.00  0.00     0.049 C 
HETATM    8  C16         0      10.758  58.064  33.333  1.00  0.00     0.093 C 
HETATM    9  C18         0       9.964  57.868  32.209  1.00  0.00     0.048 C 
HETATM   10  C19         0       8.865  58.682  31.972  1.00  0.00     0.096 C 
HETATM   11  C21         0       8.550  59.674  32.860  1.00  0.00     0.084 C 
ENDROOT
BRANCH  10  12
HETATM   12  O20         0       8.354  58.776  30.681  1.00  0.00    -0.359 OA
HETATM   13  H20         0       7.463  58.482  30.532  1.00  0.00     0.218 HD
ENDBRANCH  10  12
BRANCH   4  14
HETATM   14  C5          0       8.004  62.674  35.643  1.00  0.00     0.025 C 
HETATM   15  C6          0       8.830  62.727  36.756  1.00  0.00     0.004 C 
HETATM   16  C7          0       9.474  63.931  37.025  1.00  0.00     0.026 C 
HETATM   17  C8          0       9.204  65.081  36.292  1.00  0.00     0.112 C 
HETATM   18  C10         0       7.964  65.093  35.667  1.00  0.00     0.112 C 
HETATM   19  C12         0       7.382  63.876  35.333  1.00  0.00     0.028 C 
BRANCH  17  20
HETATM   20  O9          0      10.194  66.018  36.053  1.00  0.00    -0.357 OA
HETATM   21  H9          0      10.526  66.615  36.714  1.00  0.00     0.218 HD
ENDBRANCH  17  20
BRANCH  18  22
HETATM   22  O11         0       7.567  66.287  35.082  1.00  0.00    -0.357 OA
HETATM   23  H11         0       6.927  66.806  35.557  1.00  0.00     0.218 HD
ENDBRANCH  18  22
ENDBRANCH   4  14
BRANCH   8  24
HETATM   24  O17         0      12.146  57.896  33.291  1.00  0.00    -0.359 OA
HETATM   25  H17         0      12.553  57.057  33.468  1.00  0.00     0.218 HD
ENDBRANCH   8  24
TORSDOF 5
ENDMDL
MODEL 5
REMARK VINA RESULT:       0.0      6.524      9.534
REMARK  5 active torsions:
REMARK  status: ('A' for Active; 'I' for Inactive)
REMARK    1  A    between atoms: C4_4  and  C5_5 
REMARK    2  A    between atoms: C8_8  and  O9_9 
REMARK    3  A    between atoms: C10_11  and  O11_12 
REMARK    4  A    between atoms: C16_18  and  O17_19 
REMARK    5  A    between atoms: C19_22  and  O20_23 
ROOT
HETATM    1  O1          0      14.861  59.636  31.964  1.00  0.00    -0.286 OA
HETATM    2  C2          0      14.723  59.079  33.088  1.00  0.00     0.201 C 
HETATM    3  C3          0      13.685  58.209  33.372  1.00  0.00     0.067 C 
HETATM    4  C4          0      13.498  57.689  34.648  1.00  0.00     0.103 C 
HETATM    5  O13         0      14.349  58.025  35.601  1.00  0.00    -0.307 OA
HETATM    6  C14         0      15.329  58.877  35.394  1.00  0.00     0.107 C 
HETATM    7  C15         0      15.961  59.531  36.442  1.00  0.00     0.049 C 
HETATM    8  C16         0      16.811  60.607  36.212  1.00  0.00     0.093 C 
HETATM    9  C18         0      17.390  60.639  34.950  1.00  0.00     0.048 C 
HETATM   10  C19         0      16.810  59.956  33.890  1.00  0.00     0.096 C 
HETATM   11  C21         0      15.666  59.232  34.093  1.00  0.00     0.084 C 
ENDROOT
BRANCH  10  12
HETATM   12  O20         0      17.121  60.331  32.586  1.00  0.00    -0.359 OA
HETATM   13  H20         0      17.369  61.235  32.431  1.00  0.00     0.218 HD
ENDBRANCH  10  12
BRANCH   4  14
HETATM   14  C5          0      12.134  57.308  35.022  1.00  0.00     0.025 C 
HETATM   15  C6          0      11.690  57.299  36.336  1.00  0.00     0.004 C 
HETATM   16  C7          0      10.388  57.725  36.579  1.00  0.00     0.026 C 
HETATM   17  C8          0       9.512  58.021  35.541  1.00  0.00     0.112 C 
HETATM   18  C10         0       9.818  57.410  34.332  1.00  0.00     0.112 C 
HETATM   19  C12         0      11.142  57.072  34.079  1.00  0.00     0.028 C 
BRANCH  17  20
HETATM   20  O9          0       8.555  59.010  35.681  1.00  0.00    -0.357 OA
HETATM   21  H9          0       7.692  58.861  36.049  1.00  0.00     0.218 HD
ENDBRANCH  17  20
BRANCH  18  22
HETATM   22  O11         0       8.877  57.518  33.317  1.00  0.00    -0.357 OA
HETATM   23  H11         0       8.836  56.804  32.692  1.00  0.00     0.218 HD
ENDBRANCH  18  22
ENDBRANCH   4  14
BRANCH   8  24
HETATM   24  O17         0      16.810  61.728  37.050  1.00  0.00    -0.359 OA
HETATM   25  H17         0      16.909  61.648  37.991  1.00  0.00     0.218 HD
ENDBRANCH   8  24
TORSDOF 5
ENDMDL
MODEL 6
REMARK VINA RESULT:       0.0      6.450     10.157
REMARK  5 active torsions:
REMARK  status: ('A' for Active; 'I' for Inactive)
REMARK    1  A    between atoms: C4_4  and  C5_5 
REMARK    2  A    between atoms: C8_8  and  O9_9 
REMARK    3  A    between atoms: C10_11  and  O11_12 
REMARK    4  A    between atoms: C16_18  and  O17_19 
REMARK    5  A    between atoms: C19_22  and  O20_23 
ROOT
HETATM    1  O1          0       8.904  58.901  40.320  1.00  0.00    -0.286 OA
HETATM    2  C2          0       8.109  58.751  39.352  1.00  0.00     0.201 C 
HETATM    3  C3          0       6.796  58.343  39.517  1.00  0.00     0.067 C 
HETATM    4  C4          0       5.971  58.086  38.428  1.00  0.00     0.103 C 
HETATM    5  O13         0       6.454  58.259  37.210  1.00  0.00    -0.307 OA
HETATM    6  C14         0       7.704  58.609  36.998  1.00  0.00     0.107 C 
HETATM    7  C15         0       8.321  58.406  35.772  1.00  0.00     0.049 C 
HETATM    8  C16         0       9.697  58.537  35.626  1.00  0.00     0.093 C 
HETATM    9  C18         0      10.310  59.362  36.561  1.00  0.00     0.048 C 
HETATM   10  C19         0       9.699  59.624  37.780  1.00  0.00     0.096 C 
HETATM   11  C21         0       8.474  59.079  38.056  1.00  0.00     0.084 C 
ENDROOT
BRANCH  10  12
HETATM   12  O20         0      10.473  60.065  38.849  1.00  0.00    -0.359 OA
HETATM   13  H20         0      10.411  60.979  39.096  1.00  0.00     0.218 HD
ENDBRANCH  10  12
BRANCH   4  14
HETATM   14  C5          0       4.881  57.128  38.624  1.00  0.00     0.025 C 
HETATM   15  C6          0       4.343  56.379  37.588  1.00  0.00     0.004 C 
HETATM   16  C7          0       3.986  55.063  37.863  1.00  0.00     0.026 C 
HETATM   17  C8          0       4.035  54.548  39.154  1.00  0.00     0.112 C 
HETATM   18  C10         0       3.964  55.500  40.161  1.00  0.00     0.112 C 
HETATM   19  C12         0       4.407  56.788  39.885  1.00  0.00     0.028 C 
BRANCH  17  20
HETATM   20  O9          0       4.345  53.217  39.374  1.00  0.00    -0.357 OA
HETATM   21  H9          0       4.439  52.575  38.681  1.00  0.00     0.218 HD
ENDBRANCH  17  20
BRANCH  18  22
HETATM   22  O11         0       3.819  55.032  41.459  1.00  0.00    -0.357 OA
HETATM   23  H11         0       3.258  54.275  41.583  1.00  0.00     0.218 HD
ENDBRANCH  18  22
ENDBRANCH   4  14
BRANCH   8  24
HETATM   24  O17         0      10.434  57.654  34.830  1.00  0.00    -0.359 OA
HETATM   25  H17         0      11.377  57.725  34.746  1.00  0.00     0.218 HD
ENDBRANCH   8  24
TORSDOF 5
ENDMDL
MODEL 7
REMARK VINA RESULT:       0.0      4.725      8.334
REMARK  5 active torsions:
REMARK  status: ('A' for Active; 'I' for Inactive)
REMARK    1  A    between atoms: C4_4  and  C5_5 
REMARK    2  A    between atoms: C8_8  and  O9_9 
REMARK    3  A    between atoms: C10_11  and  O11_12 
REMARK    4  A    between atoms: C16_18  and  O17_19 
REMARK    5  A    between atoms: C19_22  and  O20_23 
ROOT
HETATM    1  O1          0       9.908  61.396  39.041  1.00  0.00    -0.286 OA
HETATM    2  C2          0       9.068  61.632  39.952  1.00  0.00     0.201 C 
HETATM    3  C3          0       9.230  61.192  41.255  1.00  0.00     0.067 C 
HETATM    4  C4          0       8.242  61.378  42.215  1.00  0.00     0.103 C 
HETATM    5  O13         0       7.133  62.009  41.871  1.00  0.00    -0.307 OA
HETATM    6  C14         0       6.913  62.414  40.639  1.00  0.00     0.107 C 
HETATM    7  C15         0       5.635  62.702  40.182  1.00  0.00     0.049 C 
HETATM    8  C16         0       5.376  62.880  38.829  1.00  0.00     0.093 C 
HETATM    9  C18         0       6.469  63.278  38.069  1.00  0.00     0.048 C 
HETATM   10  C19         0       7.762  63.047  38.518  1.00  0.00     0.096 C 
HETATM   11  C21         0       7.962  62.437  39.727  1.00  0.00     0.084 C 
ENDROOT
BRANCH  10  12
HETATM   12  O20         0       8.809  63.039  37.602  1.00  0.00    -0.359 OA
HETATM   13  H20         0       9.454  62.345  37.670  1.00  0.00     0.218 HD
ENDBRANCH  10  12
BRANCH   4  14
HETATM   14  C5          0       8.193  60.418  43.320  1.00  0.00     0.025 C 
HETATM   15  C6          0       7.027  60.129  44.013  1.00  0.00     0.004 C 
HETATM   16  C7          0       6.818  58.809  44.400  1.00  0.00     0.026 C 
HETATM   17  C8          0       7.793  57.834  44.224  1.00  0.00     0.112 C 
HETATM   18  C10         0       9.090  58.321  44.128  1.00  0.00     0.112 C 
HETATM   19  C12         0       9.275  59.616  43.657  1.00  0.00     0.028 C 
BRANCH  17  20
HETATM   20  O9          0       7.444  56.522  43.956  1.00  0.00    -0.357 OA
HETATM   21  H9          0       6.557  56.187  44.025  1.00  0.00     0.218 HD
ENDBRANCH  17  20
BRANCH  18  22
HETATM   22  O11         0      10.115  57.387  44.141  1.00  0.00    -0.357 OA
HETATM   23  H11         0      10.190  56.841  44.916  1.00  0.00     0.218 HD
ENDBRANCH  18  22
ENDBRANCH   4  14
BRANCH   8  24
HETATM   24  O17         0       4.213  62.375  38.237  1.00  0.00    -0.359 OA
HETATM   25  H17         0       4.116  62.321  37.293  1.00  0.00     0.218 HD
ENDBRANCH   8  24
TORSDOF 5
ENDMDL
MODEL 8
REMARK VINA RESULT:       0.0      4.192      8.249
REMARK  5 active torsions:
REMARK  status: ('A' for Active; 'I' for Inactive)
REMARK    1  A    between atoms: C4_4  and  C5_5 
REMARK    2  A    between atoms: C8_8  and  O9_9 
REMARK    3  A    between atoms: C10_11  and  O11_12 
REMARK    4  A    between atoms: C16_18  and  O17_19 
REMARK    5  A    between atoms: C19_22  and  O20_23 
ROOT
HETATM    1  O1          0      11.364  60.337  38.604  1.00  0.00    -0.286 OA
HETATM    2  C2          0      10.278  60.572  39.200  1.00  0.00     0.201 C 
HETATM    3  C3          0       9.991  60.074  40.460  1.00  0.00     0.067 C 
HETATM    4  C4          0       8.747  60.262  41.051  1.00  0.00     0.103 C 
HETATM    5  O13         0       7.830  60.952  40.396  1.00  0.00    -0.307 OA
HETATM    6  C14         0       8.038  61.414  39.182  1.00  0.00     0.107 C 
HETATM    7  C15         0       6.990  61.773  38.347  1.00  0.00     0.049 C 
HETATM    8  C16         0       7.195  62.015  36.995  1.00  0.00     0.093 C 
HETATM    9  C18         0       8.488  62.398  36.656  1.00  0.00     0.048 C 
HETATM   10  C19         0       9.554  62.095  37.492  1.00  0.00     0.096 C 
HETATM   11  C21         0       9.329  61.430  38.667  1.00  0.00     0.084 C 
ENDROOT
BRANCH  10  12
HETATM   12  O20         0      10.844  62.080  36.970  1.00  0.00    -0.359 OA
HETATM   13  H20         0      11.326  62.898  36.951  1.00  0.00     0.218 HD
ENDBRANCH  10  12
BRANCH   4  14
HETATM   14  C5          0       8.311  59.263  42.029  1.00  0.00     0.025 C 
HETATM   15  C6          0       6.975  58.995  42.286  1.00  0.00     0.004 C 
HETATM   16  C7          0       6.615  57.670  42.515  1.00  0.00     0.026 C 
HETATM   17  C8          0       7.569  56.663  42.619  1.00  0.00     0.112 C 
HETATM   18  C10         0       8.837  57.100  42.978  1.00  0.00     0.112 C 
HETATM   19  C12         0       9.201  58.403  42.661  1.00  0.00     0.028 C 
BRANCH  17  20
HETATM   20  O9          0       7.293  55.379  42.185  1.00  0.00    -0.357 OA
HETATM   21  H9          0       7.030  54.671  42.762  1.00  0.00     0.218 HD
ENDBRANCH  17  20
BRANCH  18  22
HETATM   22  O11         0       9.776  56.124  43.279  1.00  0.00    -0.357 OA
HETATM   23  H11         0      10.594  56.417  43.663  1.00  0.00     0.218 HD
ENDBRANCH  18  22
ENDBRANCH   4  14
BRANCH   8  24
HETATM   24  O17         0       6.280  61.583  36.029  1.00  0.00    -0.359 OA
HETATM   25  H17         0       6.497  61.570  35.105  1.00  0.00     0.218 HD
ENDBRANCH   8  24
TORSDOF 5
ENDMDL
MODEL 9
REMARK VINA RESULT:       0.0      6.812      9.952
REMARK  5 active torsions:
REMARK  status: ('A' for Active; 'I' for Inactive)
REMARK    1  A    between atoms: C4_4  and  C5_5 
REMARK    2  A    between atoms: C8_8  and  O9_9 
REMARK    3  A    between atoms: C10_11  and  O11_12 
REMARK    4  A    between atoms: C16_18  and  O17_19 
REMARK    5  A    between atoms: C19_22  and  O20_23 
ROOT
HETATM    1  O1          0       9.798  57.434  45.069  1.00  0.00    -0.286 OA
HETATM    2  C2          0       9.742  56.973  46.242  1.00  0.00     0.201 C 
HETATM    3  C3          0      10.077  55.665  46.551  1.00  0.00     0.067 C 
HETATM    4  C4          0       9.909  55.154  47.832  1.00  0.00     0.103 C 
HETATM    5  O13         0       9.435  55.948  48.776  1.00  0.00    -0.307 OA
HETATM    6  C14         0       9.066  57.186  48.528  1.00  0.00     0.107 C 
HETATM    7  C15         0       8.218  57.880  49.378  1.00  0.00     0.049 C 
HETATM    8  C16         0       7.631  59.079  48.992  1.00  0.00     0.093 C 
HETATM    9  C18         0       8.319  59.778  48.007  1.00  0.00     0.048 C 
HETATM   10  C19         0       9.210  59.123  47.168  1.00  0.00     0.096 C 
HETATM   11  C21         0       9.427  57.781  47.324  1.00  0.00     0.084 C 
ENDROOT
BRANCH  10  12
HETATM   12  O20         0       9.548  59.701  45.949  1.00  0.00    -0.359 OA
HETATM   13  H20         0       9.253  59.271  45.155  1.00  0.00     0.218 HD
ENDBRANCH  10  12
BRANCH   4  14
HETATM   14  C5          0       9.697  53.710  47.955  1.00  0.00     0.025 C 
HETATM   15  C6          0       9.004  53.138  49.012  1.00  0.00     0.004 C 
HETATM   16  C7          0       8.177  52.056  48.731  1.00  0.00     0.026 C 
HETATM   17  C8          0       8.141  51.474  47.468  1.00  0.00     0.112 C 
HETATM   18  C10         0       9.279  51.683  46.701  1.00  0.00     0.112 C 
HETATM   19  C12         0      10.041  52.819  46.946  1.00  0.00     0.028 C 
BRANCH  17  20
HETATM   20  O9          0       6.971  50.925  46.974  1.00  0.00    -0.357 OA
HETATM   21  H9          0       6.886  50.562  46.100  1.00  0.00     0.218 HD
ENDBRANCH  17  20
BRANCH  18  22
HETATM   22  O11         0       9.375  50.972  45.513  1.00  0.00    -0.357 OA
HETATM   23  H11         0       9.988  50.246  45.495  1.00  0.00     0.218 HD
ENDBRANCH  18  22
ENDBRANCH   4  14
BRANCH   8  24
HETATM   24  O17         0       6.304  59.380  49.317  1.00  0.00    -0.359 OA
HETATM   25  H17         0       5.599  59.270  48.689  1.00  0.00     0.218 HD
ENDBRANCH   8  24
TORSDOF 5
ENDMDL
