MODEL 1
REMARK VINA RESULT:      -5.6      0.000      0.000
REMARK  5 active torsions:
REMARK  status: ('A' for Active; 'I' for Inactive)
REMARK    1  A    between atoms: C4_4  and  C5_5 
REMARK    2  A    between atoms: C8_8  and  O9_9 
REMARK    3  A    between atoms: C10_11  and  O11_12 
REMARK    4  A    between atoms: C16_18  and  O17_19 
REMARK    5  A    between atoms: C19_22  and  O20_23 
ROOT
HETATM    1  O1          0      57.489  50.022  -9.243  1.00  0.00    -0.286 OA
HETATM    2  C2          0      57.058  51.196  -9.074  1.00  0.00     0.201 C 
HETATM    3  C3          0      56.111  51.774  -9.902  1.00  0.00     0.067 C 
HETATM    4  C4          0      55.729  53.102  -9.757  1.00  0.00     0.103 C 
HETATM    5  O13         0      56.274  53.817  -8.788  1.00  0.00    -0.307 OA
HETATM    6  C14         0      57.205  53.329  -7.998  1.00  0.00     0.107 C 
HETATM    7  C15         0      58.051  54.152  -7.269  1.00  0.00     0.049 C 
HETATM    8  C16         0      59.184  53.649  -6.642  1.00  0.00     0.093 C 
HETATM    9  C18         0      59.133  52.294  -6.336  1.00  0.00     0.048 C 
HETATM   10  C19         0      58.265  51.450  -7.015  1.00  0.00     0.096 C 
HETATM   11  C21         0      57.441  51.958  -7.981  1.00  0.00     0.084 C 
ENDROOT
BRANCH  10  12
HETATM   12  O20         0      58.517  50.081  -7.025  1.00  0.00    -0.359 OA
HETATM   13  H20         0      57.961  49.523  -6.495  1.00  0.00     0.218 HD
ENDBRANCH  10  12
BRANCH   4  14
HETATM   14  C5          0      55.236  53.793 -10.950  1.00  0.00     0.025 C 
HETATM   15  C6          0      54.429  53.177 -11.895  1.00  0.00     0.004 C 
HETATM   16  C7          0      53.410  53.934 -12.464  1.00  0.00     0.026 C 
HETATM   17  C8          0      53.280  55.294 -12.205  1.00  0.00     0.112 C 
HETATM   18  C10         0      54.448  55.920 -11.792  1.00  0.00     0.112 C 
HETATM   19  C12         0      55.415  55.155 -11.149  1.00  0.00     0.028 C 
BRANCH  17  20
HETATM   20  O9          0      52.033  55.892 -12.165  1.00  0.00    -0.357 OA
HETATM   21  H9          0      51.372  55.693 -11.511  1.00  0.00     0.218 HD
ENDBRANCH  17  20
BRANCH  18  22
HETATM   22  O11         0      54.422  57.304 -11.702  1.00  0.00    -0.357 OA
HETATM   23  H11         0      53.731  57.753 -12.176  1.00  0.00     0.218 HD
ENDBRANCH  18  22
ENDBRANCH   4  14
BRANCH   8  24
HETATM   24  O17         0      60.389  54.360  -6.633  1.00  0.00    -0.359 OA
HETATM   25  H17         0      61.222  53.933  -6.793  1.00  0.00     0.218 HD
ENDBRANCH   8  24
TORSDOF 5
ENDMDL
MODEL 2
REMARK VINA RESULT:      -5.4      3.345      6.798
REMARK  5 active torsions:
REMARK  status: ('A' for Active; 'I' for Inactive)
REMARK    1  A    between atoms: C4_4  and  C5_5 
REMARK    2  A    between atoms: C8_8  and  O9_9 
REMARK    3  A    between atoms: C10_11  and  O11_12 
REMARK    4  A    between atoms: C16_18  and  O17_19 
REMARK    5  A    between atoms: C19_22  and  O20_23 
ROOT
HETATM    1  O1          0      56.567  57.496  -9.495  1.00  0.00    -0.286 OA
HETATM    2  C2          0      57.029  56.759  -8.581  1.00  0.00     0.201 C 
HETATM    3  C3          0      57.898  55.710  -8.830  1.00  0.00     0.067 C 
HETATM    4  C4          0      58.310  54.850  -7.819  1.00  0.00     0.103 C 
HETATM    5  O13         0      57.873  55.060  -6.590  1.00  0.00    -0.307 OA
HETATM    6  C14         0      57.018  56.018  -6.306  1.00  0.00     0.107 C 
HETATM    7  C15         0      56.260  56.000  -5.144  1.00  0.00     0.049 C 
HETATM    8  C16         0      55.187  56.866  -4.969  1.00  0.00     0.093 C 
HETATM    9  C18         0      55.249  58.036  -5.716  1.00  0.00     0.048 C 
HETATM   10  C19         0      56.035  58.103  -6.858  1.00  0.00     0.096 C 
HETATM   11  C21         0      56.767  57.013  -7.244  1.00  0.00     0.084 C 
ENDROOT
BRANCH  10  12
HETATM   12  O20         0      55.765  59.079  -7.813  1.00  0.00    -0.359 OA
HETATM   13  H20         0      55.051  59.681  -7.645  1.00  0.00     0.218 HD
ENDBRANCH  10  12
BRANCH   4  14
HETATM   14  C5          0      58.692  53.492  -8.209  1.00  0.00     0.025 C 
HETATM   15  C6          0      59.776  53.222  -9.032  1.00  0.00     0.004 C 
HETATM   16  C7          0      60.544  52.100  -8.739  1.00  0.00     0.026 C 
HETATM   17  C8          0      60.172  51.200  -7.746  1.00  0.00     0.112 C 
HETATM   18  C10         0      58.817  51.201  -7.442  1.00  0.00     0.112 C 
HETATM   19  C12         0      58.090  52.364  -7.665  1.00  0.00     0.028 C 
BRANCH  17  20
HETATM   20  O9          0      61.126  50.533  -7.000  1.00  0.00    -0.357 OA
HETATM   21  H9          0      61.919  50.160  -7.368  1.00  0.00     0.218 HD
ENDBRANCH  17  20
BRANCH  18  22
HETATM   22  O11         0      58.362  50.197  -6.599  1.00  0.00    -0.357 OA
HETATM   23  H11         0      58.937  49.939  -5.888  1.00  0.00     0.218 HD
ENDBRANCH  18  22
ENDBRANCH   4  14
BRANCH   8  24
HETATM   24  O17         0      53.999  56.441  -4.365  1.00  0.00    -0.359 OA
HETATM   25  H17         0      53.149  56.738  -4.670  1.00  0.00     0.218 HD
ENDBRANCH   8  24
TORSDOF 5
ENDMDL
MODEL 3
REMARK VINA RESULT:      -5.3      2.857      4.947
REMARK  5 active torsions:
REMARK  status: ('A' for Active; 'I' for Inactive)
REMARK    1  A    between atoms: C4_4  and  C5_5 
REMARK    2  A    between atoms: C8_8  and  O9_9 
REMARK    3  A    between atoms: C10_11  and  O11_12 
REMARK    4  A    between atoms: C16_18  and  O17_19 
REMARK    5  A    between atoms: C19_22  and  O20_23 
ROOT
HETATM    1  O1          0      58.883  51.622  -5.874  1.00  0.00    -0.286 OA
HETATM    2  C2          0      58.643  52.513  -6.734  1.00  0.00     0.201 C 
HETATM    3  C3          0      58.774  53.866  -6.470  1.00  0.00     0.067 C 
HETATM    4  C4          0      58.404  54.829  -7.402  1.00  0.00     0.103 C 
HETATM    5  O13         0      57.937  54.433  -8.573  1.00  0.00    -0.307 OA
HETATM    6  C14         0      57.758  53.163  -8.861  1.00  0.00     0.107 C 
HETATM    7  C15         0      56.919  52.758  -9.889  1.00  0.00     0.049 C 
HETATM    8  C16         0      56.535  51.429 -10.026  1.00  0.00     0.093 C 
HETATM    9  C18         0      57.408  50.505  -9.464  1.00  0.00     0.048 C 
HETATM   10  C19         0      58.293  50.887  -8.466  1.00  0.00     0.096 C 
HETATM   11  C21         0      58.319  52.188  -8.043  1.00  0.00     0.084 C 
ENDROOT
BRANCH  10  12
HETATM   12  O20         0      58.831  49.917  -7.626  1.00  0.00    -0.359 OA
HETATM   13  H20         0      59.066  49.080  -8.006  1.00  0.00     0.218 HD
ENDBRANCH  10  12
BRANCH   4  14
HETATM   14  C5          0      57.998  56.138  -6.887  1.00  0.00     0.025 C 
HETATM   15  C6          0      58.578  57.326  -7.309  1.00  0.00     0.004 C 
HETATM   16  C7          0      57.746  58.430  -7.464  1.00  0.00     0.026 C 
HETATM   17  C8          0      56.409  58.395  -7.084  1.00  0.00     0.112 C 
HETATM   18  C10         0      56.103  57.437  -6.127  1.00  0.00     0.112 C 
HETATM   19  C12         0      56.901  56.302  -6.051  1.00  0.00     0.028 C 
BRANCH  17  20
HETATM   20  O9          0      55.456  59.120  -7.777  1.00  0.00    -0.357 OA
HETATM   21  H9          0      55.362  60.064  -7.715  1.00  0.00     0.218 HD
ENDBRANCH  17  20
BRANCH  18  22
HETATM   22  O11         0      54.830  57.483  -5.576  1.00  0.00    -0.357 OA
HETATM   23  H11         0      54.773  57.511  -4.628  1.00  0.00     0.218 HD
ENDBRANCH  18  22
ENDBRANCH   4  14
BRANCH   8  24
HETATM   24  O17         0      55.229  51.081 -10.390  1.00  0.00    -0.359 OA
HETATM   25  H17         0      55.022  50.764 -11.261  1.00  0.00     0.218 HD
ENDBRANCH   8  24
TORSDOF 5
ENDMDL
MODEL 4
REMARK VINA RESULT:      -5.2      1.579      2.147
REMARK  5 active torsions:
REMARK  status: ('A' for Active; 'I' for Inactive)
REMARK    1  A    between atoms: C4_4  and  C5_5 
REMARK    2  A    between atoms: C8_8  and  O9_9 
REMARK    3  A    between atoms: C10_11  and  O11_12 
REMARK    4  A    between atoms: C16_18  and  O17_19 
REMARK    5  A    between atoms: C19_22  and  O20_23 
ROOT
HETATM    1  O1          0      59.382  52.276  -8.140  1.00  0.00    -0.286 OA
HETATM    2  C2          0      58.471  53.149  -8.142  1.00  0.00     0.201 C 
HETATM    3  C3          0      57.468  53.185  -9.096  1.00  0.00     0.067 C 
HETATM    4  C4          0      56.537  54.217  -9.135  1.00  0.00     0.103 C 
HETATM    5  O13         0      56.607  55.170  -8.223  1.00  0.00    -0.307 OA
HETATM    6  C14         0      57.561  55.203  -7.318  1.00  0.00     0.107 C 
HETATM    7  C15         0      57.879  56.368  -6.634  1.00  0.00     0.049 C 
HETATM    8  C16         0      59.039  56.465  -5.875  1.00  0.00     0.093 C 
HETATM    9  C18         0      59.543  55.254  -5.416  1.00  0.00     0.048 C 
HETATM   10  C19         0      59.207  54.064  -6.048  1.00  0.00     0.096 C 
HETATM   11  C21         0      58.360  54.082  -7.122  1.00  0.00     0.084 C 
ENDROOT
BRANCH  10  12
HETATM   12  O20         0      60.023  52.950  -5.879  1.00  0.00    -0.359 OA
HETATM   13  H20         0      60.919  53.004  -6.189  1.00  0.00     0.218 HD
ENDBRANCH  10  12
BRANCH   4  14
HETATM   14  C5          0      55.935  54.527 -10.433  1.00  0.00     0.025 C 
HETATM   15  C6          0      55.198  53.602 -11.160  1.00  0.00     0.004 C 
HETATM   16  C7          0      54.077  54.064 -11.842  1.00  0.00     0.026 C 
HETATM   17  C8          0      53.773  55.420 -11.911  1.00  0.00     0.112 C 
HETATM   18  C10         0      54.856  56.268 -11.721  1.00  0.00     0.112 C 
HETATM   19  C12         0      55.927  55.810 -10.963  1.00  0.00     0.028 C 
BRANCH  17  20
HETATM   20  O9          0      52.458  55.849 -11.953  1.00  0.00    -0.357 OA
HETATM   21  H9          0      51.716  55.268 -12.072  1.00  0.00     0.218 HD
ENDBRANCH  17  20
BRANCH  18  22
HETATM   22  O11         0      54.647  57.617 -11.966  1.00  0.00    -0.357 OA
HETATM   23  H11         0      55.171  58.231 -11.464  1.00  0.00     0.218 HD
ENDBRANCH  18  22
ENDBRANCH   4  14
BRANCH   8  24
HETATM   24  O17         0      59.810  57.632  -5.868  1.00  0.00    -0.359 OA
HETATM   25  H17         0      60.638  57.681  -5.405  1.00  0.00     0.218 HD
ENDBRANCH   8  24
TORSDOF 5
ENDMDL
MODEL 5
REMARK VINA RESULT:      -5.1      2.899      5.584
REMARK  5 active torsions:
REMARK  status: ('A' for Active; 'I' for Inactive)
REMARK    1  A    between atoms: C4_4  and  C5_5 
REMARK    2  A    between atoms: C8_8  and  O9_9 
REMARK    3  A    between atoms: C10_11  and  O11_12 
REMARK    4  A    between atoms: C16_18  and  O17_19 
REMARK    5  A    between atoms: C19_22  and  O20_23 
ROOT
HETATM    1  O1          0      55.117  57.710 -11.375  1.00  0.00    -0.286 OA
HETATM    2  C2          0      54.862  56.588 -11.890  1.00  0.00     0.201 C 
HETATM    3  C3          0      54.068  56.442 -13.015  1.00  0.00     0.067 C 
HETATM    4  C4          0      53.718  55.188 -13.503  1.00  0.00     0.103 C 
HETATM    5  O13         0      54.176  54.115 -12.881  1.00  0.00    -0.307 OA
HETATM    6  C14         0      54.901  54.197 -11.787  1.00  0.00     0.107 C 
HETATM    7  C15         0      55.043  53.122 -10.922  1.00  0.00     0.049 C 
HETATM    8  C16         0      55.591  53.282  -9.655  1.00  0.00     0.093 C 
HETATM    9  C18         0      56.436  54.376  -9.515  1.00  0.00     0.048 C 
HETATM   10  C19         0      56.353  55.449 -10.392  1.00  0.00     0.096 C 
HETATM   11  C21         0      55.442  55.422 -11.413  1.00  0.00     0.084 C 
ENDROOT
BRANCH  10  12
HETATM   12  O20         0      56.865  56.684 -10.007  1.00  0.00    -0.359 OA
HETATM   13  H20         0      56.863  57.386 -10.646  1.00  0.00     0.218 HD
ENDBRANCH  10  12
BRANCH   4  14
HETATM   14  C5          0      52.466  55.087 -14.254  1.00  0.00     0.025 C 
HETATM   15  C6          0      51.339  55.832 -13.940  1.00  0.00     0.004 C 
HETATM   16  C7          0      50.572  56.316 -14.995  1.00  0.00     0.026 C 
HETATM   17  C8          0      50.838  55.961 -16.313  1.00  0.00     0.112 C 
HETATM   18  C10         0      51.533  54.769 -16.463  1.00  0.00     0.112 C 
HETATM   19  C12         0      52.358  54.350 -15.427  1.00  0.00     0.028 C 
BRANCH  17  20
HETATM   20  O9          0      50.604  56.850 -17.347  1.00  0.00    -0.357 OA
HETATM   21  H9          0      49.894  56.759 -17.971  1.00  0.00     0.218 HD
ENDBRANCH  17  20
BRANCH  18  22
HETATM   22  O11         0      51.659  54.273 -17.753  1.00  0.00    -0.357 OA
HETATM   23  H11         0      50.857  54.157 -18.250  1.00  0.00     0.218 HD
ENDBRANCH  18  22
ENDBRANCH   4  14
BRANCH   8  24
HETATM   24  O17         0      55.069  52.609  -8.545  1.00  0.00    -0.359 OA
HETATM   25  H17         0      54.606  53.069  -7.855  1.00  0.00     0.218 HD
ENDBRANCH   8  24
TORSDOF 5
ENDMDL
MODEL 6
REMARK VINA RESULT:      -5.1     12.081     14.471
REMARK  5 active torsions:
REMARK  status: ('A' for Active; 'I' for Inactive)
REMARK    1  A    between atoms: C4_4  and  C5_5 
REMARK    2  A    between atoms: C8_8  and  O9_9 
REMARK    3  A    between atoms: C10_11  and  O11_12 
REMARK    4  A    between atoms: C16_18  and  O17_19 
REMARK    5  A    between atoms: C19_22  and  O20_23 
ROOT
HETATM    1  O1          0      54.603  66.469  -2.111  1.00  0.00    -0.286 OA
HETATM    2  C2          0      54.177  66.078  -3.232  1.00  0.00     0.201 C 
HETATM    3  C3          0      54.899  65.229  -4.055  1.00  0.00     0.067 C 
HETATM    4  C4          0      54.453  64.896  -5.329  1.00  0.00     0.103 C 
HETATM    5  O13         0      53.301  65.390  -5.748  1.00  0.00    -0.307 OA
HETATM    6  C14         0      52.595  66.229  -5.022  1.00  0.00     0.107 C 
HETATM    7  C15         0      51.626  67.046  -5.585  1.00  0.00     0.049 C 
HETATM    8  C16         0      51.067  68.100  -4.873  1.00  0.00     0.093 C 
HETATM    9  C18         0      51.114  67.964  -3.491  1.00  0.00     0.048 C 
HETATM   10  C19         0      52.041  67.119  -2.896  1.00  0.00     0.096 C 
HETATM   11  C21         0      52.905  66.401  -3.677  1.00  0.00     0.084 C 
ENDROOT
BRANCH  10  12
HETATM   12  O20         0      52.375  67.309  -1.558  1.00  0.00    -0.359 OA
HETATM   13  H20         0      51.693  67.605  -0.967  1.00  0.00     0.218 HD
ENDBRANCH  10  12
BRANCH   4  14
HETATM   14  C5          0      55.468  64.536  -6.321  1.00  0.00     0.025 C 
HETATM   15  C6          0      55.737  65.313  -7.437  1.00  0.00     0.004 C 
HETATM   16  C7          0      57.064  65.427  -7.839  1.00  0.00     0.026 C 
HETATM   17  C8          0      58.075  64.688  -7.234  1.00  0.00     0.112 C 
HETATM   18  C10         0      57.648  63.525  -6.608  1.00  0.00     0.112 C 
HETATM   19  C12         0      56.340  63.470  -6.140  1.00  0.00     0.028 C 
BRANCH  17  20
HETATM   20  O9          0      59.352  65.206  -7.104  1.00  0.00    -0.357 OA
HETATM   21  H9          0      60.094  64.706  -6.784  1.00  0.00     0.218 HD
ENDBRANCH  17  20
BRANCH  18  22
HETATM   22  O11         0      58.631  62.657  -6.154  1.00  0.00    -0.357 OA
HETATM   23  H11         0      59.528  62.970  -6.183  1.00  0.00     0.218 HD
ENDBRANCH  18  22
ENDBRANCH   4  14
BRANCH   8  24
HETATM   24  O17         0      50.798  69.331  -5.482  1.00  0.00    -0.359 OA
HETATM   25  H17         0      51.256  70.124  -5.230  1.00  0.00     0.218 HD
ENDBRANCH   8  24
TORSDOF 5
ENDMDL
MODEL 7
REMARK VINA RESULT:      -5.1      3.432      4.422
REMARK  5 active torsions:
REMARK  status: ('A' for Active; 'I' for Inactive)
REMARK    1  A    between atoms: C4_4  and  C5_5 
REMARK    2  A    between atoms: C8_8  and  O9_9 
REMARK    3  A    between atoms: C10_11  and  O11_12 
REMARK    4  A    between atoms: C16_18  and  O17_19 
REMARK    5  A    between atoms: C19_22  and  O20_23 
ROOT
HETATM    1  O1          0      57.609  53.294  -8.967  1.00  0.00    -0.286 OA
HETATM    2  C2          0      57.789  54.129  -8.038  1.00  0.00     0.201 C 
HETATM    3  C3          0      57.177  55.370  -8.016  1.00  0.00     0.067 C 
HETATM    4  C4          0      57.472  56.311  -7.036  1.00  0.00     0.103 C 
HETATM    5  O13         0      58.344  55.995  -6.095  1.00  0.00    -0.307 OA
HETATM    6  C14         0      58.981  54.845  -6.090  1.00  0.00     0.107 C 
HETATM    7  C15         0      60.155  54.662  -5.373  1.00  0.00     0.049 C 
HETATM    8  C16         0      60.955  53.543  -5.570  1.00  0.00     0.093 C 
HETATM    9  C18         0      60.292  52.430  -6.074  1.00  0.00     0.048 C 
HETATM   10  C19         0      59.092  52.572  -6.756  1.00  0.00     0.096 C 
HETATM   11  C21         0      58.547  53.817  -6.920  1.00  0.00     0.084 C 
ENDROOT
BRANCH  10  12
HETATM   12  O20         0      58.671  51.558  -7.611  1.00  0.00    -0.359 OA
HETATM   13  H20         0      59.335  51.014  -8.016  1.00  0.00     0.218 HD
ENDBRANCH  10  12
BRANCH   4  14
HETATM   14  C5          0      57.292  57.721  -7.385  1.00  0.00     0.025 C 
HETATM   15  C6          0      58.250  58.455  -8.070  1.00  0.00     0.004 C 
HETATM   16  C7          0      57.806  59.371  -9.017  1.00  0.00     0.026 C 
HETATM   17  C8          0      56.453  59.649  -9.185  1.00  0.00     0.112 C 
HETATM   18  C10         0      55.662  59.370  -8.078  1.00  0.00     0.112 C 
HETATM   19  C12         0      56.089  58.389  -7.192  1.00  0.00     0.028 C 
BRANCH  17  20
HETATM   20  O9          0      55.945  59.970 -10.431  1.00  0.00    -0.357 OA
HETATM   21  H9          0      55.258  59.476 -10.864  1.00  0.00     0.218 HD
ENDBRANCH  17  20
BRANCH  18  22
HETATM   22  O11         0      54.344  59.802  -8.123  1.00  0.00    -0.357 OA
HETATM   23  H11         0      53.797  59.590  -7.375  1.00  0.00     0.218 HD
ENDBRANCH  18  22
ENDBRANCH   4  14
BRANCH   8  24
HETATM   24  O17         0      62.351  53.638  -5.585  1.00  0.00    -0.359 OA
HETATM   25  H17         0      62.824  54.141  -4.933  1.00  0.00     0.218 HD
ENDBRANCH   8  24
TORSDOF 5
ENDMDL
MODEL 8
REMARK VINA RESULT:      -5.1      1.402      2.791
REMARK  5 active torsions:
REMARK  status: ('A' for Active; 'I' for Inactive)
REMARK    1  A    between atoms: C4_4  and  C5_5 
REMARK    2  A    between atoms: C8_8  and  O9_9 
REMARK    3  A    between atoms: C10_11  and  O11_12 
REMARK    4  A    between atoms: C16_18  and  O17_19 
REMARK    5  A    between atoms: C19_22  and  O20_23 
ROOT
HETATM    1  O1          0      57.023  55.555  -7.307  1.00  0.00    -0.286 OA
HETATM    2  C2          0      57.212  54.789  -8.291  1.00  0.00     0.201 C 
HETATM    3  C3          0      56.648  55.012  -9.536  1.00  0.00     0.067 C 
HETATM    4  C4          0      56.789  54.099 -10.574  1.00  0.00     0.103 C 
HETATM    5  O13         0      57.497  53.003 -10.365  1.00  0.00    -0.307 OA
HETATM    6  C14         0      58.022  52.724  -9.192  1.00  0.00     0.107 C 
HETATM    7  C15         0      58.407  51.436  -8.851  1.00  0.00     0.049 C 
HETATM    8  C16         0      58.719  51.098  -7.540  1.00  0.00     0.093 C 
HETATM    9  C18         0      59.136  52.159  -6.745  1.00  0.00     0.048 C 
HETATM   10  C19         0      58.809  53.465  -7.081  1.00  0.00     0.096 C 
HETATM   11  C21         0      58.083  53.712  -8.215  1.00  0.00     0.084 C 
ENDROOT
BRANCH  10  12
HETATM   12  O20         0      58.838  54.449  -6.098  1.00  0.00    -0.359 OA
HETATM   13  H20         0      58.074  54.546  -5.542  1.00  0.00     0.218 HD
ENDBRANCH  10  12
BRANCH   4  14
HETATM   14  C5          0      55.736  54.074 -11.591  1.00  0.00     0.025 C 
HETATM   15  C6          0      55.476  52.960 -12.377  1.00  0.00     0.004 C 
HETATM   16  C7          0      54.146  52.673 -12.668  1.00  0.00     0.026 C 
HETATM   17  C8          0      53.117  53.536 -12.306  1.00  0.00     0.112 C 
HETATM   18  C10         0      53.507  54.855 -12.116  1.00  0.00     0.112 C 
HETATM   19  C12         0      54.821  55.108 -11.742  1.00  0.00     0.028 C 
BRANCH  17  20
HETATM   20  O9          0      51.869  53.047 -11.964  1.00  0.00    -0.357 OA
HETATM   21  H9          0      51.345  52.494 -12.532  1.00  0.00     0.218 HD
ENDBRANCH  17  20
BRANCH  18  22
HETATM   22  O11         0      52.496  55.790 -11.939  1.00  0.00    -0.357 OA
HETATM   23  H11         0      52.736  56.705 -12.031  1.00  0.00     0.218 HD
ENDBRANCH  18  22
ENDBRANCH   4  14
BRANCH   8  24
HETATM   24  O17         0      58.321  49.876  -6.987  1.00  0.00    -0.359 OA
HETATM   25  H17         0      57.602  49.374  -7.351  1.00  0.00     0.218 HD
ENDBRANCH   8  24
TORSDOF 5
ENDMDL
MODEL 9
REMARK VINA RESULT:      -5.0      2.716      7.024
REMARK  5 active torsions:
REMARK  status: ('A' for Active; 'I' for Inactive)
REMARK    1  A    between atoms: C4_4  and  C5_5 
REMARK    2  A    between atoms: C8_8  and  O9_9 
REMARK    3  A    between atoms: C10_11  and  O11_12 
REMARK    4  A    between atoms: C16_18  and  O17_19 
REMARK    5  A    between atoms: C19_22  and  O20_23 
ROOT
HETATM    1  O1          0      56.483  54.676  -8.487  1.00  0.00    -0.286 OA
HETATM    2  C2          0      57.127  53.665  -8.093  1.00  0.00     0.201 C 
HETATM    3  C3          0      58.101  53.732  -7.112  1.00  0.00     0.067 C 
HETATM    4  C4          0      58.868  52.623  -6.770  1.00  0.00     0.103 C 
HETATM    5  O13         0      58.639  51.478  -7.389  1.00  0.00    -0.307 OA
HETATM    6  C14         0      57.752  51.370  -8.353  1.00  0.00     0.107 C 
HETATM    7  C15         0      57.782  50.319  -9.259  1.00  0.00     0.049 C 
HETATM    8  C16         0      57.013  50.342 -10.417  1.00  0.00     0.093 C 
HETATM    9  C18         0      55.881  51.145 -10.353  1.00  0.00     0.048 C 
HETATM   10  C19         0      55.798  52.176  -9.426  1.00  0.00     0.096 C 
HETATM   11  C21         0      56.832  52.393  -8.558  1.00  0.00     0.084 C 
ENDROOT
BRANCH  10  12
HETATM   12  O20         0      54.900  53.216  -9.645  1.00  0.00    -0.359 OA
HETATM   13  H20         0      54.211  53.082 -10.284  1.00  0.00     0.218 HD
ENDBRANCH  10  12
BRANCH   4  14
HETATM   14  C5          0      60.202  52.875  -6.223  1.00  0.00     0.025 C 
HETATM   15  C6          0      61.315  52.127  -6.581  1.00  0.00     0.004 C 
HETATM   16  C7          0      62.524  52.800  -6.726  1.00  0.00     0.026 C 
HETATM   17  C8          0      62.655  54.144  -6.396  1.00  0.00     0.112 C 
HETATM   18  C10         0      61.716  54.612  -5.486  1.00  0.00     0.112 C 
HETATM   19  C12         0      60.484  53.973  -5.421  1.00  0.00     0.028 C 
BRANCH  17  20
HETATM   20  O9          0      63.521  54.965  -7.096  1.00  0.00    -0.357 OA
HETATM   21  H9          0      64.166  55.527  -6.683  1.00  0.00     0.218 HD
ENDBRANCH  17  20
BRANCH  18  22
HETATM   22  O11         0      61.914  55.889  -4.979  1.00  0.00    -0.357 OA
HETATM   23  H11         0      62.114  56.574  -5.607  1.00  0.00     0.218 HD
ENDBRANCH  18  22
ENDBRANCH   4  14
BRANCH   8  24
HETATM   24  O17         0      57.516  49.875 -11.636  1.00  0.00    -0.359 OA
HETATM   25  H17         0      58.236  50.310 -12.078  1.00  0.00     0.218 HD
ENDBRANCH   8  24
TORSDOF 5
ENDMDL
