MODEL 1
REMARK VINA RESULT:      -7.8      0.000      0.000
REMARK  5 active torsions:
REMARK  status: ('A' for Active; 'I' for Inactive)
REMARK    1  A    between atoms: C4_4  and  C5_5 
REMARK    2  A    between atoms: C8_8  and  O9_9 
REMARK    3  A    between atoms: C10_11  and  O11_12 
REMARK    4  A    between atoms: C16_18  and  O17_19 
REMARK    5  A    between atoms: C19_22  and  O20_23 
ROOT
HETATM    1  O1          0      36.493  63.994 -11.110  1.00  0.00    -0.286 OA
HETATM    2  C2          0      35.317  63.648 -10.812  1.00  0.00     0.201 C 
HETATM    3  C3          0      34.827  62.374 -11.043  1.00  0.00     0.067 C 
HETATM    4  C4          0      33.497  62.049 -10.800  1.00  0.00     0.103 C 
HETATM    5  O13         0      32.695  62.980 -10.316  1.00  0.00    -0.307 OA
HETATM    6  C14         0      33.099  64.215 -10.113  1.00  0.00     0.107 C 
HETATM    7  C15         0      32.203  65.268  -9.998  1.00  0.00     0.049 C 
HETATM    8  C16         0      32.632  66.589 -10.040  1.00  0.00     0.093 C 
HETATM    9  C18         0      33.957  66.788  -9.670  1.00  0.00     0.048 C 
HETATM   10  C19         0      34.870  65.744  -9.729  1.00  0.00     0.096 C 
HETATM   11  C21         0      34.459  64.505 -10.139  1.00  0.00     0.084 C 
ENDROOT
BRANCH  10  12
HETATM   12  O20         0      36.230  66.032  -9.787  1.00  0.00    -0.359 OA
HETATM   13  H20         0      36.732  65.669 -10.506  1.00  0.00     0.218 HD
ENDBRANCH  10  12
BRANCH   4  14
HETATM   14  C5          0      32.919  60.960 -11.589  1.00  0.00     0.025 C 
HETATM   15  C6          0      33.410  60.589 -12.832  1.00  0.00     0.004 C 
HETATM   16  C7          0      33.435  59.232 -13.137  1.00  0.00     0.026 C 
HETATM   17  C8          0      32.868  58.284 -12.291  1.00  0.00     0.112 C 
HETATM   18  C10         0      31.885  58.777 -11.444  1.00  0.00     0.112 C 
HETATM   19  C12         0      31.933  60.120 -11.088  1.00  0.00     0.028 C 
BRANCH  17  20
HETATM   20  O9          0      33.411  57.017 -12.182  1.00  0.00    -0.357 OA
HETATM   21  H9          0      34.328  56.849 -11.994  1.00  0.00     0.218 HD
ENDBRANCH  17  20
BRANCH  18  22
HETATM   22  O11         0      31.157  57.846 -10.717  1.00  0.00    -0.357 OA
HETATM   23  H11         0      30.947  58.072  -9.818  1.00  0.00     0.218 HD
ENDBRANCH  18  22
ENDBRANCH   4  14
BRANCH   8  24
HETATM   24  O17         0      31.902  67.572 -10.717  1.00  0.00    -0.359 OA
HETATM   25  H17         0      31.602  67.445 -11.610  1.00  0.00     0.218 HD
ENDBRANCH   8  24
TORSDOF 5
ENDMDL
MODEL 2
REMARK VINA RESULT:      -7.6      1.785      6.457
REMARK  5 active torsions:
REMARK  status: ('A' for Active; 'I' for Inactive)
REMARK    1  A    between atoms: C4_4  and  C5_5 
REMARK    2  A    between atoms: C8_8  and  O9_9 
REMARK    3  A    between atoms: C10_11  and  O11_12 
REMARK    4  A    between atoms: C16_18  and  O17_19 
REMARK    5  A    between atoms: C19_22  and  O20_23 
ROOT
HETATM    1  O1          0      36.412  61.223 -11.492  1.00  0.00    -0.286 OA
HETATM    2  C2          0      35.403  61.975 -11.405  1.00  0.00     0.201 C 
HETATM    3  C3          0      35.465  63.257 -10.884  1.00  0.00     0.067 C 
HETATM    4  C4          0      34.321  64.026 -10.705  1.00  0.00     0.103 C 
HETATM    5  O13         0      33.154  63.521 -11.063  1.00  0.00    -0.307 OA
HETATM    6  C14         0      33.035  62.296 -11.527  1.00  0.00     0.107 C 
HETATM    7  C15         0      31.819  61.628 -11.525  1.00  0.00     0.049 C 
HETATM    8  C16         0      31.745  60.263 -11.775  1.00  0.00     0.093 C 
HETATM    9  C18         0      32.797  59.745 -12.520  1.00  0.00     0.048 C 
HETATM   10  C19         0      34.013  60.412 -12.582  1.00  0.00     0.096 C 
HETATM   11  C21         0      34.172  61.597 -11.918  1.00  0.00     0.084 C 
ENDROOT
BRANCH  10  12
HETATM   12  O20         0      35.157  59.707 -12.943  1.00  0.00    -0.359 OA
HETATM   13  H20         0      35.906  60.202 -13.252  1.00  0.00     0.218 HD
ENDBRANCH  10  12
BRANCH   4  14
HETATM   14  C5          0      34.356  65.043  -9.652  1.00  0.00     0.025 C 
HETATM   15  C6          0      34.969  66.276  -9.818  1.00  0.00     0.004 C 
HETATM   16  C7          0      34.351  67.385  -9.251  1.00  0.00     0.026 C 
HETATM   17  C8          0      33.233  67.258  -8.433  1.00  0.00     0.112 C 
HETATM   18  C10         0      33.093  66.015  -7.832  1.00  0.00     0.112 C 
HETATM   19  C12         0      33.649  64.909  -8.464  1.00  0.00     0.028 C 
BRANCH  17  20
HETATM   20  O9          0      32.254  68.236  -8.414  1.00  0.00    -0.357 OA
HETATM   21  H9          0      32.369  69.091  -8.015  1.00  0.00     0.218 HD
ENDBRANCH  17  20
BRANCH  18  22
HETATM   22  O11         0      32.107  65.893  -6.863  1.00  0.00    -0.357 OA
HETATM   23  H11         0      31.313  65.434  -7.113  1.00  0.00     0.218 HD
ENDBRANCH  18  22
ENDBRANCH   4  14
BRANCH   8  24
HETATM   24  O17         0      30.876  59.436 -11.054  1.00  0.00    -0.359 OA
HETATM   25  H17         0      30.578  58.603 -11.400  1.00  0.00     0.218 HD
ENDBRANCH   8  24
TORSDOF 5
ENDMDL
MODEL 3
REMARK VINA RESULT:      -7.6      1.499      6.626
REMARK  5 active torsions:
REMARK  status: ('A' for Active; 'I' for Inactive)
REMARK    1  A    between atoms: C4_4  and  C5_5 
REMARK    2  A    between atoms: C8_8  and  O9_9 
REMARK    3  A    between atoms: C10_11  and  O11_12 
REMARK    4  A    between atoms: C16_18  and  O17_19 
REMARK    5  A    between atoms: C19_22  and  O20_23 
ROOT
HETATM    1  O1          0      36.075  61.620 -11.378  1.00  0.00    -0.286 OA
HETATM    2  C2          0      34.869  61.990 -11.364  1.00  0.00     0.201 C 
HETATM    3  C3          0      34.473  63.243 -10.929  1.00  0.00     0.067 C 
HETATM    4  C4          0      33.130  63.589 -10.828  1.00  0.00     0.103 C 
HETATM    5  O13         0      32.217  62.699 -11.176  1.00  0.00    -0.307 OA
HETATM    6  C14         0      32.538  61.483 -11.560  1.00  0.00     0.107 C 
HETATM    7  C15         0      31.619  60.444 -11.540  1.00  0.00     0.049 C 
HETATM    8  C16         0      32.019  59.122 -11.698  1.00  0.00     0.093 C 
HETATM    9  C18         0      33.216  58.950 -12.384  1.00  0.00     0.048 C 
HETATM   10  C19         0      34.138  59.985 -12.464  1.00  0.00     0.096 C 
HETATM   11  C21         0      33.860  61.189 -11.878  1.00  0.00     0.084 C 
ENDROOT
BRANCH  10  12
HETATM   12  O20         0      35.468  59.690 -12.750  1.00  0.00    -0.359 OA
HETATM   13  H20         0      36.140  60.158 -12.270  1.00  0.00     0.218 HD
ENDBRANCH  10  12
BRANCH   4  14
HETATM   14  C5          0      32.775  64.615  -9.845  1.00  0.00     0.025 C 
HETATM   15  C6          0      33.628  65.004  -8.823  1.00  0.00     0.004 C 
HETATM   16  C7          0      33.657  66.354  -8.488  1.00  0.00     0.026 C 
HETATM   17  C8          0      32.774  67.266  -9.054  1.00  0.00     0.112 C 
HETATM   18  C10         0      31.600  66.708  -9.545  1.00  0.00     0.112 C 
HETATM   19  C12         0      31.621  65.380  -9.953  1.00  0.00     0.028 C 
BRANCH  17  20
HETATM   20  O9          0      33.157  68.575  -9.286  1.00  0.00    -0.357 OA
HETATM   21  H9          0      32.611  69.215  -9.727  1.00  0.00     0.218 HD
ENDBRANCH  17  20
BRANCH  18  22
HETATM   22  O11         0      30.606  67.589  -9.947  1.00  0.00    -0.357 OA
HETATM   23  H11         0      29.928  67.790  -9.313  1.00  0.00     0.218 HD
ENDBRANCH  18  22
ENDBRANCH   4  14
BRANCH   8  24
HETATM   24  O17         0      31.449  58.092 -10.943  1.00  0.00    -0.359 OA
HETATM   25  H17         0      31.984  57.457 -10.481  1.00  0.00     0.218 HD
ENDBRANCH   8  24
TORSDOF 5
ENDMDL
MODEL 4
REMARK VINA RESULT:      -7.6      2.079      2.867
REMARK  5 active torsions:
REMARK  status: ('A' for Active; 'I' for Inactive)
REMARK    1  A    between atoms: C4_4  and  C5_5 
REMARK    2  A    between atoms: C8_8  and  O9_9 
REMARK    3  A    between atoms: C10_11  and  O11_12 
REMARK    4  A    between atoms: C16_18  and  O17_19 
REMARK    5  A    between atoms: C19_22  and  O20_23 
ROOT
HETATM    1  O1          0      35.856  66.479  -9.984  1.00  0.00    -0.286 OA
HETATM    2  C2          0      34.710  65.970  -9.847  1.00  0.00     0.201 C 
HETATM    3  C3          0      34.484  64.605  -9.908  1.00  0.00     0.067 C 
HETATM    4  C4          0      33.199  64.077  -9.857  1.00  0.00     0.103 C 
HETATM    5  O13         0      32.177  64.905  -9.726  1.00  0.00    -0.307 OA
HETATM    6  C14         0      32.334  66.210  -9.701  1.00  0.00     0.107 C 
HETATM    7  C15         0      31.284  67.077  -9.966  1.00  0.00     0.049 C 
HETATM    8  C16         0      31.505  68.431 -10.189  1.00  0.00     0.093 C 
HETATM    9  C18         0      32.670  68.936  -9.626  1.00  0.00     0.048 C 
HETATM   10  C19         0      33.723  68.090  -9.305  1.00  0.00     0.096 C 
HETATM   11  C21         0      33.606  66.745  -9.530  1.00  0.00     0.084 C 
ENDROOT
BRANCH  10  12
HETATM   12  O20         0      35.002  68.619  -9.165  1.00  0.00    -0.359 OA
HETATM   13  H20         0      35.415  68.997  -9.932  1.00  0.00     0.218 HD
ENDBRANCH  10  12
BRANCH   4  14
HETATM   14  C5          0      32.980  62.784 -10.508  1.00  0.00     0.025 C 
HETATM   15  C6          0      31.757  62.411 -11.047  1.00  0.00     0.004 C 
HETATM   16  C7          0      31.771  61.690 -12.237  1.00  0.00     0.026 C 
HETATM   17  C8          0      32.958  61.238 -12.802  1.00  0.00     0.112 C 
HETATM   18  C10         0      34.011  61.101 -11.908  1.00  0.00     0.112 C 
HETATM   19  C12         0      34.016  61.896 -10.767  1.00  0.00     0.028 C 
BRANCH  17  20
HETATM   20  O9          0      33.100  61.147 -14.175  1.00  0.00    -0.357 OA
HETATM   21  H9          0      32.538  60.619 -14.731  1.00  0.00     0.218 HD
ENDBRANCH  17  20
BRANCH  18  22
HETATM   22  O11         0      35.158  60.478 -12.377  1.00  0.00    -0.357 OA
HETATM   23  H11         0      35.117  59.536 -12.498  1.00  0.00     0.218 HD
ENDBRANCH  18  22
ENDBRANCH   4  14
BRANCH   8  24
HETATM   24  O17         0      30.798  69.133 -11.173  1.00  0.00    -0.359 OA
HETATM   25  H17         0      30.688  68.787 -12.050  1.00  0.00     0.218 HD
ENDBRANCH   8  24
TORSDOF 5
ENDMDL
MODEL 5
REMARK VINA RESULT:      -7.5      2.207      3.882
REMARK  5 active torsions:
REMARK  status: ('A' for Active; 'I' for Inactive)
REMARK    1  A    between atoms: C4_4  and  C5_5 
REMARK    2  A    between atoms: C8_8  and  O9_9 
REMARK    3  A    between atoms: C10_11  and  O11_12 
REMARK    4  A    between atoms: C16_18  and  O17_19 
REMARK    5  A    between atoms: C19_22  and  O20_23 
ROOT
HETATM    1  O1          0      30.441  66.710  -8.629  1.00  0.00    -0.286 OA
HETATM    2  C2          0      31.303  66.322  -9.466  1.00  0.00     0.201 C 
HETATM    3  C3          0      31.265  65.071 -10.057  1.00  0.00     0.067 C 
HETATM    4  C4          0      32.282  64.630 -10.897  1.00  0.00     0.103 C 
HETATM    5  O13         0      33.294  65.441 -11.146  1.00  0.00    -0.307 OA
HETATM    6  C14         0      33.398  66.625 -10.582  1.00  0.00     0.107 C 
HETATM    7  C15         0      34.609  67.299 -10.514  1.00  0.00     0.049 C 
HETATM    8  C16         0      34.768  68.416  -9.703  1.00  0.00     0.093 C 
HETATM    9  C18         0      33.596  69.105  -9.417  1.00  0.00     0.048 C 
HETATM   10  C19         0      32.364  68.475  -9.520  1.00  0.00     0.096 C 
HETATM   11  C21         0      32.301  67.169  -9.923  1.00  0.00     0.084 C 
ENDROOT
BRANCH  10  12
HETATM   12  O20         0      31.272  69.000  -8.835  1.00  0.00    -0.359 OA
HETATM   13  H20         0      30.997  68.566  -8.036  1.00  0.00     0.218 HD
ENDBRANCH  10  12
BRANCH   4  14
HETATM   14  C5          0      32.497  63.185 -10.987  1.00  0.00     0.025 C 
HETATM   15  C6          0      31.478  62.289 -11.276  1.00  0.00     0.004 C 
HETATM   16  C7          0      31.784  61.207 -12.095  1.00  0.00     0.026 C 
HETATM   17  C8          0      33.088  60.948 -12.504  1.00  0.00     0.112 C 
HETATM   18  C10         0      34.071  61.484 -11.683  1.00  0.00     0.112 C 
HETATM   19  C12         0      33.764  62.617 -10.939  1.00  0.00     0.028 C 
BRANCH  17  20
HETATM   20  O9          0      33.344  60.385 -13.742  1.00  0.00    -0.357 OA
HETATM   21  H9          0      33.587  60.889 -14.510  1.00  0.00     0.218 HD
ENDBRANCH  17  20
BRANCH  18  22
HETATM   22  O11         0      35.380  61.099 -11.935  1.00  0.00    -0.357 OA
HETATM   23  H11         0      35.815  60.589 -11.263  1.00  0.00     0.218 HD
ENDBRANCH  18  22
ENDBRANCH   4  14
BRANCH   8  24
HETATM   24  O17         0      35.942  68.623  -8.970  1.00  0.00    -0.359 OA
HETATM   25  H17         0      36.519  69.357  -9.149  1.00  0.00     0.218 HD
ENDBRANCH   8  24
TORSDOF 5
ENDMDL
MODEL 6
REMARK VINA RESULT:      -7.5      2.175      7.238
REMARK  5 active torsions:
REMARK  status: ('A' for Active; 'I' for Inactive)
REMARK    1  A    between atoms: C4_4  and  C5_5 
REMARK    2  A    between atoms: C8_8  and  O9_9 
REMARK    3  A    between atoms: C10_11  and  O11_12 
REMARK    4  A    between atoms: C16_18  and  O17_19 
REMARK    5  A    between atoms: C19_22  and  O20_23 
ROOT
HETATM    1  O1          0      30.881  63.293 -11.834  1.00  0.00    -0.286 OA
HETATM    2  C2          0      31.782  63.694 -11.047  1.00  0.00     0.201 C 
HETATM    3  C3          0      31.698  64.891 -10.357  1.00  0.00     0.067 C 
HETATM    4  C4          0      32.749  65.357  -9.575  1.00  0.00     0.103 C 
HETATM    5  O13         0      33.843  64.622  -9.480  1.00  0.00    -0.307 OA
HETATM    6  C14         0      33.989  63.496 -10.143  1.00  0.00     0.107 C 
HETATM    7  C15         0      35.239  62.938 -10.369  1.00  0.00     0.049 C 
HETATM    8  C16         0      35.413  61.900 -11.277  1.00  0.00     0.093 C 
HETATM    9  C18         0      34.279  61.133 -11.515  1.00  0.00     0.048 C 
HETATM   10  C19         0      33.014  61.644 -11.257  1.00  0.00     0.096 C 
HETATM   11  C21         0      32.884  62.907 -10.747  1.00  0.00     0.084 C 
ENDROOT
BRANCH  10  12
HETATM   12  O20         0      31.910  61.076 -11.884  1.00  0.00    -0.359 OA
HETATM   13  H20         0      31.752  60.149 -11.754  1.00  0.00     0.218 HD
ENDBRANCH  10  12
BRANCH   4  14
HETATM   14  C5          0      32.854  66.805  -9.389  1.00  0.00     0.025 C 
HETATM   15  C6          0      33.970  67.413  -8.832  1.00  0.00     0.004 C 
HETATM   16  C7          0      34.378  68.629  -9.371  1.00  0.00     0.026 C 
HETATM   17  C8          0      33.628  69.286 -10.340  1.00  0.00     0.112 C 
HETATM   18  C10         0      32.282  68.947 -10.360  1.00  0.00     0.112 C 
HETATM   19  C12         0      31.910  67.691  -9.893  1.00  0.00     0.028 C 
BRANCH  17  20
HETATM   20  O9          0      34.244  70.043 -11.320  1.00  0.00    -0.357 OA
HETATM   21  H9          0      34.674  69.672 -12.082  1.00  0.00     0.218 HD
ENDBRANCH  17  20
BRANCH  18  22
HETATM   22  O11         0      31.454  69.706 -11.174  1.00  0.00    -0.357 OA
HETATM   23  H11         0      30.540  69.449 -11.218  1.00  0.00     0.218 HD
ENDBRANCH  18  22
ENDBRANCH   4  14
BRANCH   8  24
HETATM   24  O17         0      36.527  61.850 -12.122  1.00  0.00    -0.359 OA
HETATM   25  H17         0      36.713  61.088 -12.657  1.00  0.00     0.218 HD
ENDBRANCH   8  24
TORSDOF 5
ENDMDL
MODEL 7
REMARK VINA RESULT:      -7.4      1.955      3.300
REMARK  5 active torsions:
REMARK  status: ('A' for Active; 'I' for Inactive)
REMARK    1  A    between atoms: C4_4  and  C5_5 
REMARK    2  A    between atoms: C8_8  and  O9_9 
REMARK    3  A    between atoms: C10_11  and  O11_12 
REMARK    4  A    between atoms: C16_18  and  O17_19 
REMARK    5  A    between atoms: C19_22  and  O20_23 
ROOT
HETATM    1  O1          0      30.831  66.082  -8.514  1.00  0.00    -0.286 OA
HETATM    2  C2          0      31.504  65.786  -9.539  1.00  0.00     0.201 C 
HETATM    3  C3          0      31.110  64.810 -10.439  1.00  0.00     0.067 C 
HETATM    4  C4          0      31.920  64.432 -11.503  1.00  0.00     0.103 C 
HETATM    5  O13         0      33.083  65.038 -11.663  1.00  0.00    -0.307 OA
HETATM    6  C14         0      33.521  65.943 -10.816  1.00  0.00     0.107 C 
HETATM    7  C15         0      34.864  66.283 -10.739  1.00  0.00     0.049 C 
HETATM    8  C16         0      35.358  67.042  -9.685  1.00  0.00     0.093 C 
HETATM    9  C18         0      34.421  67.852  -9.056  1.00  0.00     0.048 C 
HETATM   10  C19         0      33.065  67.568  -9.150  1.00  0.00     0.096 C 
HETATM   11  C21         0      32.647  66.490  -9.883  1.00  0.00     0.084 C 
ENDROOT
BRANCH  10  12
HETATM   12  O20         0      32.193  68.088  -8.200  1.00  0.00    -0.359 OA
HETATM   13  H20         0      32.566  68.472  -7.415  1.00  0.00     0.218 HD
ENDBRANCH  10  12
BRANCH   4  14
HETATM   14  C5          0      31.758  63.070 -12.017  1.00  0.00     0.025 C 
HETATM   15  C6          0      32.739  62.423 -12.754  1.00  0.00     0.004 C 
HETATM   16  C7          0      32.926  61.064 -12.526  1.00  0.00     0.026 C 
HETATM   17  C8          0      32.080  60.341 -11.692  1.00  0.00     0.112 C 
HETATM   18  C10         0      30.818  60.896 -11.526  1.00  0.00     0.112 C 
HETATM   19  C12         0      30.675  62.270 -11.676  1.00  0.00     0.028 C 
BRANCH  17  20
HETATM   20  O9          0      32.558  59.282 -10.941  1.00  0.00    -0.357 OA
HETATM   21  H9          0      32.962  58.508 -11.317  1.00  0.00     0.218 HD
ENDBRANCH  17  20
BRANCH  18  22
HETATM   22  O11         0      29.875  60.125 -10.861  1.00  0.00    -0.357 OA
HETATM   23  H11         0      30.168  59.288 -10.518  1.00  0.00     0.218 HD
ENDBRANCH  18  22
ENDBRANCH   4  14
BRANCH   8  24
HETATM   24  O17         0      36.596  66.757  -9.098  1.00  0.00    -0.359 OA
HETATM   25  H17         0      36.959  65.879  -9.101  1.00  0.00     0.218 HD
ENDBRANCH   8  24
TORSDOF 5
ENDMDL
MODEL 8
REMARK VINA RESULT:      -7.3      1.777      6.924
REMARK  5 active torsions:
REMARK  status: ('A' for Active; 'I' for Inactive)
REMARK    1  A    between atoms: C4_4  and  C5_5 
REMARK    2  A    between atoms: C8_8  and  O9_9 
REMARK    3  A    between atoms: C10_11  and  O11_12 
REMARK    4  A    between atoms: C16_18  and  O17_19 
REMARK    5  A    between atoms: C19_22  and  O20_23 
ROOT
HETATM    1  O1          0      31.230  62.040 -11.598  1.00  0.00    -0.286 OA
HETATM    2  C2          0      32.372  62.285 -11.121  1.00  0.00     0.201 C 
HETATM    3  C3          0      32.644  63.412 -10.365  1.00  0.00     0.067 C 
HETATM    4  C4          0      33.933  63.710  -9.938  1.00  0.00     0.103 C 
HETATM    5  O13         0      34.913  62.879 -10.250  1.00  0.00    -0.307 OA
HETATM    6  C14         0      34.716  61.815 -10.997  1.00  0.00     0.107 C 
HETATM    7  C15         0      35.760  61.178 -11.652  1.00  0.00     0.049 C 
HETATM    8  C16         0      35.521  60.222 -12.632  1.00  0.00     0.093 C 
HETATM    9  C18         0      34.292  59.580 -12.539  1.00  0.00     0.048 C 
HETATM   10  C19         0      33.239  60.169 -11.852  1.00  0.00     0.096 C 
HETATM   11  C21         0      33.418  61.383 -11.246  1.00  0.00     0.084 C 
ENDROOT
BRANCH  10  12
HETATM   12  O20         0      31.937  59.759 -12.122  1.00  0.00    -0.359 OA
HETATM   13  H20         0      31.599  59.901 -12.999  1.00  0.00     0.218 HD
ENDBRANCH  10  12
BRANCH   4  14
HETATM   14  C5          0      34.252  65.119  -9.703  1.00  0.00     0.025 C 
HETATM   15  C6          0      35.146  65.830 -10.491  1.00  0.00     0.004 C 
HETATM   16  C7          0      34.839  67.156 -10.778  1.00  0.00     0.026 C 
HETATM   17  C8          0      33.752  67.796 -10.193  1.00  0.00     0.112 C 
HETATM   18  C10         0      33.328  67.240  -8.994  1.00  0.00     0.112 C 
HETATM   19  C12         0      33.573  65.890  -8.769  1.00  0.00     0.028 C 
BRANCH  17  20
HETATM   20  O9          0      33.045  68.766 -10.883  1.00  0.00    -0.357 OA
HETATM   21  H9          0      32.152  68.653 -11.186  1.00  0.00     0.218 HD
ENDBRANCH  17  20
BRANCH  18  22
HETATM   22  O11         0      32.374  67.947  -8.276  1.00  0.00    -0.357 OA
HETATM   23  H11         0      32.511  68.024  -7.339  1.00  0.00     0.218 HD
ENDBRANCH  18  22
ENDBRANCH   4  14
BRANCH   8  24
HETATM   24  O17         0      36.297  60.161 -13.795  1.00  0.00    -0.359 OA
HETATM   25  H17         0      36.837  60.891 -14.073  1.00  0.00     0.218 HD
ENDBRANCH   8  24
TORSDOF 5
ENDMDL
MODEL 9
REMARK VINA RESULT:      -7.3      2.642      4.354
REMARK  5 active torsions:
REMARK  status: ('A' for Active; 'I' for Inactive)
REMARK    1  A    between atoms: C4_4  and  C5_5 
REMARK    2  A    between atoms: C8_8  and  O9_9 
REMARK    3  A    between atoms: C10_11  and  O11_12 
REMARK    4  A    between atoms: C16_18  and  O17_19 
REMARK    5  A    between atoms: C19_22  and  O20_23 
ROOT
HETATM    1  O1          0      30.966  66.313  -8.503  1.00  0.00    -0.286 OA
HETATM    2  C2          0      31.904  66.117  -9.324  1.00  0.00     0.201 C 
HETATM    3  C3          0      32.283  64.853  -9.743  1.00  0.00     0.067 C 
HETATM    4  C4          0      33.385  64.659 -10.568  1.00  0.00     0.103 C 
HETATM    5  O13         0      34.070  65.714 -10.972  1.00  0.00    -0.307 OA
HETATM    6  C14         0      33.775  66.933 -10.574  1.00  0.00     0.107 C 
HETATM    7  C15         0      34.693  67.970 -10.656  1.00  0.00     0.049 C 
HETATM    8  C16         0      34.474  69.180 -10.008  1.00  0.00     0.093 C 
HETATM    9  C18         0      33.141  69.478  -9.756  1.00  0.00     0.048 C 
HETATM   10  C19         0      32.188  68.469  -9.713  1.00  0.00     0.096 C 
HETATM   11  C21         0      32.562  67.172  -9.938  1.00  0.00     0.084 C 
ENDROOT
BRANCH  10  12
HETATM   12  O20         0      30.986  68.696  -9.049  1.00  0.00    -0.359 OA
HETATM   13  H20         0      30.795  68.170  -8.282  1.00  0.00     0.218 HD
ENDBRANCH  10  12
BRANCH   4  14
HETATM   14  C5          0      34.070  63.368 -10.478  1.00  0.00     0.025 C 
HETATM   15  C6          0      33.515  62.188 -10.955  1.00  0.00     0.004 C 
HETATM   16  C7          0      34.368  61.278 -11.571  1.00  0.00     0.026 C 
HETATM   17  C8          0      35.746  61.470 -11.594  1.00  0.00     0.112 C 
HETATM   18  C10         0      36.234  62.291 -10.587  1.00  0.00     0.112 C 
HETATM   19  C12         0      35.385  63.250 -10.047  1.00  0.00     0.028 C 
BRANCH  17  20
HETATM   20  O9          0      36.503  61.038 -12.668  1.00  0.00    -0.357 OA
HETATM   21  H9          0      36.133  60.658 -13.457  1.00  0.00     0.218 HD
ENDBRANCH  17  20
BRANCH  18  22
HETATM   22  O11         0      37.613  62.365 -10.449  1.00  0.00    -0.357 OA
HETATM   23  H11         0      37.962  63.141 -10.026  1.00  0.00     0.218 HD
ENDBRANCH  18  22
ENDBRANCH   4  14
BRANCH   8  24
HETATM   24  O17         0      35.515  69.863  -9.368  1.00  0.00    -0.359 OA
HETATM   25  H17         0      35.347  70.589  -8.779  1.00  0.00     0.218 HD
ENDBRANCH   8  24
TORSDOF 5
ENDMDL
