MODEL 1
REMARK VINA RESULT:      -5.2      0.000      0.000
REMARK  5 active torsions:
REMARK  status: ('A' for Active; 'I' for Inactive)
REMARK    1  A    between atoms: C4_4  and  C5_5 
REMARK    2  A    between atoms: C8_8  and  O9_9 
REMARK    3  A    between atoms: C10_11  and  O11_12 
REMARK    4  A    between atoms: C16_18  and  O17_19 
REMARK    5  A    between atoms: C19_22  and  O20_23 
ROOT
HETATM    1  O1          0      51.402  -6.232  -7.596  1.00  0.00    -0.286 OA
HETATM    2  C2          0      52.497  -6.416  -8.194  1.00  0.00     0.201 C 
HETATM    3  C3          0      53.725  -6.173  -7.603  1.00  0.00     0.067 C 
HETATM    4  C4          0      54.913  -6.285  -8.317  1.00  0.00     0.103 C 
HETATM    5  O13         0      54.858  -6.652  -9.585  1.00  0.00    -0.307 OA
HETATM    6  C14         0      53.717  -6.858 -10.205  1.00  0.00     0.107 C 
HETATM    7  C15         0      53.624  -6.846 -11.589  1.00  0.00     0.049 C 
HETATM    8  C16         0      52.392  -6.808 -12.230  1.00  0.00     0.093 C 
HETATM    9  C18         0      51.329  -7.309 -11.488  1.00  0.00     0.048 C 
HETATM   10  C19         0      51.406  -7.379 -10.103  1.00  0.00     0.096 C 
HETATM   11  C21         0      52.544  -6.967  -9.465  1.00  0.00     0.084 C 
ENDROOT
BRANCH  10  12
HETATM   12  O20         0      50.233  -7.457  -9.360  1.00  0.00    -0.359 OA
HETATM   13  H20         0      49.573  -8.082  -9.633  1.00  0.00     0.218 HD
ENDBRANCH  10  12
BRANCH   4  14
HETATM   14  C5          0      56.045  -5.474  -7.866  1.00  0.00     0.025 C 
HETATM   15  C6          0      57.365  -5.838  -8.085  1.00  0.00     0.004 C 
HETATM   16  C7          0      58.270  -4.828  -8.395  1.00  0.00     0.026 C 
HETATM   17  C8          0      57.905  -3.486  -8.359  1.00  0.00     0.112 C 
HETATM   18  C10         0      56.816  -3.203  -7.546  1.00  0.00     0.112 C 
HETATM   19  C12         0      55.882  -4.207  -7.320  1.00  0.00     0.028 C 
BRANCH  17  20
HETATM   20  O9          0      58.467  -2.575  -9.236  1.00  0.00    -0.357 OA
HETATM   21  H9          0      57.965  -2.073  -9.868  1.00  0.00     0.218 HD
ENDBRANCH  17  20
BRANCH  18  22
HETATM   22  O11         0      56.528  -1.864  -7.324  1.00  0.00    -0.357 OA
HETATM   23  H11         0      56.001  -1.658  -6.561  1.00  0.00     0.218 HD
ENDBRANCH  18  22
ENDBRANCH   4  14
BRANCH   8  24
HETATM   24  O17         0      52.187  -6.027 -13.373  1.00  0.00    -0.359 OA
HETATM   25  H17         0      51.630  -5.259 -13.359  1.00  0.00     0.218 HD
ENDBRANCH   8  24
TORSDOF 5
ENDMDL
MODEL 2
REMARK VINA RESULT:      -5.1      1.485      6.561
REMARK  5 active torsions:
REMARK  status: ('A' for Active; 'I' for Inactive)
REMARK    1  A    between atoms: C4_4  and  C5_5 
REMARK    2  A    between atoms: C8_8  and  O9_9 
REMARK    3  A    between atoms: C10_11  and  O11_12 
REMARK    4  A    between atoms: C16_18  and  O17_19 
REMARK    5  A    between atoms: C19_22  and  O20_23 
ROOT
HETATM    1  O1          0      58.552  -6.894  -9.681  1.00  0.00    -0.286 OA
HETATM    2  C2          0      57.404  -6.692  -9.199  1.00  0.00     0.201 C 
HETATM    3  C3          0      56.290  -7.418  -9.584  1.00  0.00     0.067 C 
HETATM    4  C4          0      55.019  -7.107  -9.114  1.00  0.00     0.103 C 
HETATM    5  O13         0      54.884  -6.106  -8.263  1.00  0.00    -0.307 OA
HETATM    6  C14         0      55.903  -5.361  -7.893  1.00  0.00     0.107 C 
HETATM    7  C15         0      55.725  -4.100  -7.342  1.00  0.00     0.049 C 
HETATM    8  C16         0      56.791  -3.221  -7.191  1.00  0.00     0.093 C 
HETATM    9  C18         0      58.040  -3.823  -7.107  1.00  0.00     0.048 C 
HETATM   10  C19         0      58.242  -5.102  -7.607  1.00  0.00     0.096 C 
HETATM   11  C21         0      57.198  -5.783  -8.172  1.00  0.00     0.084 C 
ENDROOT
BRANCH  10  12
HETATM   12  O20         0      59.534  -5.516  -7.916  1.00  0.00    -0.359 OA
HETATM   13  H20         0      59.934  -6.177  -7.365  1.00  0.00     0.218 HD
ENDBRANCH  10  12
BRANCH   4  14
HETATM   14  C5          0      53.883  -7.466  -9.966  1.00  0.00     0.025 C 
HETATM   15  C6          0      52.760  -8.122  -9.485  1.00  0.00     0.004 C 
HETATM   16  C7          0      51.523  -7.742  -9.996  1.00  0.00     0.026 C 
HETATM   17  C8          0      51.414  -6.836 -11.045  1.00  0.00     0.112 C 
HETATM   18  C10         0      52.545  -6.738 -11.846  1.00  0.00     0.112 C 
HETATM   19  C12         0      53.779  -7.042 -11.285  1.00  0.00     0.028 C 
BRANCH  17  20
HETATM   20  O9          0      50.339  -5.970 -11.125  1.00  0.00    -0.357 OA
HETATM   21  H9          0      50.392  -5.043 -10.926  1.00  0.00     0.218 HD
ENDBRANCH  17  20
BRANCH  18  22
HETATM   22  O11         0      52.426  -5.995 -13.012  1.00  0.00    -0.357 OA
HETATM   23  H11         0      51.933  -6.387 -13.723  1.00  0.00     0.218 HD
ENDBRANCH  18  22
ENDBRANCH   4  14
BRANCH   8  24
HETATM   24  O17         0      56.649  -1.853  -7.445  1.00  0.00    -0.359 OA
HETATM   25  H17         0      55.828  -1.399  -7.293  1.00  0.00     0.218 HD
ENDBRANCH   8  24
TORSDOF 5
ENDMDL
MODEL 3
REMARK VINA RESULT:      -5.0      2.434      6.868
REMARK  5 active torsions:
REMARK  status: ('A' for Active; 'I' for Inactive)
REMARK    1  A    between atoms: C4_4  and  C5_5 
REMARK    2  A    between atoms: C8_8  and  O9_9 
REMARK    3  A    between atoms: C10_11  and  O11_12 
REMARK    4  A    between atoms: C16_18  and  O17_19 
REMARK    5  A    between atoms: C19_22  and  O20_23 
ROOT
HETATM    1  O1          0      56.951  -2.285  -7.769  1.00  0.00    -0.286 OA
HETATM    2  C2          0      56.300  -3.177  -7.159  1.00  0.00     0.201 C 
HETATM    3  C3          0      56.055  -4.429  -7.699  1.00  0.00     0.067 C 
HETATM    4  C4          0      55.249  -5.356  -7.050  1.00  0.00     0.103 C 
HETATM    5  O13         0      54.724  -5.034  -5.881  1.00  0.00    -0.307 OA
HETATM    6  C14         0      54.895  -3.847  -5.342  1.00  0.00     0.107 C 
HETATM    7  C15         0      54.051  -3.366  -4.351  1.00  0.00     0.049 C 
HETATM    8  C16         0      54.075  -2.030  -3.968  1.00  0.00     0.093 C 
HETATM    9  C18         0      55.274  -1.371  -4.211  1.00  0.00     0.048 C 
HETATM   10  C19         0      56.163  -1.851  -5.163  1.00  0.00     0.096 C 
HETATM   11  C21         0      55.864  -2.992  -5.857  1.00  0.00     0.084 C 
ENDROOT
BRANCH  10  12
HETATM   12  O20         0      57.113  -0.990  -5.702  1.00  0.00    -0.359 OA
HETATM   13  H20         0      57.590  -0.424  -5.107  1.00  0.00     0.218 HD
ENDBRANCH  10  12
BRANCH   4  14
HETATM   14  C5          0      54.560  -6.344  -7.883  1.00  0.00     0.025 C 
HETATM   15  C6          0      53.539  -7.151  -7.403  1.00  0.00     0.004 C 
HETATM   16  C7          0      52.470  -7.413  -8.254  1.00  0.00     0.026 C 
HETATM   17  C8          0      52.476  -6.999  -9.582  1.00  0.00     0.112 C 
HETATM   18  C10         0      53.739  -6.784 -10.116  1.00  0.00     0.112 C 
HETATM   19  C12         0      54.772  -6.441  -9.252  1.00  0.00     0.028 C 
BRANCH  17  20
HETATM   20  O9          0      51.301  -6.636 -10.216  1.00  0.00    -0.357 OA
HETATM   21  H9          0      51.098  -6.858 -11.118  1.00  0.00     0.218 HD
ENDBRANCH  17  20
BRANCH  18  22
HETATM   22  O11         0      53.813  -6.555 -11.483  1.00  0.00    -0.357 OA
HETATM   23  H11         0      52.998  -6.593 -11.970  1.00  0.00     0.218 HD
ENDBRANCH  18  22
ENDBRANCH   4  14
BRANCH   8  24
HETATM   24  O17         0      52.896  -1.331  -3.686  1.00  0.00    -0.359 OA
HETATM   25  H17         0      52.860  -0.666  -3.009  1.00  0.00     0.218 HD
ENDBRANCH   8  24
TORSDOF 5
ENDMDL
MODEL 4
REMARK VINA RESULT:      -4.8      6.064      8.972
REMARK  5 active torsions:
REMARK  status: ('A' for Active; 'I' for Inactive)
REMARK    1  A    between atoms: C4_4  and  C5_5 
REMARK    2  A    between atoms: C8_8  and  O9_9 
REMARK    3  A    between atoms: C10_11  and  O11_12 
REMARK    4  A    between atoms: C16_18  and  O17_19 
REMARK    5  A    between atoms: C19_22  and  O20_23 
ROOT
HETATM    1  O1          0      57.824   0.682  -2.295  1.00  0.00    -0.286 OA
HETATM    2  C2          0      58.340  -0.375  -2.750  1.00  0.00     0.201 C 
HETATM    3  C3          0      59.643  -0.753  -2.472  1.00  0.00     0.067 C 
HETATM    4  C4          0      60.221  -1.869  -3.069  1.00  0.00     0.103 C 
HETATM    5  O13         0      59.494  -2.590  -3.904  1.00  0.00    -0.307 OA
HETATM    6  C14         0      58.265  -2.254  -4.231  1.00  0.00     0.107 C 
HETATM    7  C15         0      57.652  -2.748  -5.373  1.00  0.00     0.049 C 
HETATM    8  C16         0      56.466  -2.201  -5.849  1.00  0.00     0.093 C 
HETATM    9  C18         0      55.690  -1.558  -4.892  1.00  0.00     0.048 C 
HETATM   10  C19         0      56.263  -1.093  -3.717  1.00  0.00     0.096 C 
HETATM   11  C21         0      57.599  -1.284  -3.490  1.00  0.00     0.084 C 
ENDROOT
BRANCH  10  12
HETATM   12  O20         0      55.614  -0.099  -2.990  1.00  0.00    -0.359 OA
HETATM   13  H20         0      54.674  -0.015  -3.093  1.00  0.00     0.218 HD
ENDBRANCH  10  12
BRANCH   4  14
HETATM   14  C5          0      61.677  -1.868  -3.221  1.00  0.00     0.025 C 
HETATM   15  C6          0      62.333  -2.628  -4.178  1.00  0.00     0.004 C 
HETATM   16  C7          0      63.437  -2.061  -4.807  1.00  0.00     0.026 C 
HETATM   17  C8          0      63.954  -0.834  -4.405  1.00  0.00     0.112 C 
HETATM   18  C10         0      63.653  -0.478  -3.097  1.00  0.00     0.112 C 
HETATM   19  C12         0      62.498  -0.993  -2.521  1.00  0.00     0.028 C 
BRANCH  17  20
HETATM   20  O9          0      64.530   0.027  -5.322  1.00  0.00    -0.357 OA
HETATM   21  H9          0      64.219   0.910  -5.485  1.00  0.00     0.218 HD
ENDBRANCH  17  20
BRANCH  18  22
HETATM   22  O11         0      64.298   0.640  -2.586  1.00  0.00    -0.357 OA
HETATM   23  H11         0      64.546   0.611  -1.669  1.00  0.00     0.218 HD
ENDBRANCH  18  22
ENDBRANCH   4  14
BRANCH   8  24
HETATM   24  O17         0      56.245  -2.020  -7.219  1.00  0.00    -0.359 OA
HETATM   25  H17         0      55.464  -1.590  -7.546  1.00  0.00     0.218 HD
ENDBRANCH   8  24
TORSDOF 5
ENDMDL
MODEL 5
REMARK VINA RESULT:      -4.8      2.973      5.394
REMARK  5 active torsions:
REMARK  status: ('A' for Active; 'I' for Inactive)
REMARK    1  A    between atoms: C4_4  and  C5_5 
REMARK    2  A    between atoms: C8_8  and  O9_9 
REMARK    3  A    between atoms: C10_11  and  O11_12 
REMARK    4  A    between atoms: C16_18  and  O17_19 
REMARK    5  A    between atoms: C19_22  and  O20_23 
ROOT
HETATM    1  O1          0      57.490  -2.548  -8.239  1.00  0.00    -0.286 OA
HETATM    2  C2          0      57.603  -3.805  -8.259  1.00  0.00     0.201 C 
HETATM    3  C3          0      58.787  -4.447  -8.580  1.00  0.00     0.067 C 
HETATM    4  C4          0      58.857  -5.831  -8.695  1.00  0.00     0.103 C 
HETATM    5  O13         0      57.766  -6.542  -8.472  1.00  0.00    -0.307 OA
HETATM    6  C14         0      56.609  -5.981  -8.201  1.00  0.00     0.107 C 
HETATM    7  C15         0      55.411  -6.663  -8.360  1.00  0.00     0.049 C 
HETATM    8  C16         0      54.191  -5.998  -8.321  1.00  0.00     0.093 C 
HETATM    9  C18         0      54.197  -4.802  -7.613  1.00  0.00     0.048 C 
HETATM   10  C19         0      55.385  -4.117  -7.395  1.00  0.00     0.096 C 
HETATM   11  C21         0      56.562  -4.632  -7.867  1.00  0.00     0.084 C 
ENDROOT
BRANCH  10  12
HETATM   12  O20         0      55.342  -2.760  -7.091  1.00  0.00    -0.359 OA
HETATM   13  H20         0      55.901  -2.442  -6.393  1.00  0.00     0.218 HD
ENDBRANCH  10  12
BRANCH   4  14
HETATM   14  C5          0      59.886  -6.377  -9.582  1.00  0.00     0.025 C 
HETATM   15  C6          0      59.726  -7.568 -10.276  1.00  0.00     0.004 C 
HETATM   16  C7          0      60.232  -7.632 -11.570  1.00  0.00     0.026 C 
HETATM   17  C8          0      60.991  -6.599 -12.109  1.00  0.00     0.112 C 
HETATM   18  C10         0      61.612  -5.785 -11.171  1.00  0.00     0.112 C 
HETATM   19  C12         0      61.037  -5.672  -9.911  1.00  0.00     0.028 C 
BRANCH  17  20
HETATM   20  O9          0      60.933  -6.308 -13.461  1.00  0.00    -0.357 OA
HETATM   21  H9          0      60.465  -5.563 -13.821  1.00  0.00     0.218 HD
ENDBRANCH  17  20
BRANCH  18  22
HETATM   22  O11         0      62.528  -4.859 -11.650  1.00  0.00    -0.357 OA
HETATM   23  H11         0      62.180  -4.126 -12.145  1.00  0.00     0.218 HD
ENDBRANCH  18  22
ENDBRANCH   4  14
BRANCH   8  24
HETATM   24  O17         0      53.151  -6.329  -9.197  1.00  0.00    -0.359 OA
HETATM   25  H17         0      53.222  -7.056  -9.803  1.00  0.00     0.218 HD
ENDBRANCH   8  24
TORSDOF 5
ENDMDL
MODEL 6
REMARK VINA RESULT:      -4.7      6.787      8.634
REMARK  5 active torsions:
REMARK  status: ('A' for Active; 'I' for Inactive)
REMARK    1  A    between atoms: C4_4  and  C5_5 
REMARK    2  A    between atoms: C8_8  and  O9_9 
REMARK    3  A    between atoms: C10_11  and  O11_12 
REMARK    4  A    between atoms: C16_18  and  O17_19 
REMARK    5  A    between atoms: C19_22  and  O20_23 
ROOT
HETATM    1  O1          0      59.338  -5.325  -8.361  1.00  0.00    -0.286 OA
HETATM    2  C2          0      60.571  -5.209  -8.120  1.00  0.00     0.201 C 
HETATM    3  C3          0      61.062  -4.838  -6.881  1.00  0.00     0.067 C 
HETATM    4  C4          0      62.419  -4.618  -6.671  1.00  0.00     0.103 C 
HETATM    5  O13         0      63.254  -4.790  -7.681  1.00  0.00    -0.307 OA
HETATM    6  C14         0      62.836  -5.106  -8.887  1.00  0.00     0.107 C 
HETATM    7  C15         0      63.623  -4.900 -10.010  1.00  0.00     0.049 C 
HETATM    8  C16         0      63.092  -4.993 -11.291  1.00  0.00     0.093 C 
HETATM    9  C18         0      61.958  -5.789 -11.399  1.00  0.00     0.048 C 
HETATM   10  C19         0      61.173  -6.054 -10.285  1.00  0.00     0.096 C 
HETATM   11  C21         0      61.528  -5.542  -9.067  1.00  0.00     0.084 C 
ENDROOT
BRANCH  10  12
HETATM   12  O20         0      59.854  -6.460 -10.464  1.00  0.00    -0.359 OA
HETATM   13  H20         0      59.546  -7.207  -9.965  1.00  0.00     0.218 HD
ENDBRANCH  10  12
BRANCH   4  14
HETATM   14  C5          0      62.790  -3.690  -5.601  1.00  0.00     0.025 C 
HETATM   15  C6          0      64.065  -3.638  -5.059  1.00  0.00     0.004 C 
HETATM   16  C7          0      64.575  -2.386  -4.729  1.00  0.00     0.026 C 
HETATM   17  C8          0      63.796  -1.237  -4.808  1.00  0.00     0.112 C 
HETATM   18  C10         0      62.427  -1.459  -4.736  1.00  0.00     0.112 C 
HETATM   19  C12         0      61.935  -2.691  -5.153  1.00  0.00     0.028 C 
BRANCH  17  20
HETATM   20  O9          0      64.360  -0.020  -5.144  1.00  0.00    -0.357 OA
HETATM   21  H9          0      63.971   0.591  -5.759  1.00  0.00     0.218 HD
ENDBRANCH  17  20
BRANCH  18  22
HETATM   22  O11         0      61.614  -0.341  -4.621  1.00  0.00    -0.357 OA
HETATM   23  H11         0      61.754   0.359  -5.248  1.00  0.00     0.218 HD
ENDBRANCH  18  22
ENDBRANCH   4  14
BRANCH   8  24
HETATM   24  O17         0      63.461  -4.098 -12.301  1.00  0.00    -0.359 OA
HETATM   25  H17         0      64.232  -3.548 -12.223  1.00  0.00     0.218 HD
ENDBRANCH   8  24
TORSDOF 5
ENDMDL
MODEL 7
REMARK VINA RESULT:      -4.5      4.041      7.139
REMARK  5 active torsions:
REMARK  status: ('A' for Active; 'I' for Inactive)
REMARK    1  A    between atoms: C4_4  and  C5_5 
REMARK    2  A    between atoms: C8_8  and  O9_9 
REMARK    3  A    between atoms: C10_11  and  O11_12 
REMARK    4  A    between atoms: C16_18  and  O17_19 
REMARK    5  A    between atoms: C19_22  and  O20_23 
ROOT
HETATM    1  O1          0      53.501  -3.264  -4.806  1.00  0.00    -0.286 OA
HETATM    2  C2          0      54.558  -2.805  -5.319  1.00  0.00     0.201 C 
HETATM    3  C3          0      55.037  -3.222  -6.549  1.00  0.00     0.067 C 
HETATM    4  C4          0      56.257  -2.777  -7.045  1.00  0.00     0.103 C 
HETATM    5  O13         0      56.959  -1.919  -6.326  1.00  0.00    -0.307 OA
HETATM    6  C14         0      56.568  -1.520  -5.136  1.00  0.00     0.107 C 
HETATM    7  C15         0      57.453  -0.960  -4.226  1.00  0.00     0.049 C 
HETATM    8  C16         0      57.099  -0.777  -2.894  1.00  0.00     0.093 C 
HETATM    9  C18         0      55.734  -0.672  -2.659  1.00  0.00     0.048 C 
HETATM   10  C19         0      54.819  -1.180  -3.572  1.00  0.00     0.096 C 
HETATM   11  C21         0      55.266  -1.774  -4.720  1.00  0.00     0.084 C 
ENDROOT
BRANCH  10  12
HETATM   12  O20         0      53.524  -1.465  -3.150  1.00  0.00    -0.359 OA
HETATM   13  H20         0      52.927  -1.854  -3.778  1.00  0.00     0.218 HD
ENDBRANCH  10  12
BRANCH   4  14
HETATM   14  C5          0      56.962  -3.657  -7.979  1.00  0.00     0.025 C 
HETATM   15  C6          0      58.214  -3.357  -8.496  1.00  0.00     0.004 C 
HETATM   16  C7          0      59.115  -4.405  -8.652  1.00  0.00     0.026 C 
HETATM   17  C8          0      58.742  -5.727  -8.430  1.00  0.00     0.112 C 
HETATM   18  C10         0      57.380  -5.972  -8.545  1.00  0.00     0.112 C 
HETATM   19  C12         0      56.498  -4.926  -8.300  1.00  0.00     0.028 C 
BRANCH  17  20
HETATM   20  O9          0      59.648  -6.645  -7.930  1.00  0.00    -0.357 OA
HETATM   21  H9          0      59.576  -7.043  -7.070  1.00  0.00     0.218 HD
ENDBRANCH  17  20
BRANCH  18  22
HETATM   22  O11         0      56.976  -7.299  -8.521  1.00  0.00    -0.357 OA
HETATM   23  H11         0      56.441  -7.573  -7.785  1.00  0.00     0.218 HD
ENDBRANCH  18  22
ENDBRANCH   4  14
BRANCH   8  24
HETATM   24  O17         0      58.008  -1.020  -1.859  1.00  0.00    -0.359 OA
HETATM   25  H17         0      58.912  -0.734  -1.910  1.00  0.00     0.218 HD
ENDBRANCH   8  24
TORSDOF 5
ENDMDL
MODEL 8
REMARK VINA RESULT:      -4.4      5.202      7.966
REMARK  5 active torsions:
REMARK  status: ('A' for Active; 'I' for Inactive)
REMARK    1  A    between atoms: C4_4  and  C5_5 
REMARK    2  A    between atoms: C8_8  and  O9_9 
REMARK    3  A    between atoms: C10_11  and  O11_12 
REMARK    4  A    between atoms: C16_18  and  O17_19 
REMARK    5  A    between atoms: C19_22  and  O20_23 
ROOT
HETATM    1  O1          0      57.530  -0.984  -3.806  1.00  0.00    -0.286 OA
HETATM    2  C2          0      58.368  -1.812  -4.257  1.00  0.00     0.201 C 
HETATM    3  C3          0      59.636  -1.964  -3.720  1.00  0.00     0.067 C 
HETATM    4  C4          0      60.575  -2.810  -4.299  1.00  0.00     0.103 C 
HETATM    5  O13         0      60.234  -3.497  -5.375  1.00  0.00    -0.307 OA
HETATM    6  C14         0      59.057  -3.362  -5.946  1.00  0.00     0.107 C 
HETATM    7  C15         0      58.832  -3.751  -7.258  1.00  0.00     0.049 C 
HETATM    8  C16         0      57.676  -3.378  -7.934  1.00  0.00     0.093 C 
HETATM    9  C18         0      56.587  -3.093  -7.120  1.00  0.00     0.048 C 
HETATM   10  C19         0      56.773  -2.745  -5.789  1.00  0.00     0.096 C 
HETATM   11  C21         0      58.038  -2.700  -5.269  1.00  0.00     0.084 C 
ENDROOT
BRANCH  10  12
HETATM   12  O20         0      55.767  -2.055  -5.119  1.00  0.00    -0.359 OA
HETATM   13  H20         0      54.983  -2.534  -4.877  1.00  0.00     0.218 HD
ENDBRANCH  10  12
BRANCH   4  14
HETATM   14  C5          0      61.988  -2.486  -4.089  1.00  0.00     0.025 C 
HETATM   15  C6          0      63.009  -3.058  -4.833  1.00  0.00     0.004 C 
HETATM   16  C7          0      64.082  -2.245  -5.186  1.00  0.00     0.026 C 
HETATM   17  C8          0      64.203  -0.946  -4.704  1.00  0.00     0.112 C 
HETATM   18  C10         0      63.519  -0.701  -3.521  1.00  0.00     0.112 C 
HETATM   19  C12         0      62.399  -1.472  -3.233  1.00  0.00     0.028 C 
BRANCH  17  20
HETATM   20  O9          0      64.784   0.045  -5.475  1.00  0.00    -0.357 OA
HETATM   21  H9          0      64.418   0.360  -6.293  1.00  0.00     0.218 HD
ENDBRANCH  17  20
BRANCH  18  22
HETATM   22  O11         0      63.757   0.516  -2.898  1.00  0.00    -0.357 OA
HETATM   23  H11         0      63.893   1.268  -3.462  1.00  0.00     0.218 HD
ENDBRANCH  18  22
ENDBRANCH   4  14
BRANCH   8  24
HETATM   24  O17         0      57.709  -2.996  -9.280  1.00  0.00    -0.359 OA
HETATM   25  H17         0      57.683  -3.636  -9.981  1.00  0.00     0.218 HD
ENDBRANCH   8  24
TORSDOF 5
ENDMDL
MODEL 9
REMARK VINA RESULT:      -4.4      4.041      6.548
REMARK  5 active torsions:
REMARK  status: ('A' for Active; 'I' for Inactive)
REMARK    1  A    between atoms: C4_4  and  C5_5 
REMARK    2  A    between atoms: C8_8  and  O9_9 
REMARK    3  A    between atoms: C10_11  and  O11_12 
REMARK    4  A    between atoms: C16_18  and  O17_19 
REMARK    5  A    between atoms: C19_22  and  O20_23 
ROOT
HETATM    1  O1          0      60.342  -7.567  -8.360  1.00  0.00    -0.286 OA
HETATM    2  C2          0      60.129  -6.339  -8.161  1.00  0.00     0.201 C 
HETATM    3  C3          0      61.015  -5.526  -7.475  1.00  0.00     0.067 C 
HETATM    4  C4          0      60.710  -4.202  -7.180  1.00  0.00     0.103 C 
HETATM    5  O13         0      59.552  -3.712  -7.587  1.00  0.00    -0.307 OA
HETATM    6  C14         0      58.660  -4.451  -8.209  1.00  0.00     0.107 C 
HETATM    7  C15         0      57.325  -4.080  -8.280  1.00  0.00     0.049 C 
HETATM    8  C16         0      56.350  -4.973  -8.708  1.00  0.00     0.093 C 
HETATM    9  C18         0      56.810  -5.995  -9.529  1.00  0.00     0.048 C 
HETATM   10  C19         0      58.149  -6.361  -9.518  1.00  0.00     0.096 C 
HETATM   11  C21         0      59.027  -5.698  -8.704  1.00  0.00     0.084 C 
ENDROOT
BRANCH  10  12
HETATM   12  O20         0      58.514  -7.620  -9.983  1.00  0.00    -0.359 OA
HETATM   13  H20         0      59.385  -7.725 -10.347  1.00  0.00     0.218 HD
ENDBRANCH  10  12
BRANCH   4  14
HETATM   14  C5          0      61.350  -3.613  -6.003  1.00  0.00     0.025 C 
HETATM   15  C6          0      62.620  -3.975  -5.577  1.00  0.00     0.004 C 
HETATM   16  C7          0      63.444  -2.970  -5.080  1.00  0.00     0.026 C 
HETATM   17  C8          0      62.978  -1.674  -4.887  1.00  0.00     0.112 C 
HETATM   18  C10         0      61.602  -1.569  -4.733  1.00  0.00     0.112 C 
HETATM   19  C12         0      60.797  -2.543  -5.312  1.00  0.00     0.028 C 
BRANCH  17  20
HETATM   20  O9          0      63.817  -0.587  -5.055  1.00  0.00    -0.357 OA
HETATM   21  H9          0      64.143  -0.056  -4.337  1.00  0.00     0.218 HD
ENDBRANCH  17  20
BRANCH  18  22
HETATM   22  O11         0      61.105  -0.331  -4.350  1.00  0.00    -0.357 OA
HETATM   23  H11         0      61.421   0.024  -3.527  1.00  0.00     0.218 HD
ENDBRANCH  18  22
ENDBRANCH   4  14
BRANCH   8  24
HETATM   24  O17         0      55.094  -5.032  -8.093  1.00  0.00    -0.359 OA
HETATM   25  H17         0      54.332  -5.372  -8.545  1.00  0.00     0.218 HD
ENDBRANCH   8  24
TORSDOF 5
ENDMDL
