MODEL 1
REMARK VINA RESULT:      -5.1      0.000      0.000
REMARK  5 active torsions:
REMARK  status: ('A' for Active; 'I' for Inactive)
REMARK    1  A    between atoms: C4_4  and  C5_5 
REMARK    2  A    between atoms: C8_8  and  O9_9 
REMARK    3  A    between atoms: C10_11  and  O11_12 
REMARK    4  A    between atoms: C16_18  and  O17_19 
REMARK    5  A    between atoms: C19_22  and  O20_23 
ROOT
HETATM    1  O1          0      53.790  12.359 -17.337  1.00  0.00    -0.286 OA
HETATM    2  C2          0      53.563  13.118 -16.356  1.00  0.00     0.201 C 
HETATM    3  C3          0      52.346  13.147 -15.695  1.00  0.00     0.067 C 
HETATM    4  C4          0      52.088  14.065 -14.683  1.00  0.00     0.103 C 
HETATM    5  O13         0      53.041  14.913 -14.337  1.00  0.00    -0.307 OA
HETATM    6  C14         0      54.200  14.952 -14.957  1.00  0.00     0.107 C 
HETATM    7  C15         0      55.030  16.062 -14.885  1.00  0.00     0.049 C 
HETATM    8  C16         0      56.121  16.204 -15.734  1.00  0.00     0.093 C 
HETATM    9  C18         0      56.629  15.014 -16.241  1.00  0.00     0.048 C 
HETATM   10  C19         0      55.841  13.872 -16.285  1.00  0.00     0.096 C 
HETATM   11  C21         0      54.558  13.914 -15.810  1.00  0.00     0.084 C 
ENDROOT
BRANCH  10  12
HETATM   12  O20         0      56.179  12.845 -17.160  1.00  0.00    -0.359 OA
HETATM   13  H20         0      56.926  12.976 -17.732  1.00  0.00     0.218 HD
ENDBRANCH  10  12
BRANCH   4  14
HETATM   14  C5          0      50.692  14.447 -14.466  1.00  0.00     0.025 C 
HETATM   15  C6          0      49.626  13.738 -15.000  1.00  0.00     0.004 C 
HETATM   16  C7          0      48.489  13.592 -14.212  1.00  0.00     0.026 C 
HETATM   17  C8          0      48.361  14.241 -12.988  1.00  0.00     0.112 C 
HETATM   18  C10         0      49.149  15.376 -12.849  1.00  0.00     0.112 C 
HETATM   19  C12         0      50.325  15.458 -13.586  1.00  0.00     0.028 C 
BRANCH  17  20
HETATM   20  O9          0      47.663  13.658 -11.946  1.00  0.00    -0.357 OA
HETATM   21  H9          0      46.812  13.958 -11.648  1.00  0.00     0.218 HD
ENDBRANCH  17  20
BRANCH  18  22
HETATM   22  O11         0      48.923  16.165 -11.730  1.00  0.00    -0.357 OA
HETATM   23  H11         0      49.498  16.911 -11.607  1.00  0.00     0.218 HD
ENDBRANCH  18  22
ENDBRANCH   4  14
BRANCH   8  24
HETATM   24  O17         0      56.454  17.443 -16.293  1.00  0.00    -0.359 OA
HETATM   25  H17         0      56.367  18.251 -15.801  1.00  0.00     0.218 HD
ENDBRANCH   8  24
TORSDOF 5
ENDMDL
MODEL 2
REMARK VINA RESULT:      -4.9      2.862      5.172
REMARK  5 active torsions:
REMARK  status: ('A' for Active; 'I' for Inactive)
REMARK    1  A    between atoms: C4_4  and  C5_5 
REMARK    2  A    between atoms: C8_8  and  O9_9 
REMARK    3  A    between atoms: C10_11  and  O11_12 
REMARK    4  A    between atoms: C16_18  and  O17_19 
REMARK    5  A    between atoms: C19_22  and  O20_23 
ROOT
HETATM    1  O1          0      52.821  15.396 -13.390  1.00  0.00    -0.286 OA
HETATM    2  C2          0      53.362  15.084 -14.486  1.00  0.00     0.201 C 
HETATM    3  C3          0      52.818  14.153 -15.354  1.00  0.00     0.067 C 
HETATM    4  C4          0      53.485  13.752 -16.505  1.00  0.00     0.103 C 
HETATM    5  O13         0      54.659  14.294 -16.780  1.00  0.00    -0.307 OA
HETATM    6  C14         0      55.238  15.155 -15.971  1.00  0.00     0.107 C 
HETATM    7  C15         0      56.599  15.416 -16.034  1.00  0.00     0.049 C 
HETATM    8  C16         0      57.246  16.121 -15.027  1.00  0.00     0.093 C 
HETATM    9  C18         0      56.431  16.970 -14.288  1.00  0.00     0.048 C 
HETATM   10  C19         0      55.058  16.765 -14.240  1.00  0.00     0.096 C 
HETATM   11  C21         0      54.502  15.730 -14.941  1.00  0.00     0.084 C 
ENDROOT
BRANCH  10  12
HETATM   12  O20         0      54.325  17.313 -13.193  1.00  0.00    -0.359 OA
HETATM   13  H20         0      54.741  17.978 -12.658  1.00  0.00     0.218 HD
ENDBRANCH  10  12
BRANCH   4  14
HETATM   14  C5          0      53.190  12.414 -17.020  1.00  0.00     0.025 C 
HETATM   15  C6          0      52.211  11.597 -16.473  1.00  0.00     0.004 C 
HETATM   16  C7          0      51.450  10.828 -17.347  1.00  0.00     0.026 C 
HETATM   17  C8          0      51.738  10.769 -18.707  1.00  0.00     0.112 C 
HETATM   18  C10         0      53.051  11.081 -19.035  1.00  0.00     0.112 C 
HETATM   19  C12         0      53.762  11.921 -18.186  1.00  0.00     0.028 C 
BRANCH  17  20
HETATM   20  O9          0      50.728  10.619 -19.640  1.00  0.00    -0.357 OA
HETATM   21  H9          0      50.384  11.333 -20.165  1.00  0.00     0.218 HD
ENDBRANCH  17  20
BRANCH  18  22
HETATM   22  O11         0      53.441  10.856 -20.347  1.00  0.00    -0.357 OA
HETATM   23  H11         0      52.860  11.173 -21.029  1.00  0.00     0.218 HD
ENDBRANCH  18  22
ENDBRANCH   4  14
BRANCH   8  24
HETATM   24  O17         0      58.521  15.753 -14.582  1.00  0.00    -0.359 OA
HETATM   25  H17         0      58.649  15.290 -13.763  1.00  0.00     0.218 HD
ENDBRANCH   8  24
TORSDOF 5
ENDMDL
MODEL 3
REMARK VINA RESULT:      -4.4      2.755      6.095
REMARK  5 active torsions:
REMARK  status: ('A' for Active; 'I' for Inactive)
REMARK    1  A    between atoms: C4_4  and  C5_5 
REMARK    2  A    between atoms: C8_8  and  O9_9 
REMARK    3  A    between atoms: C10_11  and  O11_12 
REMARK    4  A    between atoms: C16_18  and  O17_19 
REMARK    5  A    between atoms: C19_22  and  O20_23 
ROOT
HETATM    1  O1          0      49.220  13.738 -16.305  1.00  0.00    -0.286 OA
HETATM    2  C2          0      50.334  13.172 -16.132  1.00  0.00     0.201 C 
HETATM    3  C3          0      51.342  13.720 -15.356  1.00  0.00     0.067 C 
HETATM    4  C4          0      52.596  13.127 -15.265  1.00  0.00     0.103 C 
HETATM    5  O13         0      52.815  12.002 -15.923  1.00  0.00    -0.307 OA
HETATM    6  C14         0      51.906  11.460 -16.703  1.00  0.00     0.107 C 
HETATM    7  C15         0      52.241  10.537 -17.684  1.00  0.00     0.049 C 
HETATM    8  C16         0      51.329  10.163 -18.664  1.00  0.00     0.093 C 
HETATM    9  C18         0      49.994  10.319 -18.313  1.00  0.00     0.048 C 
HETATM   10  C19         0      49.627  11.200 -17.304  1.00  0.00     0.096 C 
HETATM   11  C21         0      50.591  11.906 -16.637  1.00  0.00     0.084 C 
ENDROOT
BRANCH  10  12
HETATM   12  O20         0      48.320  11.673 -17.255  1.00  0.00    -0.359 OA
HETATM   13  H20         0      47.797  11.457 -16.493  1.00  0.00     0.218 HD
ENDBRANCH  10  12
BRANCH   4  14
HETATM   14  C5          0      53.731  14.002 -14.968  1.00  0.00     0.025 C 
HETATM   15  C6          0      54.870  14.052 -15.759  1.00  0.00     0.004 C 
HETATM   16  C7          0      55.464  15.294 -15.956  1.00  0.00     0.026 C 
HETATM   17  C8          0      55.023  16.429 -15.284  1.00  0.00     0.112 C 
HETATM   18  C10         0      54.348  16.174 -14.098  1.00  0.00     0.112 C 
HETATM   19  C12         0      53.690  14.957 -13.960  1.00  0.00     0.028 C 
BRANCH  17  20
HETATM   20  O9          0      55.081  17.675 -15.883  1.00  0.00    -0.357 OA
HETATM   21  H9          0      54.469  17.971 -16.546  1.00  0.00     0.218 HD
ENDBRANCH  17  20
BRANCH  18  22
HETATM   22  O11         0      54.053  17.267 -13.295  1.00  0.00    -0.357 OA
HETATM   23  H11         0      53.627  17.089 -12.465  1.00  0.00     0.218 HD
ENDBRANCH  18  22
ENDBRANCH   4  14
BRANCH   8  24
HETATM   24  O17         0      51.724   9.973 -19.993  1.00  0.00    -0.359 OA
HETATM   25  H17         0      51.517  10.606 -20.670  1.00  0.00     0.218 HD
ENDBRANCH   8  24
TORSDOF 5
ENDMDL
MODEL 4
REMARK VINA RESULT:      -4.3      1.905      3.451
REMARK  5 active torsions:
REMARK  status: ('A' for Active; 'I' for Inactive)
REMARK    1  A    between atoms: C4_4  and  C5_5 
REMARK    2  A    between atoms: C8_8  and  O9_9 
REMARK    3  A    between atoms: C10_11  and  O11_12 
REMARK    4  A    between atoms: C16_18  and  O17_19 
REMARK    5  A    between atoms: C19_22  and  O20_23 
ROOT
HETATM    1  O1          0      53.691  15.088 -13.738  1.00  0.00    -0.286 OA
HETATM    2  C2          0      52.794  14.698 -14.536  1.00  0.00     0.201 C 
HETATM    3  C3          0      51.447  14.714 -14.217  1.00  0.00     0.067 C 
HETATM    4  C4          0      50.489  14.183 -15.074  1.00  0.00     0.103 C 
HETATM    5  O13         0      50.883  13.671 -16.227  1.00  0.00    -0.307 OA
HETATM    6  C14         0      52.152  13.596 -16.561  1.00  0.00     0.107 C 
HETATM    7  C15         0      52.599  12.727 -17.546  1.00  0.00     0.049 C 
HETATM    8  C16         0      53.953  12.466 -17.719  1.00  0.00     0.093 C 
HETATM    9  C18         0      54.805  13.465 -17.265  1.00  0.00     0.048 C 
HETATM   10  C19         0      54.376  14.381 -16.314  1.00  0.00     0.096 C 
HETATM   11  C21         0      53.097  14.310 -15.832  1.00  0.00     0.084 C 
ENDROOT
BRANCH  10  12
HETATM   12  O20         0      55.319  15.073 -15.561  1.00  0.00    -0.359 OA
HETATM   13  H20         0      55.032  15.482 -14.754  1.00  0.00     0.218 HD
ENDBRANCH  10  12
BRANCH   4  14
HETATM   14  C5          0      49.250  13.690 -14.470  1.00  0.00     0.025 C 
HETATM   15  C6          0      48.938  13.881 -13.132  1.00  0.00     0.004 C 
HETATM   16  C7          0      47.612  14.151 -12.811  1.00  0.00     0.026 C 
HETATM   17  C8          0      46.605  14.102 -13.769  1.00  0.00     0.112 C 
HETATM   18  C10         0      46.895  13.312 -14.874  1.00  0.00     0.112 C 
HETATM   19  C12         0      48.228  13.128 -15.223  1.00  0.00     0.028 C 
BRANCH  17  20
HETATM   20  O9          0      45.514  14.949 -13.695  1.00  0.00    -0.357 OA
HETATM   21  H9          0      45.028  15.116 -12.896  1.00  0.00     0.218 HD
ENDBRANCH  17  20
BRANCH  18  22
HETATM   22  O11         0      45.859  13.076 -15.766  1.00  0.00    -0.357 OA
HETATM   23  H11         0      46.058  13.169 -16.691  1.00  0.00     0.218 HD
ENDBRANCH  18  22
ENDBRANCH   4  14
BRANCH   8  24
HETATM   24  O17         0      54.416  11.177 -18.006  1.00  0.00    -0.359 OA
HETATM   25  H17         0      54.028  10.649 -18.693  1.00  0.00     0.218 HD
ENDBRANCH   8  24
TORSDOF 5
ENDMDL
MODEL 5
REMARK VINA RESULT:      -4.2      3.118      6.091
REMARK  5 active torsions:
REMARK  status: ('A' for Active; 'I' for Inactive)
REMARK    1  A    between atoms: C4_4  and  C5_5 
REMARK    2  A    between atoms: C8_8  and  O9_9 
REMARK    3  A    between atoms: C10_11  and  O11_12 
REMARK    4  A    between atoms: C16_18  and  O17_19 
REMARK    5  A    between atoms: C19_22  and  O20_23 
ROOT
HETATM    1  O1          0      54.477  11.063 -19.400  1.00  0.00    -0.286 OA
HETATM    2  C2          0      53.881  11.875 -18.640  1.00  0.00     0.201 C 
HETATM    3  C3          0      54.537  12.892 -17.969  1.00  0.00     0.067 C 
HETATM    4  C4          0      53.875  13.709 -17.058  1.00  0.00     0.103 C 
HETATM    5  O13         0      52.584  13.513 -16.852  1.00  0.00    -0.307 OA
HETATM    6  C14         0      51.923  12.537 -17.435  1.00  0.00     0.107 C 
HETATM    7  C15         0      50.711  12.078 -16.940  1.00  0.00     0.049 C 
HETATM    8  C16         0      50.146  10.894 -17.399  1.00  0.00     0.093 C 
HETATM    9  C18         0      50.542  10.511 -18.675  1.00  0.00     0.048 C 
HETATM   10  C19         0      51.726  10.989 -19.220  1.00  0.00     0.096 C 
HETATM   11  C21         0      52.502  11.858 -18.501  1.00  0.00     0.084 C 
ENDROOT
BRANCH  10  12
HETATM   12  O20         0      52.324  10.293 -20.266  1.00  0.00    -0.359 OA
HETATM   13  H20         0      52.763  10.795 -20.942  1.00  0.00     0.218 HD
ENDBRANCH  10  12
BRANCH   4  14
HETATM   14  C5          0      54.676  14.309 -15.990  1.00  0.00     0.025 C 
HETATM   15  C6          0      56.041  14.528 -16.108  1.00  0.00     0.004 C 
HETATM   16  C7          0      56.556  15.697 -15.555  1.00  0.00     0.026 C 
HETATM   17  C8          0      55.767  16.554 -14.795  1.00  0.00     0.112 C 
HETATM   18  C10         0      54.652  15.958 -14.220  1.00  0.00     0.112 C 
HETATM   19  C12         0      54.107  14.840 -14.841  1.00  0.00     0.028 C 
BRANCH  17  20
HETATM   20  O9          0      55.986  17.920 -14.810  1.00  0.00    -0.357 OA
HETATM   21  H9          0      55.951  18.469 -14.035  1.00  0.00     0.218 HD
ENDBRANCH  17  20
BRANCH  18  22
HETATM   22  O11         0      53.938  16.715 -13.303  1.00  0.00    -0.357 OA
HETATM   23  H11         0      54.443  17.219 -12.675  1.00  0.00     0.218 HD
ENDBRANCH  18  22
ENDBRANCH   4  14
BRANCH   8  24
HETATM   24  O17         0      49.511  10.002 -16.527  1.00  0.00    -0.359 OA
HETATM   25  H17         0      49.440  10.180 -15.597  1.00  0.00     0.218 HD
ENDBRANCH   8  24
TORSDOF 5
ENDMDL
MODEL 6
REMARK VINA RESULT:      -4.2      2.932      4.902
REMARK  5 active torsions:
REMARK  status: ('A' for Active; 'I' for Inactive)
REMARK    1  A    between atoms: C4_4  and  C5_5 
REMARK    2  A    between atoms: C8_8  and  O9_9 
REMARK    3  A    between atoms: C10_11  and  O11_12 
REMARK    4  A    between atoms: C16_18  and  O17_19 
REMARK    5  A    between atoms: C19_22  and  O20_23 
ROOT
HETATM    1  O1          0      49.377  11.788 -18.316  1.00  0.00    -0.286 OA
HETATM    2  C2          0      50.508  11.828 -17.759  1.00  0.00     0.201 C 
HETATM    3  C3          0      50.692  12.296 -16.469  1.00  0.00     0.067 C 
HETATM    4  C4          0      51.961  12.425 -15.915  1.00  0.00     0.103 C 
HETATM    5  O13         0      53.009  12.071 -16.639  1.00  0.00    -0.307 OA
HETATM    6  C14         0      52.892  11.655 -17.881  1.00  0.00     0.107 C 
HETATM    7  C15         0      53.966  11.667 -18.760  1.00  0.00     0.049 C 
HETATM    8  C16         0      53.784  11.473 -20.124  1.00  0.00     0.093 C 
HETATM    9  C18         0      52.638  10.766 -20.469  1.00  0.00     0.048 C 
HETATM   10  C19         0      51.563  10.695 -19.594  1.00  0.00     0.096 C 
HETATM   11  C21         0      51.638  11.312 -18.375  1.00  0.00     0.084 C 
ENDROOT
BRANCH  10  12
HETATM   12  O20         0      50.301  10.382 -20.090  1.00  0.00    -0.359 OA
HETATM   13  H20         0      49.850   9.633 -19.720  1.00  0.00     0.218 HD
ENDBRANCH  10  12
BRANCH   4  14
HETATM   14  C5          0      52.136  13.435 -14.870  1.00  0.00     0.025 C 
HETATM   15  C6          0      53.382  13.815 -14.393  1.00  0.00     0.004 C 
HETATM   16  C7          0      53.575  15.161 -14.095  1.00  0.00     0.026 C 
HETATM   17  C8          0      52.529  16.075 -14.141  1.00  0.00     0.112 C 
HETATM   18  C10         0      51.265  15.518 -14.000  1.00  0.00     0.112 C 
HETATM   19  C12         0      51.080  14.196 -14.385  1.00  0.00     0.028 C 
BRANCH  17  20
HETATM   20  O9          0      52.752  17.390 -14.511  1.00  0.00    -0.357 OA
HETATM   21  H9          0      52.077  17.963 -14.855  1.00  0.00     0.218 HD
ENDBRANCH  17  20
BRANCH  18  22
HETATM   22  O11         0      50.203  16.399 -13.849  1.00  0.00    -0.357 OA
HETATM   23  H11         0      50.399  17.248 -13.471  1.00  0.00     0.218 HD
ENDBRANCH  18  22
ENDBRANCH   4  14
BRANCH   8  24
HETATM   24  O17         0      54.504  12.213 -21.068  1.00  0.00    -0.359 OA
HETATM   25  H17         0      54.785  11.833 -21.891  1.00  0.00     0.218 HD
ENDBRANCH   8  24
TORSDOF 5
ENDMDL
MODEL 7
REMARK VINA RESULT:      -4.2      1.800      6.795
REMARK  5 active torsions:
REMARK  status: ('A' for Active; 'I' for Inactive)
REMARK    1  A    between atoms: C4_4  and  C5_5 
REMARK    2  A    between atoms: C8_8  and  O9_9 
REMARK    3  A    between atoms: C10_11  and  O11_12 
REMARK    4  A    between atoms: C16_18  and  O17_19 
REMARK    5  A    between atoms: C19_22  and  O20_23 
ROOT
HETATM    1  O1          0      49.786  15.948 -13.344  1.00  0.00    -0.286 OA
HETATM    2  C2          0      50.724  15.319 -13.907  1.00  0.00     0.201 C 
HETATM    3  C3          0      52.043  15.735 -13.856  1.00  0.00     0.067 C 
HETATM    4  C4          0      53.041  15.082 -14.570  1.00  0.00     0.103 C 
HETATM    5  O13         0      52.716  14.027 -15.296  1.00  0.00    -0.307 OA
HETATM    6  C14         0      51.473  13.612 -15.408  1.00  0.00     0.107 C 
HETATM    7  C15         0      51.068  12.788 -16.449  1.00  0.00     0.049 C 
HETATM    8  C16         0      49.722  12.562 -16.709  1.00  0.00     0.093 C 
HETATM    9  C18         0      48.876  12.737 -15.620  1.00  0.00     0.048 C 
HETATM   10  C19         0      49.268  13.518 -14.541  1.00  0.00     0.096 C 
HETATM   11  C21         0      50.504  14.106 -14.541  1.00  0.00     0.084 C 
ENDROOT
BRANCH  10  12
HETATM   12  O20         0      48.298  14.039 -13.690  1.00  0.00    -0.359 OA
HETATM   13  H20         0      47.723  13.429 -13.244  1.00  0.00     0.218 HD
ENDBRANCH  10  12
BRANCH   4  14
HETATM   14  C5          0      54.212  15.870 -14.959  1.00  0.00     0.025 C 
HETATM   15  C6          0      54.755  16.859 -14.151  1.00  0.00     0.004 C 
HETATM   16  C7          0      56.141  16.977 -14.119  1.00  0.00     0.026 C 
HETATM   17  C8          0      56.956  16.229 -14.962  1.00  0.00     0.112 C 
HETATM   18  C10         0      56.334  15.776 -16.118  1.00  0.00     0.112 C 
HETATM   19  C12         0      54.957  15.585 -16.096  1.00  0.00     0.028 C 
BRANCH  17  20
HETATM   20  O9          0      58.209  15.813 -14.550  1.00  0.00    -0.357 OA
HETATM   21  H9          0      58.973  16.378 -14.530  1.00  0.00     0.218 HD
ENDBRANCH  17  20
BRANCH  18  22
HETATM   22  O11         0      57.145  15.190 -17.079  1.00  0.00    -0.357 OA
HETATM   23  H11         0      57.020  15.472 -17.978  1.00  0.00     0.218 HD
ENDBRANCH  18  22
ENDBRANCH   4  14
BRANCH   8  24
HETATM   24  O17         0      49.233  12.501 -18.018  1.00  0.00    -0.359 OA
HETATM   25  H17         0      48.742  11.751 -18.333  1.00  0.00     0.218 HD
ENDBRANCH   8  24
TORSDOF 5
ENDMDL
MODEL 8
REMARK VINA RESULT:      -4.2      2.596      4.688
REMARK  5 active torsions:
REMARK  status: ('A' for Active; 'I' for Inactive)
REMARK    1  A    between atoms: C4_4  and  C5_5 
REMARK    2  A    between atoms: C8_8  and  O9_9 
REMARK    3  A    between atoms: C10_11  and  O11_12 
REMARK    4  A    between atoms: C16_18  and  O17_19 
REMARK    5  A    between atoms: C19_22  and  O20_23 
ROOT
HETATM    1  O1          0      56.970  16.912 -15.958  1.00  0.00    -0.286 OA
HETATM    2  C2          0      56.021  16.947 -15.128  1.00  0.00     0.201 C 
HETATM    3  C3          0      55.247  15.840 -14.826  1.00  0.00     0.067 C 
HETATM    4  C4          0      54.143  15.930 -13.986  1.00  0.00     0.103 C 
HETATM    5  O13         0      53.846  17.101 -13.451  1.00  0.00    -0.307 OA
HETATM    6  C14         0      54.525  18.191 -13.734  1.00  0.00     0.107 C 
HETATM    7  C15         0      54.001  19.456 -13.513  1.00  0.00     0.049 C 
HETATM    8  C16         0      54.605  20.590 -14.042  1.00  0.00     0.093 C 
HETATM    9  C18         0      55.963  20.460 -14.311  1.00  0.00     0.048 C 
HETATM   10  C19         0      56.529  19.206 -14.491  1.00  0.00     0.096 C 
HETATM   11  C21         0      55.748  18.087 -14.387  1.00  0.00     0.084 C 
ENDROOT
BRANCH  10  12
HETATM   12  O20         0      57.738  19.096 -15.172  1.00  0.00    -0.359 OA
HETATM   13  H20         0      58.521  18.928 -14.663  1.00  0.00     0.218 HD
ENDBRANCH  10  12
BRANCH   4  14
HETATM   14  C5          0      53.071  14.952 -14.181  1.00  0.00     0.025 C 
HETATM   15  C6          0      51.727  15.295 -14.159  1.00  0.00     0.004 C 
HETATM   16  C7          0      50.884  14.657 -15.064  1.00  0.00     0.026 C 
HETATM   17  C8          0      51.333  13.618 -15.871  1.00  0.00     0.112 C 
HETATM   18  C10         0      52.449  12.949 -15.388  1.00  0.00     0.112 C 
HETATM   19  C12         0      53.321  13.637 -14.552  1.00  0.00     0.028 C 
BRANCH  17  20
HETATM   20  O9          0      50.818  13.435 -17.142  1.00  0.00    -0.357 OA
HETATM   21  H9          0      50.517  12.597 -17.474  1.00  0.00     0.218 HD
ENDBRANCH  17  20
BRANCH  18  22
HETATM   22  O11         0      52.824  11.790 -16.053  1.00  0.00    -0.357 OA
HETATM   23  H11         0      53.632  11.823 -16.553  1.00  0.00     0.218 HD
ENDBRANCH  18  22
ENDBRANCH   4  14
BRANCH   8  24
HETATM   24  O17         0      53.848  21.641 -14.570  1.00  0.00    -0.359 OA
HETATM   25  H17         0      53.125  21.485 -15.166  1.00  0.00     0.218 HD
ENDBRANCH   8  24
TORSDOF 5
ENDMDL
MODEL 9
REMARK VINA RESULT:      -4.1      3.846      6.300
REMARK  5 active torsions:
REMARK  status: ('A' for Active; 'I' for Inactive)
REMARK    1  A    between atoms: C4_4  and  C5_5 
REMARK    2  A    between atoms: C8_8  and  O9_9 
REMARK    3  A    between atoms: C10_11  and  O11_12 
REMARK    4  A    between atoms: C16_18  and  O17_19 
REMARK    5  A    between atoms: C19_22  and  O20_23 
ROOT
HETATM    1  O1          0      50.324  18.730 -15.610  1.00  0.00    -0.286 OA
HETATM    2  C2          0      51.516  18.544 -15.239  1.00  0.00     0.201 C 
HETATM    3  C3          0      52.214  17.380 -15.510  1.00  0.00     0.067 C 
HETATM    4  C4          0      53.489  17.160 -15.001  1.00  0.00     0.103 C 
HETATM    5  O13         0      54.048  18.099 -14.259  1.00  0.00    -0.307 OA
HETATM    6  C14         0      53.414  19.207 -13.941  1.00  0.00     0.107 C 
HETATM    7  C15         0      53.811  19.994 -12.869  1.00  0.00     0.049 C 
HETATM    8  C16         0      53.001  21.012 -12.382  1.00  0.00     0.093 C 
HETATM    9  C18         0      52.094  21.530 -13.300  1.00  0.00     0.048 C 
HETATM   10  C19         0      51.711  20.789 -14.409  1.00  0.00     0.096 C 
HETATM   11  C21         0      52.242  19.544 -14.610  1.00  0.00     0.084 C 
ENDROOT
BRANCH  10  12
HETATM   12  O20         0      50.522  21.104 -15.060  1.00  0.00    -0.359 OA
HETATM   13  H20         0      50.577  21.453 -15.941  1.00  0.00     0.218 HD
ENDBRANCH  10  12
BRANCH   4  14
HETATM   14  C5          0      53.900  15.768 -14.804  1.00  0.00     0.025 C 
HETATM   15  C6          0      53.288  14.926 -13.886  1.00  0.00     0.004 C 
HETATM   16  C7          0      53.108  13.596 -14.253  1.00  0.00     0.026 C 
HETATM   17  C8          0      53.637  13.087 -15.434  1.00  0.00     0.112 C 
HETATM   18  C10         0      54.721  13.794 -15.936  1.00  0.00     0.112 C 
HETATM   19  C12         0      54.831  15.144 -15.623  1.00  0.00     0.028 C 
BRANCH  17  20
HETATM   20  O9          0      52.980  12.089 -16.132  1.00  0.00    -0.357 OA
HETATM   21  H9          0      53.376  11.256 -16.361  1.00  0.00     0.218 HD
ENDBRANCH  17  20
BRANCH  18  22
HETATM   22  O11         0      55.403  13.225 -17.002  1.00  0.00    -0.357 OA
HETATM   23  H11         0      55.846  12.400 -16.838  1.00  0.00     0.218 HD
ENDBRANCH  18  22
ENDBRANCH   4  14
BRANCH   8  24
HETATM   24  O17         0      52.876  21.251 -11.009  1.00  0.00    -0.359 OA
HETATM   25  H17         0      52.159  20.890 -10.503  1.00  0.00     0.218 HD
ENDBRANCH   8  24
TORSDOF 5
ENDMDL
