MODEL 1
REMARK VINA RESULT:      -3.7      0.000      0.000
REMARK  5 active torsions:
REMARK  status: ('A' for Active; 'I' for Inactive)
REMARK    1  A    between atoms: C4_4  and  C5_5 
REMARK    2  A    between atoms: C8_8  and  O9_9 
REMARK    3  A    between atoms: C10_11  and  O11_12 
REMARK    4  A    between atoms: C16_18  and  O17_19 
REMARK    5  A    between atoms: C19_22  and  O20_23 
ROOT
HETATM    1  O1          0       9.359  72.968  22.357  1.00  0.00    -0.286 OA
HETATM    2  C2          0       8.425  73.584  21.774  1.00  0.00     0.201 C 
HETATM    3  C3          0       8.372  74.966  21.697  1.00  0.00     0.067 C 
HETATM    4  C4          0       7.280  75.623  21.140  1.00  0.00     0.103 C 
HETATM    5  O13         0       6.284  74.901  20.657  1.00  0.00    -0.307 OA
HETATM    6  C14         0       6.268  73.589  20.738  1.00  0.00     0.107 C 
HETATM    7  C15         0       5.092  72.863  20.610  1.00  0.00     0.049 C 
HETATM    8  C16         0       5.035  71.516  20.947  1.00  0.00     0.093 C 
HETATM    9  C18         0       6.251  70.845  20.891  1.00  0.00     0.048 C 
HETATM   10  C19         0       7.447  71.545  20.969  1.00  0.00     0.096 C 
HETATM   11  C21         0       7.430  72.908  21.085  1.00  0.00     0.084 C 
ENDROOT
BRANCH  10  12
HETATM   12  O20         0       8.605  70.873  21.347  1.00  0.00    -0.359 OA
HETATM   13  H20         0       8.643  70.508  22.223  1.00  0.00     0.218 HD
ENDBRANCH  10  12
BRANCH   4  14
HETATM   14  C5          0       7.003  76.980  21.613  1.00  0.00     0.025 C 
HETATM   15  C6          0       7.992  77.941  21.763  1.00  0.00     0.004 C 
HETATM   16  C7          0       7.675  79.251  21.418  1.00  0.00     0.026 C 
HETATM   17  C8          0       6.382  79.620  21.065  1.00  0.00     0.112 C 
HETATM   18  C10         0       5.387  78.780  21.547  1.00  0.00     0.112 C 
HETATM   19  C12         0       5.711  77.453  21.802  1.00  0.00     0.028 C 
BRANCH  17  20
HETATM   20  O9          0       6.159  80.620  20.135  1.00  0.00    -0.357 OA
HETATM   21  H9          0       6.853  81.071  19.668  1.00  0.00     0.218 HD
ENDBRANCH  17  20
BRANCH  18  22
HETATM   22  O11         0       4.075  79.202  21.386  1.00  0.00    -0.357 OA
HETATM   23  H11         0       3.631  79.529  22.159  1.00  0.00     0.218 HD
ENDBRANCH  18  22
ENDBRANCH   4  14
BRANCH   8  24
HETATM   24  O17         0       3.927  70.976  21.608  1.00  0.00    -0.359 OA
HETATM   25  H17         0       3.238  70.521  21.138  1.00  0.00     0.218 HD
ENDBRANCH   8  24
TORSDOF 5
ENDMDL
MODEL 2
REMARK VINA RESULT:      -3.3      2.195      4.235
REMARK  5 active torsions:
REMARK  status: ('A' for Active; 'I' for Inactive)
REMARK    1  A    between atoms: C4_4  and  C5_5 
REMARK    2  A    between atoms: C8_8  and  O9_9 
REMARK    3  A    between atoms: C10_11  and  O11_12 
REMARK    4  A    between atoms: C16_18  and  O17_19 
REMARK    5  A    between atoms: C19_22  and  O20_23 
ROOT
HETATM    1  O1          0       8.481  72.224  21.613  1.00  0.00    -0.286 OA
HETATM    2  C2          0       8.544  73.460  21.858  1.00  0.00     0.201 C 
HETATM    3  C3          0       7.419  74.249  22.031  1.00  0.00     0.067 C 
HETATM    4  C4          0       7.514  75.626  22.197  1.00  0.00     0.103 C 
HETATM    5  O13         0       8.712  76.183  22.210  1.00  0.00    -0.307 OA
HETATM    6  C14         0       9.810  75.485  22.013  1.00  0.00     0.107 C 
HETATM    7  C15         0      11.000  76.087  21.631  1.00  0.00     0.049 C 
HETATM    8  C16         0      12.077  75.334  21.180  1.00  0.00     0.093 C 
HETATM    9  C18         0      12.100  74.018  21.625  1.00  0.00     0.048 C 
HETATM   10  C19         0      10.935  73.399  22.060  1.00  0.00     0.096 C 
HETATM   11  C21         0       9.758  74.097  22.065  1.00  0.00     0.084 C 
ENDROOT
BRANCH  10  12
HETATM   12  O20         0      10.871  72.010  22.082  1.00  0.00    -0.359 OA
HETATM   13  H20         0      10.216  71.586  21.541  1.00  0.00     0.218 HD
ENDBRANCH  10  12
BRANCH   4  14
HETATM   14  C5          0       6.367  76.432  21.776  1.00  0.00     0.025 C 
HETATM   15  C6          0       5.080  76.209  22.243  1.00  0.00     0.004 C 
HETATM   16  C7          0       4.284  77.322  22.496  1.00  0.00     0.026 C 
HETATM   17  C8          0       4.703  78.608  22.170  1.00  0.00     0.112 C 
HETATM   18  C10         0       5.666  78.668  21.172  1.00  0.00     0.112 C 
HETATM   19  C12         0       6.505  77.573  20.997  1.00  0.00     0.028 C 
BRANCH  17  20
HETATM   20  O9          0       4.328  79.693  22.942  1.00  0.00    -0.357 OA
HETATM   21  H9          0       4.923  80.386  23.202  1.00  0.00     0.218 HD
ENDBRANCH  17  20
BRANCH  18  22
HETATM   22  O11         0       5.981  79.925  20.677  1.00  0.00    -0.357 OA
HETATM   23  H11         0       5.376  80.630  20.877  1.00  0.00     0.218 HD
ENDBRANCH  18  22
ENDBRANCH   4  14
BRANCH   8  24
HETATM   24  O17         0      12.869  75.762  20.109  1.00  0.00    -0.359 OA
HETATM   25  H17         0      13.810  75.859  20.192  1.00  0.00     0.218 HD
ENDBRANCH   8  24
TORSDOF 5
ENDMDL
MODEL 3
REMARK VINA RESULT:      -3.3      3.534      5.473
REMARK  5 active torsions:
REMARK  status: ('A' for Active; 'I' for Inactive)
REMARK    1  A    between atoms: C4_4  and  C5_5 
REMARK    2  A    between atoms: C8_8  and  O9_9 
REMARK    3  A    between atoms: C10_11  and  O11_12 
REMARK    4  A    between atoms: C16_18  and  O17_19 
REMARK    5  A    between atoms: C19_22  and  O20_23 
ROOT
HETATM    1  O1          0       6.505  77.297  20.550  1.00  0.00    -0.286 OA
HETATM    2  C2          0       7.573  76.792  20.993  1.00  0.00     0.201 C 
HETATM    3  C3          0       8.773  77.481  21.022  1.00  0.00     0.067 C 
HETATM    4  C4          0       9.956  76.868  21.419  1.00  0.00     0.103 C 
HETATM    5  O13         0       9.919  75.602  21.795  1.00  0.00    -0.307 OA
HETATM    6  C14         0       8.813  74.891  21.751  1.00  0.00     0.107 C 
HETATM    7  C15         0       8.835  73.504  21.752  1.00  0.00     0.049 C 
HETATM    8  C16         0       7.698  72.764  21.450  1.00  0.00     0.093 C 
HETATM    9  C18         0       6.494  73.419  21.678  1.00  0.00     0.048 C 
HETATM   10  C19         0       6.444  74.805  21.729  1.00  0.00     0.096 C 
HETATM   11  C21         0       7.592  75.533  21.572  1.00  0.00     0.084 C 
ENDROOT
BRANCH  10  12
HETATM   12  O20         0       5.229  75.451  21.519  1.00  0.00    -0.359 OA
HETATM   13  H20         0       4.813  75.350  20.672  1.00  0.00     0.218 HD
ENDBRANCH  10  12
BRANCH   4  14
HETATM   14  C5          0      11.204  77.406  20.876  1.00  0.00     0.025 C 
HETATM   15  C6          0      11.652  78.690  21.149  1.00  0.00     0.004 C 
HETATM   16  C7          0      13.019  78.870  21.334  1.00  0.00     0.026 C 
HETATM   17  C8          0      13.926  77.838  21.122  1.00  0.00     0.112 C 
HETATM   18  C10         0      13.477  76.837  20.270  1.00  0.00     0.112 C 
HETATM   19  C12         0      12.108  76.621  20.170  1.00  0.00     0.028 C 
BRANCH  17  20
HETATM   20  O9          0      15.081  77.742  21.878  1.00  0.00    -0.357 OA
HETATM   21  H9          0      15.491  78.481  22.311  1.00  0.00     0.218 HD
ENDBRANCH  17  20
BRANCH  18  22
HETATM   22  O11         0      14.405  75.884  19.875  1.00  0.00    -0.357 OA
HETATM   23  H11         0      15.294  75.990  20.196  1.00  0.00     0.218 HD
ENDBRANCH  18  22
ENDBRANCH   4  14
BRANCH   8  24
HETATM   24  O17         0       7.769  71.603  20.672  1.00  0.00    -0.359 OA
HETATM   25  H17         0       7.621  71.622  19.734  1.00  0.00     0.218 HD
ENDBRANCH   8  24
TORSDOF 5
ENDMDL
MODEL 4
REMARK VINA RESULT:      -3.2      0.884      1.095
REMARK  5 active torsions:
REMARK  status: ('A' for Active; 'I' for Inactive)
REMARK    1  A    between atoms: C4_4  and  C5_5 
REMARK    2  A    between atoms: C8_8  and  O9_9 
REMARK    3  A    between atoms: C10_11  and  O11_12 
REMARK    4  A    between atoms: C16_18  and  O17_19 
REMARK    5  A    between atoms: C19_22  and  O20_23 
ROOT
HETATM    1  O1          0       9.285  72.838  22.150  1.00  0.00    -0.286 OA
HETATM    2  C2          0       8.290  73.463  21.691  1.00  0.00     0.201 C 
HETATM    3  C3          0       8.187  74.843  21.728  1.00  0.00     0.067 C 
HETATM    4  C4          0       7.036  75.499  21.310  1.00  0.00     0.103 C 
HETATM    5  O13         0       6.027  74.781  20.849  1.00  0.00    -0.307 OA
HETATM    6  C14         0       6.058  73.466  20.827  1.00  0.00     0.107 C 
HETATM    7  C15         0       4.899  72.710  20.733  1.00  0.00     0.049 C 
HETATM    8  C16         0       4.910  71.340  20.966  1.00  0.00     0.093 C 
HETATM    9  C18         0       6.138  70.720  20.763  1.00  0.00     0.048 C 
HETATM   10  C19         0       7.314  71.456  20.804  1.00  0.00     0.096 C 
HETATM   11  C21         0       7.264  72.805  21.029  1.00  0.00     0.084 C 
ENDROOT
BRANCH  10  12
HETATM   12  O20         0       8.519  70.800  21.038  1.00  0.00    -0.359 OA
HETATM   13  H20         0       9.250  70.994  20.463  1.00  0.00     0.218 HD
ENDBRANCH  10  12
BRANCH   4  14
HETATM   14  C5          0       6.755  76.806  21.908  1.00  0.00     0.025 C 
HETATM   15  C6          0       7.290  77.207  23.123  1.00  0.00     0.004 C 
HETATM   16  C7          0       7.678  78.537  23.249  1.00  0.00     0.026 C 
HETATM   17  C8          0       7.420  79.470  22.250  1.00  0.00     0.112 C 
HETATM   18  C10         0       6.366  79.141  21.408  1.00  0.00     0.112 C 
HETATM   19  C12         0       6.053  77.798  21.235  1.00  0.00     0.028 C 
BRANCH  17  20
HETATM   20  O9          0       8.294  80.516  22.014  1.00  0.00    -0.357 OA
HETATM   21  H9          0       8.166  81.168  21.334  1.00  0.00     0.218 HD
ENDBRANCH  17  20
BRANCH  18  22
HETATM   22  O11         0       5.944  80.118  20.517  1.00  0.00    -0.357 OA
HETATM   23  H11         0       6.614  80.533  19.986  1.00  0.00     0.218 HD
ENDBRANCH  18  22
ENDBRANCH   4  14
BRANCH   8  24
HETATM   24  O17         0       3.875  70.710  21.666  1.00  0.00    -0.359 OA
HETATM   25  H17         0       3.473  71.109  22.428  1.00  0.00     0.218 HD
ENDBRANCH   8  24
TORSDOF 5
ENDMDL
MODEL 5
REMARK VINA RESULT:      -3.2      2.299      6.987
REMARK  5 active torsions:
REMARK  status: ('A' for Active; 'I' for Inactive)
REMARK    1  A    between atoms: C4_4  and  C5_5 
REMARK    2  A    between atoms: C8_8  and  O9_9 
REMARK    3  A    between atoms: C10_11  and  O11_12 
REMARK    4  A    between atoms: C16_18  and  O17_19 
REMARK    5  A    between atoms: C19_22  and  O20_23 
ROOT
HETATM    1  O1          0       6.258  80.198  20.704  1.00  0.00    -0.286 OA
HETATM    2  C2          0       6.911  79.119  20.738  1.00  0.00     0.201 C 
HETATM    3  C3          0       6.303  77.876  20.786  1.00  0.00     0.067 C 
HETATM    4  C4          0       7.044  76.708  20.927  1.00  0.00     0.103 C 
HETATM    5  O13         0       8.361  76.796  20.995  1.00  0.00    -0.307 OA
HETATM    6  C14         0       8.985  77.953  20.992  1.00  0.00     0.107 C 
HETATM    7  C15         0      10.286  78.083  21.456  1.00  0.00     0.049 C 
HETATM    8  C16         0      10.848  79.332  21.688  1.00  0.00     0.093 C 
HETATM    9  C18         0      10.285  80.374  20.961  1.00  0.00     0.048 C 
HETATM   10  C19         0       9.003  80.259  20.442  1.00  0.00     0.096 C 
HETATM   11  C21         0       8.293  79.105  20.634  1.00  0.00     0.084 C 
ENDROOT
BRANCH  10  12
HETATM   12  O20         0       8.296  81.412  20.113  1.00  0.00    -0.359 OA
HETATM   13  H20         0       7.743  81.800  20.780  1.00  0.00     0.218 HD
ENDBRANCH  10  12
BRANCH   4  14
HETATM   14  C5          0       6.380  75.565  21.557  1.00  0.00     0.025 C 
HETATM   15  C6          0       5.247  75.696  22.347  1.00  0.00     0.004 C 
HETATM   16  C7          0       4.269  74.713  22.238  1.00  0.00     0.026 C 
HETATM   17  C8          0       4.466  73.569  21.472  1.00  0.00     0.112 C 
HETATM   18  C10         0       5.798  73.236  21.260  1.00  0.00     0.112 C 
HETATM   19  C12         0       6.745  74.252  21.291  1.00  0.00     0.028 C 
BRANCH  17  20
HETATM   20  O9          0       3.409  72.964  20.816  1.00  0.00    -0.357 OA
HETATM   21  H9          0       3.295  72.978  19.873  1.00  0.00     0.218 HD
ENDBRANCH  17  20
BRANCH  18  22
HETATM   22  O11         0       6.051  72.007  20.667  1.00  0.00    -0.357 OA
HETATM   23  H11         0       5.338  71.380  20.656  1.00  0.00     0.218 HD
ENDBRANCH  18  22
ENDBRANCH   4  14
BRANCH   8  24
HETATM   24  O17         0      11.667  79.569  22.799  1.00  0.00    -0.359 OA
HETATM   25  H17         0      11.422  80.187  23.476  1.00  0.00     0.218 HD
ENDBRANCH   8  24
TORSDOF 5
ENDMDL
MODEL 6
REMARK VINA RESULT:      -3.1      1.565      6.420
REMARK  5 active torsions:
REMARK  status: ('A' for Active; 'I' for Inactive)
REMARK    1  A    between atoms: C4_4  and  C5_5 
REMARK    2  A    between atoms: C8_8  and  O9_9 
REMARK    3  A    between atoms: C10_11  and  O11_12 
REMARK    4  A    between atoms: C16_18  and  O17_19 
REMARK    5  A    between atoms: C19_22  and  O20_23 
ROOT
HETATM    1  O1          0       9.597  76.190  21.501  1.00  0.00    -0.286 OA
HETATM    2  C2          0       8.345  76.119  21.637  1.00  0.00     0.201 C 
HETATM    3  C3          0       7.650  74.924  21.565  1.00  0.00     0.067 C 
HETATM    4  C4          0       6.261  74.885  21.616  1.00  0.00     0.103 C 
HETATM    5  O13         0       5.599  76.020  21.757  1.00  0.00    -0.307 OA
HETATM    6  C14         0       6.208  77.185  21.792  1.00  0.00     0.107 C 
HETATM    7  C15         0       5.534  78.370  21.538  1.00  0.00     0.049 C 
HETATM    8  C16         0       6.220  79.560  21.325  1.00  0.00     0.093 C 
HETATM    9  C18         0       7.489  79.614  21.889  1.00  0.00     0.048 C 
HETATM   10  C19         0       8.174  78.446  22.200  1.00  0.00     0.096 C 
HETATM   11  C21         0       7.587  77.233  21.964  1.00  0.00     0.084 C 
ENDROOT
BRANCH  10  12
HETATM   12  O20         0       9.557  78.486  22.341  1.00  0.00    -0.359 OA
HETATM   13  H20         0      10.033  79.164  21.876  1.00  0.00     0.218 HD
ENDBRANCH  10  12
BRANCH   4  14
HETATM   14  C5          0       5.598  73.759  20.955  1.00  0.00     0.025 C 
HETATM   15  C6          0       6.275  72.854  20.151  1.00  0.00     0.004 C 
HETATM   16  C7          0       5.900  71.517  20.228  1.00  0.00     0.026 C 
HETATM   17  C8          0       4.800  71.110  20.976  1.00  0.00     0.112 C 
HETATM   18  C10         0       3.854  72.100  21.202  1.00  0.00     0.112 C 
HETATM   19  C12         0       4.273  73.426  21.204  1.00  0.00     0.028 C 
BRANCH  17  20
HETATM   20  O9          0       4.788  69.878  21.605  1.00  0.00    -0.357 OA
HETATM   21  H9          0       4.078  69.250  21.524  1.00  0.00     0.218 HD
ENDBRANCH  17  20
BRANCH  18  22
HETATM   22  O11         0       2.655  71.704  21.777  1.00  0.00    -0.357 OA
HETATM   23  H11         0       2.698  71.336  22.652  1.00  0.00     0.218 HD
ENDBRANCH  18  22
ENDBRANCH   4  14
BRANCH   8  24
HETATM   24  O17         0       5.809  80.475  20.350  1.00  0.00    -0.359 OA
HETATM   25  H17         0       6.114  80.419  19.452  1.00  0.00     0.218 HD
ENDBRANCH   8  24
TORSDOF 5
ENDMDL
MODEL 7
REMARK VINA RESULT:      -3.1      2.126      7.583
REMARK  5 active torsions:
REMARK  status: ('A' for Active; 'I' for Inactive)
REMARK    1  A    between atoms: C4_4  and  C5_5 
REMARK    2  A    between atoms: C8_8  and  O9_9 
REMARK    3  A    between atoms: C10_11  and  O11_12 
REMARK    4  A    between atoms: C16_18  and  O17_19 
REMARK    5  A    between atoms: C19_22  and  O20_23 
ROOT
HETATM    1  O1          0       5.821  79.734  20.939  1.00  0.00    -0.286 OA
HETATM    2  C2          0       6.852  79.013  20.838  1.00  0.00     0.201 C 
HETATM    3  C3          0       6.817  77.634  20.946  1.00  0.00     0.067 C 
HETATM    4  C4          0       7.980  76.872  20.934  1.00  0.00     0.103 C 
HETATM    5  O13         0       9.140  77.488  20.796  1.00  0.00    -0.307 OA
HETATM    6  C14         0       9.233  78.798  20.727  1.00  0.00     0.107 C 
HETATM    7  C15         0      10.424  79.462  20.982  1.00  0.00     0.049 C 
HETATM    8  C16         0      10.459  80.840  21.159  1.00  0.00     0.093 C 
HETATM    9  C18         0       9.416  81.535  20.560  1.00  0.00     0.048 C 
HETATM   10  C19         0       8.226  80.891  20.248  1.00  0.00     0.096 C 
HETATM   11  C21         0       8.086  79.557  20.516  1.00  0.00     0.084 C 
ENDROOT
BRANCH  10  12
HETATM   12  O20         0       7.071  81.645  20.068  1.00  0.00    -0.359 OA
HETATM   13  H20         0       6.519  81.801  20.825  1.00  0.00     0.218 HD
ENDBRANCH  10  12
BRANCH   4  14
HETATM   14  C5          0       7.944  75.584  21.629  1.00  0.00     0.025 C 
HETATM   15  C6          0       6.766  74.891  21.869  1.00  0.00     0.004 C 
HETATM   16  C7          0       6.798  73.505  21.753  1.00  0.00     0.026 C 
HETATM   17  C8          0       7.988  72.819  21.538  1.00  0.00     0.112 C 
HETATM   18  C10         0       9.131  73.498  21.940  1.00  0.00     0.112 C 
HETATM   19  C12         0       9.098  74.888  21.966  1.00  0.00     0.028 C 
BRANCH  17  20
HETATM   20  O9          0       8.010  71.655  20.791  1.00  0.00    -0.357 OA
HETATM   21  H9          0       7.594  70.845  21.063  1.00  0.00     0.218 HD
ENDBRANCH  17  20
BRANCH  18  22
HETATM   22  O11         0      10.323  72.788  21.924  1.00  0.00    -0.357 OA
HETATM   23  H11         0      10.630  72.445  22.755  1.00  0.00     0.218 HD
ENDBRANCH  18  22
ENDBRANCH   4  14
BRANCH   8  24
HETATM   24  O17         0      11.274  81.430  22.132  1.00  0.00    -0.359 OA
HETATM   25  H17         0      10.908  81.922  22.858  1.00  0.00     0.218 HD
ENDBRANCH   8  24
TORSDOF 5
ENDMDL
MODEL 8
REMARK VINA RESULT:      -3.1      1.746      6.457
REMARK  5 active torsions:
REMARK  status: ('A' for Active; 'I' for Inactive)
REMARK    1  A    between atoms: C4_4  and  C5_5 
REMARK    2  A    between atoms: C8_8  and  O9_9 
REMARK    3  A    between atoms: C10_11  and  O11_12 
REMARK    4  A    between atoms: C16_18  and  O17_19 
REMARK    5  A    between atoms: C19_22  and  O20_23 
ROOT
HETATM    1  O1          0       6.606  78.554  20.193  1.00  0.00    -0.286 OA
HETATM    2  C2          0       6.296  77.580  20.932  1.00  0.00     0.201 C 
HETATM    3  C3          0       6.999  76.388  20.937  1.00  0.00     0.067 C 
HETATM    4  C4          0       6.576  75.295  21.685  1.00  0.00     0.103 C 
HETATM    5  O13         0       5.485  75.414  22.421  1.00  0.00    -0.307 OA
HETATM    6  C14         0       4.760  76.511  22.424  1.00  0.00     0.107 C 
HETATM    7  C15         0       3.441  76.514  22.855  1.00  0.00     0.049 C 
HETATM    8  C16         0       2.607  77.601  22.620  1.00  0.00     0.093 C 
HETATM    9  C18         0       3.261  78.815  22.442  1.00  0.00     0.048 C 
HETATM   10  C19         0       4.594  78.848  22.056  1.00  0.00     0.096 C 
HETATM   11  C21         0       5.275  77.676  21.866  1.00  0.00     0.084 C 
ENDROOT
BRANCH  10  12
HETATM   12  O20         0       5.104  80.001  21.469  1.00  0.00    -0.359 OA
HETATM   13  H20         0       5.364  79.959  20.557  1.00  0.00     0.218 HD
ENDBRANCH  10  12
BRANCH   4  14
HETATM   14  C5          0       6.961  73.966  21.206  1.00  0.00     0.025 C 
HETATM   15  C6          0       8.132  73.335  21.601  1.00  0.00     0.004 C 
HETATM   16  C7          0       8.083  71.962  21.816  1.00  0.00     0.026 C 
HETATM   17  C8          0       6.946  71.217  21.520  1.00  0.00     0.112 C 
HETATM   18  C10         0       6.106  71.792  20.576  1.00  0.00     0.112 C 
HETATM   19  C12         0       6.114  73.176  20.441  1.00  0.00     0.028 C 
BRANCH  17  20
HETATM   20  O9          0       6.607  70.109  22.277  1.00  0.00    -0.357 OA
HETATM   21  H9          0       7.196  69.693  22.896  1.00  0.00     0.218 HD
ENDBRANCH  17  20
BRANCH  18  22
HETATM   22  O11         0       5.061  71.010  20.105  1.00  0.00    -0.357 OA
HETATM   23  H11         0       4.218  71.118  20.530  1.00  0.00     0.218 HD
ENDBRANCH  18  22
ENDBRANCH   4  14
BRANCH   8  24
HETATM   24  O17         0       1.267  77.428  22.258  1.00  0.00    -0.359 OA
HETATM   25  H17         0       0.774  78.115  21.827  1.00  0.00     0.218 HD
ENDBRANCH   8  24
TORSDOF 5
ENDMDL
MODEL 9
REMARK VINA RESULT:      -3.1      3.541      7.634
REMARK  5 active torsions:
REMARK  status: ('A' for Active; 'I' for Inactive)
REMARK    1  A    between atoms: C4_4  and  C5_5 
REMARK    2  A    between atoms: C8_8  and  O9_9 
REMARK    3  A    between atoms: C10_11  and  O11_12 
REMARK    4  A    between atoms: C16_18  and  O17_19 
REMARK    5  A    between atoms: C19_22  and  O20_23 
ROOT
HETATM    1  O1          0       6.351  77.012  21.848  1.00  0.00    -0.286 OA
HETATM    2  C2          0       7.507  77.307  21.438  1.00  0.00     0.201 C 
HETATM    3  C3          0       8.543  76.391  21.392  1.00  0.00     0.067 C 
HETATM    4  C4          0       9.833  76.767  21.033  1.00  0.00     0.103 C 
HETATM    5  O13         0      10.060  78.028  20.711  1.00  0.00    -0.307 OA
HETATM    6  C14         0       9.120  78.946  20.775  1.00  0.00     0.107 C 
HETATM    7  C15         0       9.422  80.299  20.833  1.00  0.00     0.049 C 
HETATM    8  C16         0       8.453  81.241  21.155  1.00  0.00     0.093 C 
HETATM    9  C18         0       7.145  80.854  20.887  1.00  0.00     0.048 C 
HETATM   10  C19         0       6.817  79.509  20.776  1.00  0.00     0.096 C 
HETATM   11  C21         0       7.792  78.559  20.914  1.00  0.00     0.084 C 
ENDROOT
BRANCH  10  12
HETATM   12  O20         0       5.493  79.116  20.946  1.00  0.00    -0.359 OA
HETATM   13  H20         0       5.311  78.187  21.019  1.00  0.00     0.218 HD
ENDBRANCH  10  12
BRANCH   4  14
HETATM   14  C5          0      10.937  75.966  21.566  1.00  0.00     0.025 C 
HETATM   15  C6          0      10.738  74.848  22.363  1.00  0.00     0.004 C 
HETATM   16  C7          0      11.586  73.761  22.171  1.00  0.00     0.026 C 
HETATM   17  C8          0      12.677  73.830  21.313  1.00  0.00     0.112 C 
HETATM   18  C10         0      13.148  75.115  21.075  1.00  0.00     0.112 C 
HETATM   19  C12         0      12.257  76.176  21.190  1.00  0.00     0.028 C 
BRANCH  17  20
HETATM   20  O9          0      13.096  72.716  20.608  1.00  0.00    -0.357 OA
HETATM   21  H9          0      13.373  71.904  21.018  1.00  0.00     0.218 HD
ENDBRANCH  17  20
BRANCH  18  22
HETATM   22  O11         0      14.344  75.227  20.381  1.00  0.00    -0.357 OA
HETATM   23  H11         0      14.915  75.948  20.623  1.00  0.00     0.218 HD
ENDBRANCH  18  22
ENDBRANCH   4  14
BRANCH   8  24
HETATM   24  O17         0       8.742  82.332  21.983  1.00  0.00    -0.359 OA
HETATM   25  H17         0       9.553  82.383  22.475  1.00  0.00     0.218 HD
ENDBRANCH   8  24
TORSDOF 5
ENDMDL
