MODEL 1
REMARK VINA RESULT:      -3.2      0.000      0.000
REMARK  5 active torsions:
REMARK  status: ('A' for Active; 'I' for Inactive)
REMARK    1  A    between atoms: C4_4  and  C5_5 
REMARK    2  A    between atoms: C8_8  and  O9_9 
REMARK    3  A    between atoms: C10_11  and  O11_12 
REMARK    4  A    between atoms: C16_18  and  O17_19 
REMARK    5  A    between atoms: C19_22  and  O20_23 
ROOT
HETATM    1  O1          0      26.984  40.164 -22.622  1.00  0.00    -0.286 OA
HETATM    2  C2          0      27.181  41.409 -22.682  1.00  0.00     0.201 C 
HETATM    3  C3          0      26.335  42.332 -22.092  1.00  0.00     0.067 C 
HETATM    4  C4          0      26.518  43.700 -22.260  1.00  0.00     0.103 C 
HETATM    5  O13         0      27.540  44.119 -22.985  1.00  0.00    -0.307 OA
HETATM    6  C14         0      28.352  43.285 -23.597  1.00  0.00     0.107 C 
HETATM    7  C15         0      29.155  43.689 -24.654  1.00  0.00     0.049 C 
HETATM    8  C16         0      29.812  42.764 -25.456  1.00  0.00     0.093 C 
HETATM    9  C18         0      30.058  41.536 -24.854  1.00  0.00     0.048 C 
HETATM   10  C19         0      29.304  41.120 -23.765  1.00  0.00     0.096 C 
HETATM   11  C21         0      28.322  41.934 -23.269  1.00  0.00     0.084 C 
ENDROOT
BRANCH  10  12
HETATM   12  O20         0      29.248  39.765 -23.454  1.00  0.00    -0.359 OA
HETATM   13  H20         0      30.015  39.366 -23.062  1.00  0.00     0.218 HD
ENDBRANCH  10  12
BRANCH   4  14
HETATM   14  C5          0      25.333  44.553 -22.153  1.00  0.00     0.025 C 
HETATM   15  C6          0      24.660  44.759 -20.958  1.00  0.00     0.004 C 
HETATM   16  C7          0      24.162  46.034 -20.710  1.00  0.00     0.026 C 
HETATM   17  C8          0      24.213  47.037 -21.672  1.00  0.00     0.112 C 
HETATM   18  C10         0      24.304  46.581 -22.980  1.00  0.00     0.112 C 
HETATM   19  C12         0      24.884  45.338 -23.207  1.00  0.00     0.028 C 
BRANCH  17  20
HETATM   20  O9          0      24.372  48.362 -21.307  1.00  0.00    -0.357 OA
HETATM   21  H9          0      24.869  48.644 -20.548  1.00  0.00     0.218 HD
ENDBRANCH  17  20
BRANCH  18  22
HETATM   22  O11         0      24.168  47.527 -23.986  1.00  0.00    -0.357 OA
HETATM   23  H11         0      23.303  47.899 -24.112  1.00  0.00     0.218 HD
ENDBRANCH  18  22
ENDBRANCH   4  14
BRANCH   8  24
HETATM   24  O17         0      29.907  42.937 -26.841  1.00  0.00    -0.359 OA
HETATM   25  H17         0      29.692  43.764 -27.257  1.00  0.00     0.218 HD
ENDBRANCH   8  24
TORSDOF 5
ENDMDL
MODEL 2
REMARK VINA RESULT:      -2.9      1.577      2.920
REMARK  5 active torsions:
REMARK  status: ('A' for Active; 'I' for Inactive)
REMARK    1  A    between atoms: C4_4  and  C5_5 
REMARK    2  A    between atoms: C8_8  and  O9_9 
REMARK    3  A    between atoms: C10_11  and  O11_12 
REMARK    4  A    between atoms: C16_18  and  O17_19 
REMARK    5  A    between atoms: C19_22  and  O20_23 
ROOT
HETATM    1  O1          0      28.753  44.227 -24.144  1.00  0.00    -0.286 OA
HETATM    2  C2          0      27.728  43.767 -23.572  1.00  0.00     0.201 C 
HETATM    3  C3          0      26.539  44.471 -23.480  1.00  0.00     0.067 C 
HETATM    4  C4          0      25.458  43.984 -22.756  1.00  0.00     0.103 C 
HETATM    5  O13         0      25.569  42.809 -22.161  1.00  0.00    -0.307 OA
HETATM    6  C14         0      26.687  42.117 -22.186  1.00  0.00     0.107 C 
HETATM    7  C15         0      26.946  41.113 -21.263  1.00  0.00     0.049 C 
HETATM    8  C16         0      28.215  40.564 -21.131  1.00  0.00     0.093 C 
HETATM    9  C18         0      29.019  40.664 -22.260  1.00  0.00     0.048 C 
HETATM   10  C19         0      28.760  41.627 -23.227  1.00  0.00     0.096 C 
HETATM   11  C21         0      27.695  42.473 -23.075  1.00  0.00     0.084 C 
ENDROOT
BRANCH  10  12
HETATM   12  O20         0      29.777  42.007 -24.097  1.00  0.00    -0.359 OA
HETATM   13  H20         0      30.248  42.809 -23.907  1.00  0.00     0.218 HD
ENDBRANCH  10  12
BRANCH   4  14
HETATM   14  C5          0      24.523  44.967 -22.205  1.00  0.00     0.025 C 
HETATM   15  C6          0      24.087  44.934 -20.888  1.00  0.00     0.004 C 
HETATM   16  C7          0      23.931  46.150 -20.230  1.00  0.00     0.026 C 
HETATM   17  C8          0      24.073  47.363 -20.896  1.00  0.00     0.112 C 
HETATM   18  C10         0      23.875  47.297 -22.269  1.00  0.00     0.112 C 
HETATM   19  C12         0      24.121  46.091 -22.914  1.00  0.00     0.028 C 
BRANCH  17  20
HETATM   20  O9          0      24.578  48.474 -20.245  1.00  0.00    -0.357 OA
HETATM   21  H9          0      24.198  48.841 -19.455  1.00  0.00     0.218 HD
ENDBRANCH  17  20
BRANCH  18  22
HETATM   22  O11         0      23.817  48.502 -22.954  1.00  0.00    -0.357 OA
HETATM   23  H11         0      23.036  48.667 -23.469  1.00  0.00     0.218 HD
ENDBRANCH  18  22
ENDBRANCH   4  14
BRANCH   8  24
HETATM   24  O17         0      28.748  40.251 -19.875  1.00  0.00    -0.359 OA
HETATM   25  H17         0      28.190  40.051 -19.133  1.00  0.00     0.218 HD
ENDBRANCH   8  24
TORSDOF 5
ENDMDL
MODEL 3
REMARK VINA RESULT:      -2.8      1.228      1.550
REMARK  5 active torsions:
REMARK  status: ('A' for Active; 'I' for Inactive)
REMARK    1  A    between atoms: C4_4  and  C5_5 
REMARK    2  A    between atoms: C8_8  and  O9_9 
REMARK    3  A    between atoms: C10_11  and  O11_12 
REMARK    4  A    between atoms: C16_18  and  O17_19 
REMARK    5  A    between atoms: C19_22  and  O20_23 
ROOT
HETATM    1  O1          0      26.065  40.944 -22.160  1.00  0.00    -0.286 OA
HETATM    2  C2          0      26.458  42.087 -22.522  1.00  0.00     0.201 C 
HETATM    3  C3          0      25.668  43.219 -22.421  1.00  0.00     0.067 C 
HETATM    4  C4          0      26.086  44.447 -22.922  1.00  0.00     0.103 C 
HETATM    5  O13         0      27.277  44.529 -23.488  1.00  0.00    -0.307 OA
HETATM    6  C14         0      28.051  43.477 -23.643  1.00  0.00     0.107 C 
HETATM    7  C15         0      29.089  43.462 -24.564  1.00  0.00     0.049 C 
HETATM    8  C16         0      29.735  42.280 -24.905  1.00  0.00     0.093 C 
HETATM    9  C18         0      29.673  41.279 -23.943  1.00  0.00     0.048 C 
HETATM   10  C19         0      28.676  41.289 -22.977  1.00  0.00     0.096 C 
HETATM   11  C21         0      27.755  42.301 -22.963  1.00  0.00     0.084 C 
ENDROOT
BRANCH  10  12
HETATM   12  O20         0      28.356  40.106 -22.318  1.00  0.00    -0.359 OA
HETATM   13  H20         0      29.070  39.547 -22.036  1.00  0.00     0.218 HD
ENDBRANCH  10  12
BRANCH   4  14
HETATM   14  C5          0      25.046  45.395 -23.327  1.00  0.00     0.025 C 
HETATM   15  C6          0      24.254  46.076 -22.415  1.00  0.00     0.004 C 
HETATM   16  C7          0      23.933  47.399 -22.703  1.00  0.00     0.026 C 
HETATM   17  C8          0      24.274  47.985 -23.917  1.00  0.00     0.112 C 
HETATM   18  C10         0      24.474  47.088 -24.958  1.00  0.00     0.112 C 
HETATM   19  C12         0      24.878  45.795 -24.646  1.00  0.00     0.028 C 
BRANCH  17  20
HETATM   20  O9          0      24.587  49.331 -23.991  1.00  0.00    -0.357 OA
HETATM   21  H9          0      24.145  50.004 -23.488  1.00  0.00     0.218 HD
ENDBRANCH  17  20
BRANCH  18  22
HETATM   22  O11         0      24.630  47.624 -26.228  1.00  0.00    -0.357 OA
HETATM   23  H11         0      25.488  47.969 -26.447  1.00  0.00     0.218 HD
ENDBRANCH  18  22
ENDBRANCH   4  14
BRANCH   8  24
HETATM   24  O17         0      30.111  42.009 -26.225  1.00  0.00    -0.359 OA
HETATM   25  H17         0      30.944  42.300 -26.576  1.00  0.00     0.218 HD
ENDBRANCH   8  24
TORSDOF 5
ENDMDL
MODEL 4
REMARK VINA RESULT:      -2.8      1.372      1.442
REMARK  5 active torsions:
REMARK  status: ('A' for Active; 'I' for Inactive)
REMARK    1  A    between atoms: C4_4  and  C5_5 
REMARK    2  A    between atoms: C8_8  and  O9_9 
REMARK    3  A    between atoms: C10_11  and  O11_12 
REMARK    4  A    between atoms: C16_18  and  O17_19 
REMARK    5  A    between atoms: C19_22  and  O20_23 
ROOT
HETATM    1  O1          0      25.338  41.178 -24.747  1.00  0.00    -0.286 OA
HETATM    2  C2          0      25.806  42.110 -24.036  1.00  0.00     0.201 C 
HETATM    3  C3          0      25.035  42.829 -23.139  1.00  0.00     0.067 C 
HETATM    4  C4          0      25.551  43.917 -22.444  1.00  0.00     0.103 C 
HETATM    5  O13         0      26.815  44.251 -22.636  1.00  0.00    -0.307 OA
HETATM    6  C14         0      27.580  43.625 -23.503  1.00  0.00     0.107 C 
HETATM    7  C15         0      28.743  44.197 -23.999  1.00  0.00     0.049 C 
HETATM    8  C16         0      29.406  43.652 -25.092  1.00  0.00     0.093 C 
HETATM    9  C18         0      29.179  42.297 -25.300  1.00  0.00     0.048 C 
HETATM   10  C19         0      28.049  41.682 -24.779  1.00  0.00     0.096 C 
HETATM   11  C21         0      27.159  42.413 -24.040  1.00  0.00     0.084 C 
ENDROOT
BRANCH  10  12
HETATM   12  O20         0      27.608  40.486 -25.335  1.00  0.00    -0.359 OA
HETATM   13  H20         0      28.124  40.102 -26.033  1.00  0.00     0.218 HD
ENDBRANCH  10  12
BRANCH   4  14
HETATM   14  C5          0      24.606  44.951 -22.020  1.00  0.00     0.025 C 
HETATM   15  C6          0      24.070  45.002 -20.742  1.00  0.00     0.004 C 
HETATM   16  C7          0      23.898  46.256 -20.164  1.00  0.00     0.026 C 
HETATM   17  C8          0      24.124  47.426 -20.881  1.00  0.00     0.112 C 
HETATM   18  C10         0      24.030  47.289 -22.259  1.00  0.00     0.112 C 
HETATM   19  C12         0      24.290  46.043 -22.818  1.00  0.00     0.028 C 
BRANCH  17  20
HETATM   20  O9          0      24.609  48.560 -20.253  1.00  0.00    -0.357 OA
HETATM   21  H9          0      24.663  49.412 -20.669  1.00  0.00     0.218 HD
ENDBRANCH  17  20
BRANCH  18  22
HETATM   22  O11         0      24.058  48.456 -23.010  1.00  0.00    -0.357 OA
HETATM   23  H11         0      23.276  48.995 -22.996  1.00  0.00     0.218 HD
ENDBRANCH  18  22
ENDBRANCH   4  14
BRANCH   8  24
HETATM   24  O17         0      29.970  44.464 -26.082  1.00  0.00    -0.359 OA
HETATM   25  H17         0      29.849  44.282 -27.006  1.00  0.00     0.218 HD
ENDBRANCH   8  24
TORSDOF 5
ENDMDL
MODEL 5
REMARK VINA RESULT:      -2.7      2.951      5.967
REMARK  5 active torsions:
REMARK  status: ('A' for Active; 'I' for Inactive)
REMARK    1  A    between atoms: C4_4  and  C5_5 
REMARK    2  A    between atoms: C8_8  and  O9_9 
REMARK    3  A    between atoms: C10_11  and  O11_12 
REMARK    4  A    between atoms: C16_18  and  O17_19 
REMARK    5  A    between atoms: C19_22  and  O20_23 
ROOT
HETATM    1  O1          0      26.809  44.119 -22.576  1.00  0.00    -0.286 OA
HETATM    2  C2          0      27.686  43.360 -23.072  1.00  0.00     0.201 C 
HETATM    3  C3          0      28.572  43.777 -24.051  1.00  0.00     0.067 C 
HETATM    4  C4          0      29.461  42.894 -24.653  1.00  0.00     0.103 C 
HETATM    5  O13         0      29.465  41.632 -24.261  1.00  0.00    -0.307 OA
HETATM    6  C14         0      28.620  41.176 -23.363  1.00  0.00     0.107 C 
HETATM    7  C15         0      28.345  39.822 -23.239  1.00  0.00     0.049 C 
HETATM    8  C16         0      27.276  39.369 -22.475  1.00  0.00     0.093 C 
HETATM    9  C18         0      26.866  40.235 -21.468  1.00  0.00     0.048 C 
HETATM   10  C19         0      27.165  41.589 -21.537  1.00  0.00     0.096 C 
HETATM   11  C21         0      27.883  42.073 -22.597  1.00  0.00     0.084 C 
ENDROOT
BRANCH  10  12
HETATM   12  O20         0      26.408  42.492 -20.796  1.00  0.00    -0.359 OA
HETATM   13  H20         0      26.566  43.419 -20.928  1.00  0.00     0.218 HD
ENDBRANCH  10  12
BRANCH   4  14
HETATM   14  C5          0      29.902  43.211 -26.013  1.00  0.00     0.025 C 
HETATM   15  C6          0      29.985  42.258 -27.018  1.00  0.00     0.004 C 
HETATM   16  C7          0      29.613  42.641 -28.302  1.00  0.00     0.026 C 
HETATM   17  C8          0      29.297  43.961 -28.607  1.00  0.00     0.112 C 
HETATM   18  C10         0      29.841  44.901 -27.743  1.00  0.00     0.112 C 
HETATM   19  C12         0      30.125  44.514 -26.438  1.00  0.00     0.028 C 
BRANCH  17  20
HETATM   20  O9          0      28.346  44.258 -29.566  1.00  0.00    -0.357 OA
HETATM   21  H9          0      27.955  45.118 -29.674  1.00  0.00     0.218 HD
ENDBRANCH  17  20
BRANCH  18  22
HETATM   22  O11         0      29.716  46.235 -28.106  1.00  0.00    -0.357 OA
HETATM   23  H11         0      28.915  46.677 -27.850  1.00  0.00     0.218 HD
ENDBRANCH  18  22
ENDBRANCH   4  14
BRANCH   8  24
HETATM   24  O17         0      26.475  38.304 -22.900  1.00  0.00    -0.359 OA
HETATM   25  H17         0      25.983  38.342 -23.712  1.00  0.00     0.218 HD
ENDBRANCH   8  24
TORSDOF 5
ENDMDL
MODEL 6
REMARK VINA RESULT:      -2.7      3.190      5.946
REMARK  5 active torsions:
REMARK  status: ('A' for Active; 'I' for Inactive)
REMARK    1  A    between atoms: C4_4  and  C5_5 
REMARK    2  A    between atoms: C8_8  and  O9_9 
REMARK    3  A    between atoms: C10_11  and  O11_12 
REMARK    4  A    between atoms: C16_18  and  O17_19 
REMARK    5  A    between atoms: C19_22  and  O20_23 
ROOT
HETATM    1  O1          0      27.573  43.812 -23.155  1.00  0.00    -0.286 OA
HETATM    2  C2          0      26.537  44.422 -23.537  1.00  0.00     0.201 C 
HETATM    3  C3          0      26.307  44.757 -24.860  1.00  0.00     0.067 C 
HETATM    4  C4          0      25.208  45.519 -25.240  1.00  0.00     0.103 C 
HETATM    5  O13         0      24.356  45.911 -24.309  1.00  0.00    -0.307 OA
HETATM    6  C14         0      24.547  45.653 -23.033  1.00  0.00     0.107 C 
HETATM    7  C15         0      23.907  46.377 -22.038  1.00  0.00     0.049 C 
HETATM    8  C16         0      24.298  46.276 -20.708  1.00  0.00     0.093 C 
HETATM    9  C18         0      24.939  45.090 -20.373  1.00  0.00     0.048 C 
HETATM   10  C19         0      25.549  44.317 -21.351  1.00  0.00     0.096 C 
HETATM   11  C21         0      25.505  44.718 -22.658  1.00  0.00     0.084 C 
ENDROOT
BRANCH  10  12
HETATM   12  O20         0      26.531  43.403 -20.982  1.00  0.00    -0.359 OA
HETATM   13  H20         0      27.037  42.990 -21.671  1.00  0.00     0.218 HD
ENDBRANCH  10  12
BRANCH   4  14
HETATM   14  C5          0      25.335  46.317 -26.460  1.00  0.00     0.025 C 
HETATM   15  C6          0      24.879  47.624 -26.555  1.00  0.00     0.004 C 
HETATM   16  C7          0      25.651  48.525 -27.281  1.00  0.00     0.026 C 
HETATM   17  C8          0      26.768  48.115 -28.000  1.00  0.00     0.112 C 
HETATM   18  C10         0      26.767  46.773 -28.356  1.00  0.00     0.112 C 
HETATM   19  C12         0      26.056  45.880 -27.564  1.00  0.00     0.028 C 
BRANCH  17  20
HETATM   20  O9          0      27.864  48.947 -28.144  1.00  0.00    -0.357 OA
HETATM   21  H9          0      28.718  48.650 -28.437  1.00  0.00     0.218 HD
ENDBRANCH  17  20
BRANCH  18  22
HETATM   22  O11         0      27.759  46.354 -29.232  1.00  0.00    -0.357 OA
HETATM   23  H11         0      27.612  46.515 -30.157  1.00  0.00     0.218 HD
ENDBRANCH  18  22
ENDBRANCH   4  14
BRANCH   8  24
HETATM   24  O17         0      24.347  47.400 -19.875  1.00  0.00    -0.359 OA
HETATM   25  H17         0      25.060  48.026 -19.923  1.00  0.00     0.218 HD
ENDBRANCH   8  24
TORSDOF 5
ENDMDL
MODEL 7
REMARK VINA RESULT:      -2.6      1.605      6.468
REMARK  5 active torsions:
REMARK  status: ('A' for Active; 'I' for Inactive)
REMARK    1  A    between atoms: C4_4  and  C5_5 
REMARK    2  A    between atoms: C8_8  and  O9_9 
REMARK    3  A    between atoms: C10_11  and  O11_12 
REMARK    4  A    between atoms: C16_18  and  O17_19 
REMARK    5  A    between atoms: C19_22  and  O20_23 
ROOT
HETATM    1  O1          0      25.676  44.450 -20.395  1.00  0.00    -0.286 OA
HETATM    2  C2          0      25.847  44.247 -21.628  1.00  0.00     0.201 C 
HETATM    3  C3          0      26.744  43.313 -22.117  1.00  0.00     0.067 C 
HETATM    4  C4          0      26.989  43.181 -23.480  1.00  0.00     0.103 C 
HETATM    5  O13         0      26.330  43.958 -24.321  1.00  0.00    -0.307 OA
HETATM    6  C14         0      25.496  44.887 -23.908  1.00  0.00     0.107 C 
HETATM    7  C15         0      25.117  45.944 -24.722  1.00  0.00     0.049 C 
HETATM    8  C16         0      24.448  47.048 -24.207  1.00  0.00     0.093 C 
HETATM    9  C18         0      23.736  46.809 -23.038  1.00  0.00     0.048 C 
HETATM   10  C19         0      24.057  45.732 -22.223  1.00  0.00     0.096 C 
HETATM   11  C21         0      25.073  44.889 -22.583  1.00  0.00     0.084 C 
ENDROOT
BRANCH  10  12
HETATM   12  O20         0      23.663  45.747 -20.889  1.00  0.00    -0.359 OA
HETATM   13  H20         0      24.341  45.755 -20.224  1.00  0.00     0.218 HD
ENDBRANCH  10  12
BRANCH   4  14
HETATM   14  C5          0      28.300  42.664 -23.878  1.00  0.00     0.025 C 
HETATM   15  C6          0      28.909  41.591 -23.243  1.00  0.00     0.004 C 
HETATM   16  C7          0      29.612  40.688 -24.035  1.00  0.00     0.026 C 
HETATM   17  C8          0      29.818  40.914 -25.391  1.00  0.00     0.112 C 
HETATM   18  C10         0      29.742  42.247 -25.775  1.00  0.00     0.112 C 
HETATM   19  C12         0      28.963  43.110 -25.014  1.00  0.00     0.028 C 
BRANCH  17  20
HETATM   20  O9          0      29.877  39.860 -26.285  1.00  0.00    -0.357 OA
HETATM   21  H9          0      30.489  39.817 -27.011  1.00  0.00     0.218 HD
ENDBRANCH  17  20
BRANCH  18  22
HETATM   22  O11         0      30.124  42.549 -27.074  1.00  0.00    -0.357 OA
HETATM   23  H11         0      31.042  42.437 -27.290  1.00  0.00     0.218 HD
ENDBRANCH  18  22
ENDBRANCH   4  14
BRANCH   8  24
HETATM   24  O17         0      24.744  48.346 -24.636  1.00  0.00    -0.359 OA
HETATM   25  H17         0      24.649  49.096 -24.061  1.00  0.00     0.218 HD
ENDBRANCH   8  24
TORSDOF 5
ENDMDL
MODEL 8
REMARK VINA RESULT:      -2.5      1.879      6.693
REMARK  5 active torsions:
REMARK  status: ('A' for Active; 'I' for Inactive)
REMARK    1  A    between atoms: C4_4  and  C5_5 
REMARK    2  A    between atoms: C8_8  and  O9_9 
REMARK    3  A    between atoms: C10_11  and  O11_12 
REMARK    4  A    between atoms: C16_18  and  O17_19 
REMARK    5  A    between atoms: C19_22  and  O20_23 
ROOT
HETATM    1  O1          0      26.293  44.213 -26.437  1.00  0.00    -0.286 OA
HETATM    2  C2          0      26.642  44.087 -25.231  1.00  0.00     0.201 C 
HETATM    3  C3          0      27.695  43.280 -24.835  1.00  0.00     0.067 C 
HETATM    4  C4          0      27.993  43.079 -23.492  1.00  0.00     0.103 C 
HETATM    5  O13         0      27.260  43.692 -22.580  1.00  0.00    -0.307 OA
HETATM    6  C14         0      26.226  44.439 -22.901  1.00  0.00     0.107 C 
HETATM    7  C15         0      25.235  44.749 -21.981  1.00  0.00     0.049 C 
HETATM    8  C16         0      24.030  45.314 -22.381  1.00  0.00     0.093 C 
HETATM    9  C18         0      24.080  46.016 -23.579  1.00  0.00     0.048 C 
HETATM   10  C19         0      25.086  45.764 -24.502  1.00  0.00     0.096 C 
HETATM   11  C21         0      26.045  44.829 -24.223  1.00  0.00     0.084 C 
ENDROOT
BRANCH  10  12
HETATM   12  O20         0      24.894  46.125 -25.833  1.00  0.00    -0.359 OA
HETATM   13  H20         0      25.060  45.470 -26.500  1.00  0.00     0.218 HD
ENDBRANCH  10  12
BRANCH   4  14
HETATM   14  C5          0      28.659  41.825 -23.134  1.00  0.00     0.025 C 
HETATM   15  C6          0      28.376  41.130 -21.967  1.00  0.00     0.004 C 
HETATM   16  C7          0      28.353  39.740 -22.034  1.00  0.00     0.026 C 
HETATM   17  C8          0      28.729  39.059 -23.186  1.00  0.00     0.112 C 
HETATM   18  C10         0      29.569  39.771 -24.033  1.00  0.00     0.112 C 
HETATM   19  C12         0      29.511  41.159 -24.006  1.00  0.00     0.028 C 
BRANCH  17  20
HETATM   20  O9          0      28.128  37.861 -23.530  1.00  0.00    -0.357 OA
HETATM   21  H9          0      28.002  37.141 -22.924  1.00  0.00     0.218 HD
ENDBRANCH  17  20
BRANCH  18  22
HETATM   22  O11         0      30.125  39.076 -25.097  1.00  0.00    -0.357 OA
HETATM   23  H11         0      29.529  38.574 -25.642  1.00  0.00     0.218 HD
ENDBRANCH  18  22
ENDBRANCH   4  14
BRANCH   8  24
HETATM   24  O17         0      22.815  44.923 -21.808  1.00  0.00    -0.359 OA
HETATM   25  H17         0      22.195  44.377 -22.276  1.00  0.00     0.218 HD
ENDBRANCH   8  24
TORSDOF 5
ENDMDL
MODEL 9
REMARK VINA RESULT:      -2.5      1.860      6.714
REMARK  5 active torsions:
REMARK  status: ('A' for Active; 'I' for Inactive)
REMARK    1  A    between atoms: C4_4  and  C5_5 
REMARK    2  A    between atoms: C8_8  and  O9_9 
REMARK    3  A    between atoms: C10_11  and  O11_12 
REMARK    4  A    between atoms: C16_18  and  O17_19 
REMARK    5  A    between atoms: C19_22  and  O20_23 
ROOT
HETATM    1  O1          0      24.140  44.996 -25.234  1.00  0.00    -0.286 OA
HETATM    2  C2          0      25.004  44.780 -24.341  1.00  0.00     0.201 C 
HETATM    3  C3          0      26.326  44.488 -24.631  1.00  0.00     0.067 C 
HETATM    4  C4          0      27.234  44.153 -23.633  1.00  0.00     0.103 C 
HETATM    5  O13         0      26.821  44.137 -22.378  1.00  0.00    -0.307 OA
HETATM    6  C14         0      25.569  44.370 -22.051  1.00  0.00     0.107 C 
HETATM    7  C15         0      25.046  43.972 -20.830  1.00  0.00     0.049 C 
HETATM    8  C16         0      23.677  43.988 -20.591  1.00  0.00     0.093 C 
HETATM    9  C18         0      22.955  44.881 -21.374  1.00  0.00     0.048 C 
HETATM   10  C19         0      23.469  45.336 -22.581  1.00  0.00     0.096 C 
HETATM   11  C21         0      24.704  44.916 -22.994  1.00  0.00     0.084 C 
ENDROOT
BRANCH  10  12
HETATM   12  O20         0      22.602  45.854 -23.538  1.00  0.00    -0.359 OA
HETATM   13  H20         0      21.954  45.270 -23.914  1.00  0.00     0.218 HD
ENDBRANCH  10  12
BRANCH   4  14
HETATM   14  C5          0      28.366  43.305 -24.013  1.00  0.00     0.025 C 
HETATM   15  C6          0      28.665  42.115 -23.366  1.00  0.00     0.004 C 
HETATM   16  C7          0      29.112  41.053 -24.145  1.00  0.00     0.026 C 
HETATM   17  C8          0      29.383  41.206 -25.500  1.00  0.00     0.112 C 
HETATM   18  C10         0      29.664  42.508 -25.893  1.00  0.00     0.112 C 
HETATM   19  C12         0      29.133  43.552 -25.145  1.00  0.00     0.028 C 
BRANCH  17  20
HETATM   20  O9          0      29.171  40.165 -26.387  1.00  0.00    -0.357 OA
HETATM   21  H9          0      29.866  39.624 -26.742  1.00  0.00     0.218 HD
ENDBRANCH  17  20
BRANCH  18  22
HETATM   22  O11         0      30.124  42.688 -27.189  1.00  0.00    -0.357 OA
HETATM   23  H11         0      31.019  42.991 -27.290  1.00  0.00     0.218 HD
ENDBRANCH  18  22
ENDBRANCH   4  14
BRANCH   8  24
HETATM   24  O17         0      23.049  42.963 -19.876  1.00  0.00    -0.359 OA
HETATM   25  H17         0      23.187  42.847 -18.943  1.00  0.00     0.218 HD
ENDBRANCH   8  24
TORSDOF 5
ENDMDL
