MODEL 1
REMARK VINA RESULT:      -0.0      0.000      0.000
REMARK  5 active torsions:
REMARK  status: ('A' for Active; 'I' for Inactive)
REMARK    1  A    between atoms: C4_4  and  C5_5 
REMARK    2  A    between atoms: C8_8  and  O9_9 
REMARK    3  A    between atoms: C10_11  and  O11_12 
REMARK    4  A    between atoms: C16_18  and  O17_19 
REMARK    5  A    between atoms: C19_22  and  O20_23 
ROOT
HETATM    1  O1          0      13.846   5.275 -29.861  1.00  0.00    -0.286 OA
HETATM    2  C2          0      14.119   4.256 -29.169  1.00  0.00     0.201 C 
HETATM    3  C3          0      13.431   3.928 -28.013  1.00  0.00     0.067 C 
HETATM    4  C4          0      13.818   2.858 -27.214  1.00  0.00     0.103 C 
HETATM    5  O13         0      14.855   2.129 -27.588  1.00  0.00    -0.307 OA
HETATM    6  C14         0      15.565   2.420 -28.656  1.00  0.00     0.107 C 
HETATM    7  C15         0      16.852   1.932 -28.833  1.00  0.00     0.049 C 
HETATM    8  C16         0      17.686   2.438 -29.822  1.00  0.00     0.093 C 
HETATM    9  C18         0      17.030   3.018 -30.902  1.00  0.00     0.048 C 
HETATM   10  C19         0      15.725   3.474 -30.773  1.00  0.00     0.096 C 
HETATM   11  C21         0      15.073   3.337 -29.578  1.00  0.00     0.084 C 
ENDROOT
BRANCH  10  12
HETATM   12  O20         0      15.242   4.416 -31.676  1.00  0.00    -0.359 OA
HETATM   13  H20         0      15.569   4.388 -32.566  1.00  0.00     0.218 HD
ENDBRANCH  10  12
BRANCH   4  14
HETATM   14  C5          0      13.481   2.928 -25.791  1.00  0.00     0.025 C 
HETATM   15  C6          0      14.215   2.275 -24.812  1.00  0.00     0.004 C 
HETATM   16  C7          0      14.406   2.935 -23.602  1.00  0.00     0.026 C 
HETATM   17  C8          0      13.778   4.144 -23.324  1.00  0.00     0.112 C 
HETATM   18  C10         0      12.622   4.379 -24.056  1.00  0.00     0.112 C 
HETATM   19  C12         0      12.494   3.773 -25.301  1.00  0.00     0.028 C 
BRANCH  17  20
HETATM   20  O9          0      14.396   5.099 -22.536  1.00  0.00    -0.357 OA
HETATM   21  H9          0      13.926   5.711 -21.982  1.00  0.00     0.218 HD
ENDBRANCH  17  20
BRANCH  18  22
HETATM   22  O11         0      11.856   5.475 -23.686  1.00  0.00    -0.357 OA
HETATM   23  H11         0      12.066   5.886 -22.856  1.00  0.00     0.218 HD
ENDBRANCH  18  22
ENDBRANCH   4  14
BRANCH   8  24
HETATM   24  O17         0      19.049   2.650 -29.590  1.00  0.00    -0.359 OA
HETATM   25  H17         0      19.432   3.518 -29.623  1.00  0.00     0.218 HD
ENDBRANCH   8  24
TORSDOF 5
ENDMDL
MODEL 2
REMARK VINA RESULT:      -0.0      7.120      8.761
REMARK  5 active torsions:
REMARK  status: ('A' for Active; 'I' for Inactive)
REMARK    1  A    between atoms: C4_4  and  C5_5 
REMARK    2  A    between atoms: C8_8  and  O9_9 
REMARK    3  A    between atoms: C10_11  and  O11_12 
REMARK    4  A    between atoms: C16_18  and  O17_19 
REMARK    5  A    between atoms: C19_22  and  O20_23 
ROOT
HETATM    1  O1          0      10.427   8.623 -24.280  1.00  0.00    -0.286 OA
HETATM    2  C2          0      11.266   8.568 -23.339  1.00  0.00     0.201 C 
HETATM    3  C3          0      12.200   9.563 -23.107  1.00  0.00     0.067 C 
HETATM    4  C4          0      13.178   9.429 -22.128  1.00  0.00     0.103 C 
HETATM    5  O13         0      13.196   8.331 -21.394  1.00  0.00    -0.307 OA
HETATM    6  C14         0      12.355   7.340 -21.598  1.00  0.00     0.107 C 
HETATM    7  C15         0      12.608   6.059 -21.128  1.00  0.00     0.049 C 
HETATM    8  C16         0      11.856   4.972 -21.557  1.00  0.00     0.093 C 
HETATM    9  C18         0      10.581   5.283 -22.014  1.00  0.00     0.048 C 
HETATM   10  C19         0      10.281   6.568 -22.448  1.00  0.00     0.096 C 
HETATM   11  C21         0      11.244   7.539 -22.409  1.00  0.00     0.084 C 
ENDROOT
BRANCH  10  12
HETATM   12  O20         0       9.188   6.765 -23.286  1.00  0.00    -0.359 OA
HETATM   13  H20         0       8.574   6.049 -23.392  1.00  0.00     0.218 HD
ENDBRANCH  10  12
BRANCH   4  14
HETATM   14  C5          0      14.429  10.164 -22.327  1.00  0.00     0.025 C 
HETATM   15  C6          0      15.639   9.749 -21.789  1.00  0.00     0.004 C 
HETATM   16  C7          0      16.780   9.915 -22.567  1.00  0.00     0.026 C 
HETATM   17  C8          0      16.743  10.592 -23.781  1.00  0.00     0.112 C 
HETATM   18  C10         0      15.688  11.484 -23.916  1.00  0.00     0.112 C 
HETATM   19  C12         0      14.527  11.247 -23.190  1.00  0.00     0.028 C 
BRANCH  17  20
HETATM   20  O9          0      17.577  10.225 -24.823  1.00  0.00    -0.357 OA
HETATM   21  H9          0      18.051   9.402 -24.855  1.00  0.00     0.218 HD
ENDBRANCH  17  20
BRANCH  18  22
HETATM   22  O11         0      15.710  12.320 -25.023  1.00  0.00    -0.357 OA
HETATM   23  H11         0      15.238  12.026 -25.793  1.00  0.00     0.218 HD
ENDBRANCH  18  22
ENDBRANCH   4  14
BRANCH   8  24
HETATM   24  O17         0      12.451   3.734 -21.824  1.00  0.00    -0.359 OA
HETATM   25  H17         0      12.305   3.276 -22.643  1.00  0.00     0.218 HD
ENDBRANCH   8  24
TORSDOF 5
ENDMDL
MODEL 3
REMARK VINA RESULT:       0.0     11.314     13.722
REMARK  5 active torsions:
REMARK  status: ('A' for Active; 'I' for Inactive)
REMARK    1  A    between atoms: C4_4  and  C5_5 
REMARK    2  A    between atoms: C8_8  and  O9_9 
REMARK    3  A    between atoms: C10_11  and  O11_12 
REMARK    4  A    between atoms: C16_18  and  O17_19 
REMARK    5  A    between atoms: C19_22  and  O20_23 
ROOT
HETATM    1  O1          0       7.886   8.960 -31.943  1.00  0.00    -0.286 OA
HETATM    2  C2          0       7.475   9.916 -32.658  1.00  0.00     0.201 C 
HETATM    3  C3          0       8.253  11.023 -32.949  1.00  0.00     0.067 C 
HETATM    4  C4          0       7.742  12.108 -33.652  1.00  0.00     0.103 C 
HETATM    5  O13         0       6.488  12.062 -34.066  1.00  0.00    -0.307 OA
HETATM    6  C14         0       5.695  11.052 -33.784  1.00  0.00     0.107 C 
HETATM    7  C15         0       4.314  11.164 -33.855  1.00  0.00     0.049 C 
HETATM    8  C16         0       3.482  10.189 -33.317  1.00  0.00     0.093 C 
HETATM    9  C18         0       4.051   8.926 -33.212  1.00  0.00     0.048 C 
HETATM   10  C19         0       5.431   8.773 -33.185  1.00  0.00     0.096 C 
HETATM   11  C21         0       6.238   9.874 -33.281  1.00  0.00     0.084 C 
ENDROOT
BRANCH  10  12
HETATM   12  O20         0       5.977   7.609 -32.653  1.00  0.00    -0.359 OA
HETATM   13  H20         0       6.275   7.628 -31.752  1.00  0.00     0.218 HD
ENDBRANCH  10  12
BRANCH   4  14
HETATM   14  C5          0       8.357  13.414 -33.408  1.00  0.00     0.025 C 
HETATM   15  C6          0       7.673  14.610 -33.576  1.00  0.00     0.004 C 
HETATM   16  C7          0       7.919  15.627 -32.659  1.00  0.00     0.026 C 
HETATM   17  C8          0       8.908  15.511 -31.689  1.00  0.00     0.112 C 
HETATM   18  C10         0       9.916  14.606 -31.993  1.00  0.00     0.112 C 
HETATM   19  C12         0       9.620  13.549 -32.846  1.00  0.00     0.028 C 
BRANCH  17  20
HETATM   20  O9          0       8.755  16.101 -30.446  1.00  0.00    -0.357 OA
HETATM   21  H9          0       8.512  15.623 -29.661  1.00  0.00     0.218 HD
ENDBRANCH  17  20
BRANCH  18  22
HETATM   22  O11         0      11.020  14.589 -31.153  1.00  0.00    -0.357 OA
HETATM   23  H11         0      11.153  13.805 -30.633  1.00  0.00     0.218 HD
ENDBRANCH  18  22
ENDBRANCH   4  14
BRANCH   8  24
HETATM   24  O17         0       2.309  10.527 -32.634  1.00  0.00    -0.359 OA
HETATM   25  H17         0       2.294  10.636 -31.691  1.00  0.00     0.218 HD
ENDBRANCH   8  24
TORSDOF 5
ENDMDL
MODEL 4
REMARK VINA RESULT:       0.0      7.254      8.955
REMARK  5 active torsions:
REMARK  status: ('A' for Active; 'I' for Inactive)
REMARK    1  A    between atoms: C4_4  and  C5_5 
REMARK    2  A    between atoms: C8_8  and  O9_9 
REMARK    3  A    between atoms: C10_11  and  O11_12 
REMARK    4  A    between atoms: C16_18  and  O17_19 
REMARK    5  A    between atoms: C19_22  and  O20_23 
ROOT
HETATM    1  O1          0      16.166   7.174 -31.401  1.00  0.00    -0.286 OA
HETATM    2  C2          0      16.265   8.418 -31.583  1.00  0.00     0.201 C 
HETATM    3  C3          0      17.258   9.186 -30.999  1.00  0.00     0.067 C 
HETATM    4  C4          0      17.283  10.569 -31.133  1.00  0.00     0.103 C 
HETATM    5  O13         0      16.343  11.154 -31.855  1.00  0.00    -0.307 OA
HETATM    6  C14         0      15.357  10.476 -32.401  1.00  0.00     0.107 C 
HETATM    7  C15         0      14.182  11.093 -32.804  1.00  0.00     0.049 C 
HETATM    8  C16         0      13.055  10.351 -33.138  1.00  0.00     0.093 C 
HETATM    9  C18         0      13.312   9.051 -33.556  1.00  0.00     0.048 C 
HETATM   10  C19         0      14.500   8.420 -33.210  1.00  0.00     0.096 C 
HETATM   11  C21         0      15.432   9.089 -32.466  1.00  0.00     0.084 C 
ENDROOT
BRANCH  10  12
HETATM   12  O20         0      14.567   7.030 -33.244  1.00  0.00    -0.359 OA
HETATM   13  H20         0      14.249   6.551 -32.488  1.00  0.00     0.218 HD
ENDBRANCH  10  12
BRANCH   4  14
HETATM   14  C5          0      17.930  11.335 -30.066  1.00  0.00     0.025 C 
HETATM   15  C6          0      17.588  12.645 -29.767  1.00  0.00     0.004 C 
HETATM   16  C7          0      17.570  13.017 -28.426  1.00  0.00     0.026 C 
HETATM   17  C8          0      18.006  12.156 -27.425  1.00  0.00     0.112 C 
HETATM   18  C10         0      18.888  11.172 -27.850  1.00  0.00     0.112 C 
HETATM   19  C12         0      18.827  10.758 -29.176  1.00  0.00     0.028 C 
BRANCH  17  20
HETATM   20  O9          0      17.425  12.176 -26.169  1.00  0.00    -0.357 OA
HETATM   21  H9          0      17.080  11.405 -25.735  1.00  0.00     0.218 HD
ENDBRANCH  17  20
BRANCH  18  22
HETATM   22  O11         0      19.499  10.407 -26.866  1.00  0.00    -0.357 OA
HETATM   23  H11         0      19.090   9.577 -26.651  1.00  0.00     0.218 HD
ENDBRANCH  18  22
ENDBRANCH   4  14
BRANCH   8  24
HETATM   24  O17         0      11.772  10.762 -32.761  1.00  0.00    -0.359 OA
HETATM   25  H17         0      11.250  11.334 -33.311  1.00  0.00     0.218 HD
ENDBRANCH   8  24
TORSDOF 5
ENDMDL
MODEL 5
REMARK VINA RESULT:       0.0      5.886      7.793
REMARK  5 active torsions:
REMARK  status: ('A' for Active; 'I' for Inactive)
REMARK    1  A    between atoms: C4_4  and  C5_5 
REMARK    2  A    between atoms: C8_8  and  O9_9 
REMARK    3  A    between atoms: C10_11  and  O11_12 
REMARK    4  A    between atoms: C16_18  and  O17_19 
REMARK    5  A    between atoms: C19_22  and  O20_23 
ROOT
HETATM    1  O1          0      12.003   7.054 -28.262  1.00  0.00    -0.286 OA
HETATM    2  C2          0      12.180   8.227 -27.834  1.00  0.00     0.201 C 
HETATM    3  C3          0      12.873   8.503 -26.667  1.00  0.00     0.067 C 
HETATM    4  C4          0      12.966   9.796 -26.163  1.00  0.00     0.103 C 
HETATM    5  O13         0      12.392  10.780 -26.832  1.00  0.00    -0.307 OA
HETATM    6  C14         0      11.691  10.568 -27.924  1.00  0.00     0.107 C 
HETATM    7  C15         0      10.775  11.497 -28.397  1.00  0.00     0.049 C 
HETATM    8  C16         0       9.861  11.168 -29.391  1.00  0.00     0.093 C 
HETATM    9  C18         0      10.246  10.120 -30.218  1.00  0.00     0.048 C 
HETATM   10  C19         0      11.195   9.199 -29.795  1.00  0.00     0.096 C 
HETATM   11  C21         0      11.768   9.334 -28.560  1.00  0.00     0.084 C 
ENDROOT
BRANCH  10  12
HETATM   12  O20         0      11.253   7.952 -30.409  1.00  0.00    -0.359 OA
HETATM   13  H20         0      11.283   7.183 -29.853  1.00  0.00     0.218 HD
ENDBRANCH  10  12
BRANCH   4  14
HETATM   14  C5          0      13.151   9.940 -24.718  1.00  0.00     0.025 C 
HETATM   15  C6          0      12.735  11.060 -24.014  1.00  0.00     0.004 C 
HETATM   16  C7          0      12.196  10.862 -22.747  1.00  0.00     0.026 C 
HETATM   17  C8          0      12.195   9.610 -22.143  1.00  0.00     0.112 C 
HETATM   18  C10         0      13.161   8.735 -22.620  1.00  0.00     0.112 C 
HETATM   19  C12         0      13.620   8.903 -23.921  1.00  0.00     0.028 C 
BRANCH  17  20
HETATM   20  O9          0      11.168   9.233 -21.296  1.00  0.00    -0.357 OA
HETATM   21  H9          0      11.184   8.446 -20.764  1.00  0.00     0.218 HD
ENDBRANCH  17  20
BRANCH  18  22
HETATM   22  O11         0      13.328   7.544 -21.927  1.00  0.00    -0.357 OA
HETATM   23  H11         0      14.219   7.234 -21.813  1.00  0.00     0.218 HD
ENDBRANCH  18  22
ENDBRANCH   4  14
BRANCH   8  24
HETATM   24  O17         0       8.538  11.621 -29.345  1.00  0.00    -0.359 OA
HETATM   25  H17         0       7.898  11.359 -29.995  1.00  0.00     0.218 HD
ENDBRANCH   8  24
TORSDOF 5
ENDMDL
MODEL 6
REMARK VINA RESULT:       0.0      5.042      7.098
REMARK  5 active torsions:
REMARK  status: ('A' for Active; 'I' for Inactive)
REMARK    1  A    between atoms: C4_4  and  C5_5 
REMARK    2  A    between atoms: C8_8  and  O9_9 
REMARK    3  A    between atoms: C10_11  and  O11_12 
REMARK    4  A    between atoms: C16_18  and  O17_19 
REMARK    5  A    between atoms: C19_22  and  O20_23 
ROOT
HETATM    1  O1          0      10.956   7.904 -21.314  1.00  0.00    -0.286 OA
HETATM    2  C2          0      10.983   7.086 -22.274  1.00  0.00     0.201 C 
HETATM    3  C3          0      11.129   5.721 -22.093  1.00  0.00     0.067 C 
HETATM    4  C4          0      11.259   4.852 -23.171  1.00  0.00     0.103 C 
HETATM    5  O13         0      11.222   5.350 -24.395  1.00  0.00    -0.307 OA
HETATM    6  C14         0      11.124   6.641 -24.622  1.00  0.00     0.107 C 
HETATM    7  C15         0      11.480   7.198 -25.841  1.00  0.00     0.049 C 
HETATM    8  C16         0      11.618   8.573 -25.994  1.00  0.00     0.093 C 
HETATM    9  C18         0      10.894   9.339 -25.089  1.00  0.00     0.048 C 
HETATM   10  C19         0      10.481   8.799 -23.879  1.00  0.00     0.096 C 
HETATM   11  C21         0      10.774   7.496 -23.582  1.00  0.00     0.084 C 
ENDROOT
BRANCH  10  12
HETATM   12  O20         0      10.161   9.652 -22.827  1.00  0.00    -0.359 OA
HETATM   13  H20         0      10.109  10.582 -23.008  1.00  0.00     0.218 HD
ENDBRANCH  10  12
BRANCH   4  14
HETATM   14  C5          0      11.985   3.602 -22.940  1.00  0.00     0.025 C 
HETATM   15  C6          0      12.652   2.923 -23.949  1.00  0.00     0.004 C 
HETATM   16  C7          0      13.867   2.324 -23.629  1.00  0.00     0.026 C 
HETATM   17  C8          0      14.339   2.286 -22.322  1.00  0.00     0.112 C 
HETATM   18  C10         0      13.358   2.405 -21.347  1.00  0.00     0.112 C 
HETATM   19  C12         0      12.187   3.083 -21.668  1.00  0.00     0.028 C 
BRANCH  17  20
HETATM   20  O9          0      15.696   2.339 -22.056  1.00  0.00    -0.357 OA
HETATM   21  H9          0      16.175   3.148 -21.917  1.00  0.00     0.218 HD
ENDBRANCH  17  20
BRANCH  18  22
HETATM   22  O11         0      13.746   2.185 -20.033  1.00  0.00    -0.357 OA
HETATM   23  H11         0      14.680   2.160 -19.860  1.00  0.00     0.218 HD
ENDBRANCH  18  22
ENDBRANCH   4  14
BRANCH   8  24
HETATM   24  O17         0      12.651   9.121 -26.762  1.00  0.00    -0.359 OA
HETATM   25  H17         0      12.966  10.006 -26.616  1.00  0.00     0.218 HD
ENDBRANCH   8  24
TORSDOF 5
ENDMDL
MODEL 7
REMARK VINA RESULT:       0.0      9.330     11.488
REMARK  5 active torsions:
REMARK  status: ('A' for Active; 'I' for Inactive)
REMARK    1  A    between atoms: C4_4  and  C5_5 
REMARK    2  A    between atoms: C8_8  and  O9_9 
REMARK    3  A    between atoms: C10_11  and  O11_12 
REMARK    4  A    between atoms: C16_18  and  O17_19 
REMARK    5  A    between atoms: C19_22  and  O20_23 
ROOT
HETATM    1  O1          0      10.691   9.171 -29.417  1.00  0.00    -0.286 OA
HETATM    2  C2          0      10.335  10.274 -28.920  1.00  0.00     0.201 C 
HETATM    3  C3          0       9.274  11.013 -29.416  1.00  0.00     0.067 C 
HETATM    4  C4          0       8.967  12.274 -28.915  1.00  0.00     0.103 C 
HETATM    5  O13         0       9.698  12.760 -27.928  1.00  0.00    -0.307 OA
HETATM    6  C14         0      10.739  12.116 -27.446  1.00  0.00     0.107 C 
HETATM    7  C15         0      11.726  12.764 -26.718  1.00  0.00     0.049 C 
HETATM    8  C16         0      12.936  12.144 -26.432  1.00  0.00     0.093 C 
HETATM    9  C18         0      12.897  10.755 -26.427  1.00  0.00     0.048 C 
HETATM   10  C19         0      11.896  10.075 -27.107  1.00  0.00     0.096 C 
HETATM   11  C21         0      10.930  10.778 -27.773  1.00  0.00     0.084 C 
ENDROOT
BRANCH  10  12
HETATM   12  O20         0      12.098   8.745 -27.463  1.00  0.00    -0.359 OA
HETATM   13  H20         0      11.528   8.090 -27.078  1.00  0.00     0.218 HD
ENDBRANCH  10  12
BRANCH   4  14
HETATM   14  C5          0       8.293  13.207 -29.819  1.00  0.00     0.025 C 
HETATM   15  C6          0       8.401  14.585 -29.695  1.00  0.00     0.004 C 
HETATM   16  C7          0       8.479  15.333 -30.866  1.00  0.00     0.026 C 
HETATM   17  C8          0       8.320  14.748 -32.117  1.00  0.00     0.112 C 
HETATM   18  C10         0       7.609  13.556 -32.114  1.00  0.00     0.112 C 
HETATM   19  C12         0       7.618  12.785 -30.957  1.00  0.00     0.028 C 
BRANCH  17  20
HETATM   20  O9          0       9.008  15.229 -33.217  1.00  0.00    -0.357 OA
HETATM   21  H9          0       9.936  15.435 -33.211  1.00  0.00     0.218 HD
ENDBRANCH  17  20
BRANCH  18  22
HETATM   22  O11         0       7.259  13.029 -33.349  1.00  0.00    -0.357 OA
HETATM   23  H11         0       7.614  12.175 -33.569  1.00  0.00     0.218 HD
ENDBRANCH  18  22
ENDBRANCH   4  14
BRANCH   8  24
HETATM   24  O17         0      14.146  12.846 -26.485  1.00  0.00    -0.359 OA
HETATM   25  H17         0      14.286  13.552 -27.104  1.00  0.00     0.218 HD
ENDBRANCH   8  24
TORSDOF 5
ENDMDL
MODEL 8
REMARK VINA RESULT:       0.0      6.627      9.004
REMARK  5 active torsions:
REMARK  status: ('A' for Active; 'I' for Inactive)
REMARK    1  A    between atoms: C4_4  and  C5_5 
REMARK    2  A    between atoms: C8_8  and  O9_9 
REMARK    3  A    between atoms: C10_11  and  O11_12 
REMARK    4  A    between atoms: C16_18  and  O17_19 
REMARK    5  A    between atoms: C19_22  and  O20_23 
ROOT
HETATM    1  O1          0      11.391   6.091 -29.402  1.00  0.00    -0.286 OA
HETATM    2  C2          0      11.035   7.194 -28.905  1.00  0.00     0.201 C 
HETATM    3  C3          0       9.974   7.933 -29.401  1.00  0.00     0.067 C 
HETATM    4  C4          0       9.667   9.194 -28.900  1.00  0.00     0.103 C 
HETATM    5  O13         0      10.398   9.680 -27.913  1.00  0.00    -0.307 OA
HETATM    6  C14         0      11.438   9.036 -27.431  1.00  0.00     0.107 C 
HETATM    7  C15         0      12.426   9.684 -26.703  1.00  0.00     0.049 C 
HETATM    8  C16         0      13.636   9.064 -26.417  1.00  0.00     0.093 C 
HETATM    9  C18         0      13.597   7.675 -26.412  1.00  0.00     0.048 C 
HETATM   10  C19         0      12.596   6.995 -27.092  1.00  0.00     0.096 C 
HETATM   11  C21         0      11.629   7.698 -27.758  1.00  0.00     0.084 C 
ENDROOT
BRANCH  10  12
HETATM   12  O20         0      12.797   5.665 -27.448  1.00  0.00    -0.359 OA
HETATM   13  H20         0      13.530   5.206 -27.056  1.00  0.00     0.218 HD
ENDBRANCH  10  12
BRANCH   4  14
HETATM   14  C5          0       8.992  10.127 -29.804  1.00  0.00     0.025 C 
HETATM   15  C6          0       9.101  11.505 -29.681  1.00  0.00     0.004 C 
HETATM   16  C7          0       9.179  12.253 -30.851  1.00  0.00     0.026 C 
HETATM   17  C8          0       9.020  11.668 -32.102  1.00  0.00     0.112 C 
HETATM   18  C10         0       8.309  10.476 -32.099  1.00  0.00     0.112 C 
HETATM   19  C12         0       8.317   9.705 -30.943  1.00  0.00     0.028 C 
BRANCH  17  20
HETATM   20  O9          0       9.708  12.149 -33.202  1.00  0.00    -0.357 OA
HETATM   21  H9          0      10.635  12.355 -33.196  1.00  0.00     0.218 HD
ENDBRANCH  17  20
BRANCH  18  22
HETATM   22  O11         0       7.959   9.949 -33.334  1.00  0.00    -0.357 OA
HETATM   23  H11         0       7.916   9.002 -33.402  1.00  0.00     0.218 HD
ENDBRANCH  18  22
ENDBRANCH   4  14
BRANCH   8  24
HETATM   24  O17         0      14.846   9.766 -26.470  1.00  0.00    -0.359 OA
HETATM   25  H17         0      14.986  10.472 -27.089  1.00  0.00     0.218 HD
ENDBRANCH   8  24
TORSDOF 5
ENDMDL
MODEL 9
REMARK VINA RESULT:       0.0      8.848     11.352
REMARK  5 active torsions:
REMARK  status: ('A' for Active; 'I' for Inactive)
REMARK    1  A    between atoms: C4_4  and  C5_5 
REMARK    2  A    between atoms: C8_8  and  O9_9 
REMARK    3  A    between atoms: C10_11  and  O11_12 
REMARK    4  A    between atoms: C16_18  and  O17_19 
REMARK    5  A    between atoms: C19_22  and  O20_23 
ROOT
HETATM    1  O1          0       9.731   7.590 -30.841  1.00  0.00    -0.286 OA
HETATM    2  C2          0       9.549   8.837 -30.789  1.00  0.00     0.201 C 
HETATM    3  C3          0       8.383   9.444 -31.224  1.00  0.00     0.067 C 
HETATM    4  C4          0       8.249  10.828 -31.251  1.00  0.00     0.103 C 
HETATM    5  O13         0       9.256  11.572 -30.829  1.00  0.00    -0.307 OA
HETATM    6  C14         0      10.398  11.047 -30.441  1.00  0.00     0.107 C 
HETATM    7  C15         0      11.564  11.796 -30.384  1.00  0.00     0.049 C 
HETATM    8  C16         0      12.804  11.190 -30.223  1.00  0.00     0.093 C 
HETATM    9  C18         0      12.773   9.943 -29.609  1.00  0.00     0.048 C 
HETATM   10  C19         0      11.608   9.187 -29.606  1.00  0.00     0.096 C 
HETATM   11  C21         0      10.478   9.680 -30.198  1.00  0.00     0.084 C 
ENDROOT
BRANCH  10  12
HETATM   12  O20         0      11.689   7.814 -29.396  1.00  0.00    -0.359 OA
HETATM   13  H20         0      12.510   7.461 -29.075  1.00  0.00     0.218 HD
ENDBRANCH  10  12
BRANCH   4  14
HETATM   14  C5          0       7.318  11.392 -32.230  1.00  0.00     0.025 C 
HETATM   15  C6          0       7.456  12.671 -32.749  1.00  0.00     0.004 C 
HETATM   16  C7          0       7.154  12.857 -34.094  1.00  0.00     0.026 C 
HETATM   17  C8          0       6.604  11.838 -34.866  1.00  0.00     0.112 C 
HETATM   18  C10         0       5.935  10.860 -34.143  1.00  0.00     0.112 C 
HETATM   19  C12         0       6.315  10.637 -32.825  1.00  0.00     0.028 C 
BRANCH  17  20
HETATM   20  O9          0       6.903  11.729 -36.212  1.00  0.00    -0.357 OA
HETATM   21  H9          0       7.783  11.792 -36.565  1.00  0.00     0.218 HD
ENDBRANCH  17  20
BRANCH  18  22
HETATM   22  O11         0       5.210   9.927 -34.870  1.00  0.00    -0.357 OA
HETATM   23  H11         0       5.313   9.015 -34.624  1.00  0.00     0.218 HD
ENDBRANCH  18  22
ENDBRANCH   4  14
BRANCH   8  24
HETATM   24  O17         0      13.931  11.637 -30.921  1.00  0.00    -0.359 OA
HETATM   25  H17         0      14.604  11.037 -31.220  1.00  0.00     0.218 HD
ENDBRANCH   8  24
TORSDOF 5
ENDMDL
