MODEL 1
REMARK VINA RESULT:      -0.0      0.000      0.000
REMARK  5 active torsions:
REMARK  status: ('A' for Active; 'I' for Inactive)
REMARK    1  A    between atoms: C4_4  and  C5_5 
REMARK    2  A    between atoms: C8_8  and  O9_9 
REMARK    3  A    between atoms: C10_11  and  O11_12 
REMARK    4  A    between atoms: C16_18  and  O17_19 
REMARK    5  A    between atoms: C19_22  and  O20_23 
ROOT
HETATM    1  O1          0      22.663   6.337  43.179  1.00  0.00    -0.286 OA
HETATM    2  C2          0      21.844   5.778  42.398  1.00  0.00     0.201 C 
HETATM    3  C3          0      20.473   5.925  42.517  1.00  0.00     0.067 C 
HETATM    4  C4          0      19.591   5.218  41.708  1.00  0.00     0.103 C 
HETATM    5  O13         0      20.084   4.402  40.793  1.00  0.00    -0.307 OA
HETATM    6  C14         0      21.377   4.197  40.663  1.00  0.00     0.107 C 
HETATM    7  C15         0      21.877   3.081  40.009  1.00  0.00     0.049 C 
HETATM    8  C16         0      23.221   2.737  40.094  1.00  0.00     0.093 C 
HETATM    9  C18         0      24.080   3.791  40.381  1.00  0.00     0.048 C 
HETATM   10  C19         0      23.603   4.942  40.993  1.00  0.00     0.096 C 
HETATM   11  C21         0      22.274   5.047  41.301  1.00  0.00     0.084 C 
ENDROOT
BRANCH  10  12
HETATM   12  O20         0      24.494   5.778  41.659  1.00  0.00    -0.359 OA
HETATM   13  H20         0      24.208   6.178  42.471  1.00  0.00     0.218 HD
ENDBRANCH  10  12
BRANCH   4  14
HETATM   14  C5          0      18.257   4.947  42.248  1.00  0.00     0.025 C 
HETATM   15  C6          0      17.492   3.860  41.852  1.00  0.00     0.004 C 
HETATM   16  C7          0      16.741   3.211  42.827  1.00  0.00     0.026 C 
HETATM   17  C8          0      16.646   3.705  44.123  1.00  0.00     0.112 C 
HETATM   18  C10         0      16.897   5.065  44.246  1.00  0.00     0.112 C 
HETATM   19  C12         0      17.721   5.672  43.305  1.00  0.00     0.028 C 
BRANCH  17  20
HETATM   20  O9          0      16.522   2.847  45.202  1.00  0.00    -0.357 OA
HETATM   21  H9          0      17.198   2.237  45.471  1.00  0.00     0.218 HD
ENDBRANCH  17  20
BRANCH  18  22
HETATM   22  O11         0      16.633   5.645  45.478  1.00  0.00    -0.357 OA
HETATM   23  H11         0      16.543   5.057  46.220  1.00  0.00     0.218 HD
ENDBRANCH  18  22
ENDBRANCH   4  14
BRANCH   8  24
HETATM   24  O17         0      23.626   1.403  40.218  1.00  0.00    -0.359 OA
HETATM   25  H17         0      23.712   0.984  41.066  1.00  0.00     0.218 HD
ENDBRANCH   8  24
TORSDOF 5
ENDMDL
MODEL 2
REMARK VINA RESULT:      -0.0      3.066      3.934
REMARK  5 active torsions:
REMARK  status: ('A' for Active; 'I' for Inactive)
REMARK    1  A    between atoms: C4_4  and  C5_5 
REMARK    2  A    between atoms: C8_8  and  O9_9 
REMARK    3  A    between atoms: C10_11  and  O11_12 
REMARK    4  A    between atoms: C16_18  and  O17_19 
REMARK    5  A    between atoms: C19_22  and  O20_23 
ROOT
HETATM    1  O1          0      21.789   2.859  42.455  1.00  0.00    -0.286 OA
HETATM    2  C2          0      20.822   2.133  42.094  1.00  0.00     0.201 C 
HETATM    3  C3          0      19.531   2.318  42.557  1.00  0.00     0.067 C 
HETATM    4  C4          0      18.505   1.441  42.225  1.00  0.00     0.103 C 
HETATM    5  O13         0      18.775   0.420  41.430  1.00  0.00    -0.307 OA
HETATM    6  C14         0      19.991   0.177  40.994  1.00  0.00     0.107 C 
HETATM    7  C15         0      20.359  -1.071  40.512  1.00  0.00     0.049 C 
HETATM    8  C16         0      21.692  -1.396  40.293  1.00  0.00     0.093 C 
HETATM    9  C18         0      22.531  -0.312  40.065  1.00  0.00     0.048 C 
HETATM   10  C19         0      22.172   0.959  40.493  1.00  0.00     0.096 C 
HETATM   11  C21         0      20.976   1.149  41.129  1.00  0.00     0.084 C 
ENDROOT
BRANCH  10  12
HETATM   12  O20         0      23.160   1.925  40.659  1.00  0.00    -0.359 OA
HETATM   13  H20         0      23.085   2.516  41.398  1.00  0.00     0.218 HD
ENDBRANCH  10  12
BRANCH   4  14
HETATM   14  C5          0      17.391   1.325  43.167  1.00  0.00     0.025 C 
HETATM   15  C6          0      16.614   0.181  43.276  1.00  0.00     0.004 C 
HETATM   16  C7          0      16.202  -0.200  44.549  1.00  0.00     0.026 C 
HETATM   17  C8          0      16.438   0.600  45.662  1.00  0.00     0.112 C 
HETATM   18  C10         0      16.630   1.946  45.379  1.00  0.00     0.112 C 
HETATM   19  C12         0      17.124   2.293  44.127  1.00  0.00     0.028 C 
BRANCH  17  20
HETATM   20  O9          0      16.669   0.036  46.904  1.00  0.00    -0.357 OA
HETATM   21  H9          0      16.035   0.039  47.612  1.00  0.00     0.218 HD
ENDBRANCH  17  20
BRANCH  18  22
HETATM   22  O11         0      16.681   2.814  46.460  1.00  0.00    -0.357 OA
HETATM   23  H11         0      16.538   3.736  46.278  1.00  0.00     0.218 HD
ENDBRANCH  18  22
ENDBRANCH   4  14
BRANCH   8  24
HETATM   24  O17         0      22.196  -2.662  40.613  1.00  0.00    -0.359 OA
HETATM   25  H17         0      22.538  -2.859  41.477  1.00  0.00     0.218 HD
ENDBRANCH   8  24
TORSDOF 5
ENDMDL
MODEL 3
REMARK VINA RESULT:      -0.0      2.724      4.561
REMARK  5 active torsions:
REMARK  status: ('A' for Active; 'I' for Inactive)
REMARK    1  A    between atoms: C4_4  and  C5_5 
REMARK    2  A    between atoms: C8_8  and  O9_9 
REMARK    3  A    between atoms: C10_11  and  O11_12 
REMARK    4  A    between atoms: C16_18  and  O17_19 
REMARK    5  A    between atoms: C19_22  and  O20_23 
ROOT
HETATM    1  O1          0      20.416   0.519  37.683  1.00  0.00    -0.286 OA
HETATM    2  C2          0      20.976   1.340  38.459  1.00  0.00     0.201 C 
HETATM    3  C3          0      20.387   1.792  39.628  1.00  0.00     0.067 C 
HETATM    4  C4          0      20.981   2.774  40.412  1.00  0.00     0.103 C 
HETATM    5  O13         0      22.147   3.267  40.035  1.00  0.00    -0.307 OA
HETATM    6  C14         0      22.733   2.901  38.915  1.00  0.00     0.107 C 
HETATM    7  C15         0      23.719   3.674  38.319  1.00  0.00     0.049 C 
HETATM    8  C16         0      24.149   3.420  37.022  1.00  0.00     0.093 C 
HETATM    9  C18         0      23.961   2.114  36.587  1.00  0.00     0.048 C 
HETATM   10  C19         0      23.015   1.297  37.192  1.00  0.00     0.096 C 
HETATM   11  C21         0      22.274   1.777  38.237  1.00  0.00     0.084 C 
ENDROOT
BRANCH  10  12
HETATM   12  O20         0      22.531   0.190  36.503  1.00  0.00    -0.359 OA
HETATM   13  H20         0      22.676  -0.669  36.881  1.00  0.00     0.218 HD
ENDBRANCH  10  12
BRANCH   4  14
HETATM   14  C5          0      20.096   3.604  41.231  1.00  0.00     0.025 C 
HETATM   15  C6          0      20.421   4.896  41.616  1.00  0.00     0.004 C 
HETATM   16  C7          0      19.399   5.840  41.635  1.00  0.00     0.026 C 
HETATM   17  C8          0      18.074   5.484  41.409  1.00  0.00     0.112 C 
HETATM   18  C10         0      17.780   4.151  41.665  1.00  0.00     0.112 C 
HETATM   19  C12         0      18.802   3.217  41.556  1.00  0.00     0.028 C 
BRANCH  17  20
HETATM   20  O9          0      17.203   6.356  40.780  1.00  0.00    -0.357 OA
HETATM   21  H9          0      16.881   7.158  41.176  1.00  0.00     0.218 HD
ENDBRANCH  17  20
BRANCH  18  22
HETATM   22  O11         0      16.441   3.787  41.639  1.00  0.00    -0.357 OA
HETATM   23  H11         0      16.166   3.115  42.252  1.00  0.00     0.218 HD
ENDBRANCH  18  22
ENDBRANCH   4  14
BRANCH   8  24
HETATM   24  O17         0      24.426   4.461  36.129  1.00  0.00    -0.359 OA
HETATM   25  H17         0      24.501   4.309  35.194  1.00  0.00     0.218 HD
ENDBRANCH   8  24
TORSDOF 5
ENDMDL
MODEL 4
REMARK VINA RESULT:       0.0      9.028     11.965
REMARK  5 active torsions:
REMARK  status: ('A' for Active; 'I' for Inactive)
REMARK    1  A    between atoms: C4_4  and  C5_5 
REMARK    2  A    between atoms: C8_8  and  O9_9 
REMARK    3  A    between atoms: C10_11  and  O11_12 
REMARK    4  A    between atoms: C16_18  and  O17_19 
REMARK    5  A    between atoms: C19_22  and  O20_23 
ROOT
HETATM    1  O1          0      24.672  -2.697  31.249  1.00  0.00    -0.286 OA
HETATM    2  C2          0      24.025  -2.270  32.245  1.00  0.00     0.201 C 
HETATM    3  C3          0      24.272  -1.040  32.829  1.00  0.00     0.067 C 
HETATM    4  C4          0      23.615  -0.638  33.986  1.00  0.00     0.103 C 
HETATM    5  O13         0      22.721  -1.449  34.523  1.00  0.00    -0.307 OA
HETATM    6  C14         0      22.476  -2.643  34.031  1.00  0.00     0.107 C 
HETATM    7  C15         0      21.863  -3.633  34.785  1.00  0.00     0.049 C 
HETATM    8  C16         0      21.836  -4.955  34.356  1.00  0.00     0.093 C 
HETATM    9  C18         0      21.951  -5.128  32.982  1.00  0.00     0.048 C 
HETATM   10  C19         0      22.517  -4.138  32.191  1.00  0.00     0.096 C 
HETATM   11  C21         0      22.950  -2.974  32.766  1.00  0.00     0.084 C 
ENDROOT
BRANCH  10  12
HETATM   12  O20         0      23.021  -4.473  30.938  1.00  0.00    -0.359 OA
HETATM   13  H20         0      22.804  -3.909  30.206  1.00  0.00     0.218 HD
ENDBRANCH  10  12
BRANCH   4  14
HETATM   14  C5          0      24.308   0.319  34.852  1.00  0.00     0.025 C 
HETATM   15  C6          0      24.079   0.401  36.217  1.00  0.00     0.004 C 
HETATM   16  C7          0      25.173   0.645  37.041  1.00  0.00     0.026 C 
HETATM   17  C8          0      26.430   0.931  36.519  1.00  0.00     0.112 C 
HETATM   18  C10         0      26.419   1.441  35.228  1.00  0.00     0.112 C 
HETATM   19  C12         0      25.354   1.112  34.397  1.00  0.00     0.028 C 
BRANCH  17  20
HETATM   20  O9          0      27.579   0.528  37.176  1.00  0.00    -0.357 OA
HETATM   21  H9          0      28.124  -0.196  36.891  1.00  0.00     0.218 HD
ENDBRANCH  17  20
BRANCH  18  22
HETATM   22  O11         0      27.623   1.919  34.730  1.00  0.00    -0.357 OA
HETATM   23  H11         0      27.807   1.749  33.814  1.00  0.00     0.218 HD
ENDBRANCH  18  22
ENDBRANCH   4  14
BRANCH   8  24
HETATM   24  O17         0      22.022  -6.015  35.250  1.00  0.00    -0.359 OA
HETATM   25  H17         0      22.182  -6.901  34.947  1.00  0.00     0.218 HD
ENDBRANCH   8  24
TORSDOF 5
ENDMDL
MODEL 5
REMARK VINA RESULT:       0.0      6.166      7.918
REMARK  5 active torsions:
REMARK  status: ('A' for Active; 'I' for Inactive)
REMARK    1  A    between atoms: C4_4  and  C5_5 
REMARK    2  A    between atoms: C8_8  and  O9_9 
REMARK    3  A    between atoms: C10_11  and  O11_12 
REMARK    4  A    between atoms: C16_18  and  O17_19 
REMARK    5  A    between atoms: C19_22  and  O20_23 
ROOT
HETATM    1  O1          0      16.816   0.268  38.238  1.00  0.00    -0.286 OA
HETATM    2  C2          0      16.574   0.666  39.410  1.00  0.00     0.201 C 
HETATM    3  C3          0      16.894  -0.075  40.535  1.00  0.00     0.067 C 
HETATM    4  C4          0      16.525   0.340  41.810  1.00  0.00     0.103 C 
HETATM    5  O13         0      15.871   1.480  41.942  1.00  0.00    -0.307 OA
HETATM    6  C14         0      15.511   2.204  40.905  1.00  0.00     0.107 C 
HETATM    7  C15         0      14.508   3.158  40.992  1.00  0.00     0.049 C 
HETATM    8  C16         0      13.958   3.734  39.853  1.00  0.00     0.093 C 
HETATM    9  C18         0      14.781   3.722  38.733  1.00  0.00     0.048 C 
HETATM   10  C19         0      15.823   2.810  38.634  1.00  0.00     0.096 C 
HETATM   11  C21         0      16.053   1.928  39.654  1.00  0.00     0.084 C 
ENDROOT
BRANCH  10  12
HETATM   12  O20         0      16.346   2.509  37.380  1.00  0.00    -0.359 OA
HETATM   13  H20         0      16.388   1.596  37.123  1.00  0.00     0.218 HD
ENDBRANCH  10  12
BRANCH   4  14
HETATM   14  C5          0      16.341  -0.699  42.825  1.00  0.00     0.025 C 
HETATM   15  C6          0      15.497  -0.545  43.915  1.00  0.00     0.004 C 
HETATM   16  C7          0      14.765  -1.655  44.326  1.00  0.00     0.026 C 
HETATM   17  C8          0      14.964  -2.910  43.760  1.00  0.00     0.112 C 
HETATM   18  C10         0      16.210  -3.090  43.173  1.00  0.00     0.112 C 
HETATM   19  C12         0      16.882  -1.972  42.694  1.00  0.00     0.028 C 
BRANCH  17  20
HETATM   20  O9          0      13.915  -3.801  43.624  1.00  0.00    -0.357 OA
HETATM   21  H9          0      13.917  -4.530  43.015  1.00  0.00     0.218 HD
ENDBRANCH  17  20
BRANCH  18  22
HETATM   22  O11         0      16.531  -4.376  42.763  1.00  0.00    -0.357 OA
HETATM   23  H11         0      16.581  -4.529  41.827  1.00  0.00     0.218 HD
ENDBRANCH  18  22
ENDBRANCH   4  14
BRANCH   8  24
HETATM   24  O17         0      12.585   3.988  39.754  1.00  0.00    -0.359 OA
HETATM   25  H17         0      12.170   4.686  40.248  1.00  0.00     0.218 HD
ENDBRANCH   8  24
TORSDOF 5
ENDMDL
MODEL 6
REMARK VINA RESULT:       0.0     13.757     14.478
REMARK  5 active torsions:
REMARK  status: ('A' for Active; 'I' for Inactive)
REMARK    1  A    between atoms: C4_4  and  C5_5 
REMARK    2  A    between atoms: C8_8  and  O9_9 
REMARK    3  A    between atoms: C10_11  and  O11_12 
REMARK    4  A    between atoms: C16_18  and  O17_19 
REMARK    5  A    between atoms: C19_22  and  O20_23 
ROOT
HETATM    1  O1          0      19.195  -5.549  33.059  1.00  0.00    -0.286 OA
HETATM    2  C2          0      18.418  -6.427  33.525  1.00  0.00     0.201 C 
HETATM    3  C3          0      17.114  -6.585  33.086  1.00  0.00     0.067 C 
HETATM    4  C4          0      16.248  -7.491  33.687  1.00  0.00     0.103 C 
HETATM    5  O13         0      16.695  -8.229  34.687  1.00  0.00    -0.307 OA
HETATM    6  C14         0      17.912  -8.092  35.167  1.00  0.00     0.107 C 
HETATM    7  C15         0      18.255  -8.550  36.431  1.00  0.00     0.049 C 
HETATM    8  C16         0      19.453  -8.183  37.032  1.00  0.00     0.093 C 
HETATM    9  C18         0      20.463  -7.818  36.150  1.00  0.00     0.048 C 
HETATM   10  C19         0      20.159  -7.399  34.862  1.00  0.00     0.096 C 
HETATM   11  C21         0      18.854  -7.362  34.451  1.00  0.00     0.084 C 
ENDROOT
BRANCH  10  12
HETATM   12  O20         0      21.087  -6.641  34.155  1.00  0.00    -0.359 OA
HETATM   13  H20         0      21.183  -5.725  34.388  1.00  0.00     0.218 HD
ENDBRANCH  10  12
BRANCH   4  14
HETATM   14  C5          0      14.816  -7.198  33.612  1.00  0.00     0.025 C 
HETATM   15  C6          0      13.906  -7.649  34.558  1.00  0.00     0.004 C 
HETATM   16  C7          0      12.874  -6.789  34.920  1.00  0.00     0.026 C 
HETATM   17  C8          0      12.671  -5.577  34.269  1.00  0.00     0.112 C 
HETATM   18  C10         0      13.195  -5.515  32.984  1.00  0.00     0.112 C 
HETATM   19  C12         0      14.282  -6.323  32.675  1.00  0.00     0.028 C 
BRANCH  17  20
HETATM   20  O9          0      12.177  -4.480  34.951  1.00  0.00    -0.357 OA
HETATM   21  H9          0      12.674  -3.684  35.103  1.00  0.00     0.218 HD
ENDBRANCH  17  20
BRANCH  18  22
HETATM   22  O11         0      12.861  -4.404  32.223  1.00  0.00    -0.357 OA
HETATM   23  H11         0      11.952  -4.322  31.959  1.00  0.00     0.218 HD
ENDBRANCH  18  22
ENDBRANCH   4  14
BRANCH   8  24
HETATM   24  O17         0      19.523  -7.881  38.396  1.00  0.00    -0.359 OA
HETATM   25  H17         0      20.346  -7.666  38.818  1.00  0.00     0.218 HD
ENDBRANCH   8  24
TORSDOF 5
ENDMDL
MODEL 7
REMARK VINA RESULT:       0.0      7.631     10.403
REMARK  5 active torsions:
REMARK  status: ('A' for Active; 'I' for Inactive)
REMARK    1  A    between atoms: C4_4  and  C5_5 
REMARK    2  A    between atoms: C8_8  and  O9_9 
REMARK    3  A    between atoms: C10_11  and  O11_12 
REMARK    4  A    between atoms: C16_18  and  O17_19 
REMARK    5  A    between atoms: C19_22  and  O20_23 
ROOT
HETATM    1  O1          0      20.916   6.068  34.045  1.00  0.00    -0.286 OA
HETATM    2  C2          0      21.352   4.982  34.516  1.00  0.00     0.201 C 
HETATM    3  C3          0      22.700   4.738  34.717  1.00  0.00     0.067 C 
HETATM    4  C4          0      23.161   3.497  35.140  1.00  0.00     0.103 C 
HETATM    5  O13         0      22.281   2.539  35.373  1.00  0.00    -0.307 OA
HETATM    6  C14         0      20.994   2.705  35.163  1.00  0.00     0.107 C 
HETATM    7  C15         0      20.132   1.629  35.016  1.00  0.00     0.049 C 
HETATM    8  C16         0      18.836   1.801  34.545  1.00  0.00     0.093 C 
HETATM    9  C18         0      18.303   3.069  34.743  1.00  0.00     0.048 C 
HETATM   10  C19         0      19.136   4.161  34.940  1.00  0.00     0.096 C 
HETATM   11  C21         0      20.493   3.986  34.955  1.00  0.00     0.084 C 
ENDROOT
BRANCH  10  12
HETATM   12  O20         0      18.646   5.442  34.702  1.00  0.00    -0.359 OA
HETATM   13  H20         0      18.181   5.597  33.889  1.00  0.00     0.218 HD
ENDBRANCH  10  12
BRANCH   4  14
HETATM   14  C5          0      24.525   3.124  34.761  1.00  0.00     0.025 C 
HETATM   15  C6          0      24.932   1.805  34.620  1.00  0.00     0.004 C 
HETATM   16  C7          0      25.813   1.510  33.584  1.00  0.00     0.026 C 
HETATM   17  C8          0      26.376   2.510  32.798  1.00  0.00     0.112 C 
HETATM   18  C10         0      26.418   3.763  33.396  1.00  0.00     0.112 C 
HETATM   19  C12         0      25.472   4.062  34.369  1.00  0.00     0.028 C 
BRANCH  17  20
HETATM   20  O9          0      26.662   2.286  31.463  1.00  0.00    -0.357 OA
HETATM   21  H9          0      26.055   2.469  30.755  1.00  0.00     0.218 HD
ENDBRANCH  17  20
BRANCH  18  22
HETATM   22  O11         0      27.136   4.750  32.737  1.00  0.00    -0.357 OA
HETATM   23  H11         0      26.711   5.594  32.633  1.00  0.00     0.218 HD
ENDBRANCH  18  22
ENDBRANCH   4  14
BRANCH   8  24
HETATM   24  O17         0      18.257   0.890  33.654  1.00  0.00    -0.359 OA
HETATM   25  H17         0      17.544   0.320  33.917  1.00  0.00     0.218 HD
ENDBRANCH   8  24
TORSDOF 5
ENDMDL
MODEL 8
REMARK VINA RESULT:       0.0      8.432     10.936
REMARK  5 active torsions:
REMARK  status: ('A' for Active; 'I' for Inactive)
REMARK    1  A    between atoms: C4_4  and  C5_5 
REMARK    2  A    between atoms: C8_8  and  O9_9 
REMARK    3  A    between atoms: C10_11  and  O11_12 
REMARK    4  A    between atoms: C16_18  and  O17_19 
REMARK    5  A    between atoms: C19_22  and  O20_23 
ROOT
HETATM    1  O1          0      11.720  -1.527  41.486  1.00  0.00    -0.286 OA
HETATM    2  C2          0      12.905  -1.565  41.052  1.00  0.00     0.201 C 
HETATM    3  C3          0      13.208  -1.733  39.712  1.00  0.00     0.067 C 
HETATM    4  C4          0      14.520  -1.875  39.274  1.00  0.00     0.103 C 
HETATM    5  O13         0      15.495  -1.826  40.165  1.00  0.00    -0.307 OA
HETATM    6  C14         0      15.260  -1.706  41.453  1.00  0.00     0.107 C 
HETATM    7  C15         0      16.209  -2.050  42.404  1.00  0.00     0.049 C 
HETATM    8  C16         0      15.875  -2.165  43.748  1.00  0.00     0.093 C 
HETATM    9  C18         0      14.763  -1.431  44.141  1.00  0.00     0.048 C 
HETATM   10  C19         0      13.816  -1.030  43.208  1.00  0.00     0.096 C 
HETATM   11  C21         0      13.989  -1.345  41.888  1.00  0.00     0.084 C 
ENDROOT
BRANCH  10  12
HETATM   12  O20         0      12.535  -0.699  43.637  1.00  0.00    -0.359 OA
HETATM   13  H20         0      12.450  -0.048  44.324  1.00  0.00     0.218 HD
ENDBRANCH  10  12
BRANCH   4  14
HETATM   14  C5          0      14.735  -2.622  38.034  1.00  0.00     0.025 C 
HETATM   15  C6          0      15.914  -3.297  37.757  1.00  0.00     0.004 C 
HETATM   16  C7          0      15.818  -4.522  37.105  1.00  0.00     0.026 C 
HETATM   17  C8          0      14.604  -4.999  36.623  1.00  0.00     0.112 C 
HETATM   18  C10         0      13.651  -4.018  36.381  1.00  0.00     0.112 C 
HETATM   19  C12         0      13.721  -2.836  37.108  1.00  0.00     0.028 C 
BRANCH  17  20
HETATM   20  O9          0      14.332  -6.355  36.603  1.00  0.00    -0.357 OA
HETATM   21  H9          0      14.434  -6.903  35.833  1.00  0.00     0.218 HD
ENDBRANCH  17  20
BRANCH  18  22
HETATM   22  O11         0      12.494  -4.414  35.725  1.00  0.00    -0.357 OA
HETATM   23  H11         0      11.828  -4.842  36.249  1.00  0.00     0.218 HD
ENDBRANCH  18  22
ENDBRANCH   4  14
BRANCH   8  24
HETATM   24  O17         0      16.402  -3.187  44.546  1.00  0.00    -0.359 OA
HETATM   25  H17         0      17.331  -3.385  44.555  1.00  0.00     0.218 HD
ENDBRANCH   8  24
TORSDOF 5
ENDMDL
MODEL 9
REMARK VINA RESULT:       0.0      6.998     10.053
REMARK  5 active torsions:
REMARK  status: ('A' for Active; 'I' for Inactive)
REMARK    1  A    between atoms: C4_4  and  C5_5 
REMARK    2  A    between atoms: C8_8  and  O9_9 
REMARK    3  A    between atoms: C10_11  and  O11_12 
REMARK    4  A    between atoms: C16_18  and  O17_19 
REMARK    5  A    between atoms: C19_22  and  O20_23 
ROOT
HETATM    1  O1          0      11.720  -1.527  41.486  1.00  0.00    -0.286 OA
HETATM    2  C2          0      12.855  -0.997  41.645  1.00  0.00     0.201 C 
HETATM    3  C3          0      13.674  -0.647  40.586  1.00  0.00     0.067 C 
HETATM    4  C4          0      14.961  -0.161  40.790  1.00  0.00     0.103 C 
HETATM    5  O13         0      15.394  -0.014  42.029  1.00  0.00    -0.307 OA
HETATM    6  C14         0      14.671  -0.366  43.069  1.00  0.00     0.107 C 
HETATM    7  C15         0      15.242  -0.593  44.313  1.00  0.00     0.049 C 
HETATM    8  C16         0      14.526  -1.205  45.335  1.00  0.00     0.093 C 
HETATM    9  C18         0      13.145  -1.082  45.239  1.00  0.00     0.048 C 
HETATM   10  C19         0      12.544  -0.809  44.018  1.00  0.00     0.096 C 
HETATM   11  C21         0      13.319  -0.643  42.902  1.00  0.00     0.084 C 
ENDROOT
BRANCH  10  12
HETATM   12  O20         0      11.199  -1.114  43.839  1.00  0.00    -0.359 OA
HETATM   13  H20         0      10.576  -0.769  44.467  1.00  0.00     0.218 HD
ENDBRANCH  10  12
BRANCH   4  14
HETATM   14  C5          0      15.938  -0.383  39.722  1.00  0.00     0.025 C 
HETATM   15  C6          0      17.303  -0.463  39.957  1.00  0.00     0.004 C 
HETATM   16  C7          0      18.030  -1.393  39.221  1.00  0.00     0.026 C 
HETATM   17  C8          0      17.448  -2.124  38.191  1.00  0.00     0.112 C 
HETATM   18  C10         0      16.319  -1.541  37.632  1.00  0.00     0.112 C 
HETATM   19  C12         0      15.562  -0.681  38.419  1.00  0.00     0.028 C 
BRANCH  17  20
HETATM   20  O9          0      17.859  -3.417  37.919  1.00  0.00    -0.357 OA
HETATM   21  H9          0      18.303  -3.672  37.119  1.00  0.00     0.218 HD
ENDBRANCH  17  20
BRANCH  18  22
HETATM   22  O11         0      15.811  -2.129  36.483  1.00  0.00    -0.357 OA
HETATM   23  H11         0      16.442  -2.456  35.852  1.00  0.00     0.218 HD
ENDBRANCH  18  22
ENDBRANCH   4  14
BRANCH   8  24
HETATM   24  O17         0      15.124  -2.143  46.184  1.00  0.00    -0.359 OA
HETATM   25  H17         0      15.961  -1.976  46.601  1.00  0.00     0.218 HD
ENDBRANCH   8  24
TORSDOF 5
ENDMDL
