MODEL 1
REMARK VINA RESULT:      -0.0      0.000      0.000
REMARK  5 active torsions:
REMARK  status: ('A' for Active; 'I' for Inactive)
REMARK    1  A    between atoms: C4_4  and  C5_5 
REMARK    2  A    between atoms: C8_8  and  O9_9 
REMARK    3  A    between atoms: C10_11  and  O11_12 
REMARK    4  A    between atoms: C16_18  and  O17_19 
REMARK    5  A    between atoms: C19_22  and  O20_23 
ROOT
HETATM    1  O1          0      10.699 111.761  27.895  1.00  0.00    -0.286 OA
HETATM    2  C2          0      10.450 112.372  28.971  1.00  0.00     0.201 C 
HETATM    3  C3          0       9.235 112.988  29.219  1.00  0.00     0.067 C 
HETATM    4  C4          0       9.022 113.741  30.368  1.00  0.00     0.103 C 
HETATM    5  O13         0      10.002 113.849  31.247  1.00  0.00    -0.307 OA
HETATM    6  C14         0      11.186 113.316  31.043  1.00  0.00     0.107 C 
HETATM    7  C15         0      12.310 113.745  31.734  1.00  0.00     0.049 C 
HETATM    8  C16         0      13.588 113.366  31.341  1.00  0.00     0.093 C 
HETATM    9  C18         0      13.652 112.180  30.620  1.00  0.00     0.048 C 
HETATM   10  C19         0      12.533 111.697  29.954  1.00  0.00     0.096 C 
HETATM   11  C21         0      11.353 112.386  30.022  1.00  0.00     0.084 C 
ENDROOT
BRANCH  10  12
HETATM   12  O20         0      12.700 110.791  28.911  1.00  0.00    -0.359 OA
HETATM   13  H20         0      12.393 109.902  29.041  1.00  0.00     0.218 HD
ENDBRANCH  10  12
BRANCH   4  14
HETATM   14  C5          0       8.021 114.807  30.294  1.00  0.00     0.025 C 
HETATM   15  C6          0       8.065 115.938  31.097  1.00  0.00     0.004 C 
HETATM   16  C7          0       7.698 117.151  30.523  1.00  0.00     0.026 C 
HETATM   17  C8          0       7.175 117.221  29.236  1.00  0.00     0.112 C 
HETATM   18  C10         0       6.593 116.045  28.783  1.00  0.00     0.112 C 
HETATM   19  C12         0       7.039 114.840  29.312  1.00  0.00     0.028 C 
BRANCH  17  20
HETATM   20  O9          0       7.424 118.316  28.429  1.00  0.00    -0.357 OA
HETATM   21  H9          0       8.124 118.351  27.787  1.00  0.00     0.218 HD
ENDBRANCH  17  20
BRANCH  18  22
HETATM   22  O11         0       5.892 116.111  27.587  1.00  0.00    -0.357 OA
HETATM   23  H11         0       6.404 116.220  26.794  1.00  0.00     0.218 HD
ENDBRANCH  18  22
ENDBRANCH   4  14
BRANCH   8  24
HETATM   24  O17         0      14.658 114.267  31.372  1.00  0.00    -0.359 OA
HETATM   25  H17         0      15.558 113.977  31.276  1.00  0.00     0.218 HD
ENDBRANCH   8  24
TORSDOF 5
ENDMDL
MODEL 2
REMARK VINA RESULT:       0.0      8.227      9.531
REMARK  5 active torsions:
REMARK  status: ('A' for Active; 'I' for Inactive)
REMARK    1  A    between atoms: C4_4  and  C5_5 
REMARK    2  A    between atoms: C8_8  and  O9_9 
REMARK    3  A    between atoms: C10_11  and  O11_12 
REMARK    4  A    between atoms: C16_18  and  O17_19 
REMARK    5  A    between atoms: C19_22  and  O20_23 
ROOT
HETATM    1  O1          0      11.711 120.463  27.708  1.00  0.00    -0.286 OA
HETATM    2  C2          0      12.413 120.631  26.673  1.00  0.00     0.201 C 
HETATM    3  C3          0      12.314 121.757  25.874  1.00  0.00     0.067 C 
HETATM    4  C4          0      13.024 121.871  24.684  1.00  0.00     0.103 C 
HETATM    5  O13         0      13.825 120.883  24.326  1.00  0.00    -0.307 OA
HETATM    6  C14         0      13.928 119.776  25.029  1.00  0.00     0.107 C 
HETATM    7  C15         0      14.431 118.606  24.480  1.00  0.00     0.049 C 
HETATM    8  C16         0      14.303 117.387  25.136  1.00  0.00     0.093 C 
HETATM    9  C18         0      14.154 117.476  26.515  1.00  0.00     0.048 C 
HETATM   10  C19         0      13.697 118.648  27.102  1.00  0.00     0.096 C 
HETATM   11  C21         0      13.406 119.731  26.317  1.00  0.00     0.084 C 
ENDROOT
BRANCH  10  12
HETATM   12  O20         0      13.145 118.600  28.378  1.00  0.00    -0.359 OA
HETATM   13  H20         0      12.465 119.227  28.593  1.00  0.00     0.218 HD
ENDBRANCH  10  12
BRANCH   4  14
HETATM   14  C5          0      12.454 122.728  23.643  1.00  0.00     0.025 C 
HETATM   15  C6          0      12.705 122.538  22.292  1.00  0.00     0.004 C 
HETATM   16  C7          0      11.654 122.750  21.405  1.00  0.00     0.026 C 
HETATM   17  C8          0      10.433 123.262  21.830  1.00  0.00     0.112 C 
HETATM   18  C10         0      10.489 123.990  23.010  1.00  0.00     0.112 C 
HETATM   19  C12         0      11.500 123.700  23.918  1.00  0.00     0.028 C 
BRANCH  17  20
HETATM   20  O9          0       9.252 122.877  21.219  1.00  0.00    -0.357 OA
HETATM   21  H9          0       8.455 123.393  21.240  1.00  0.00     0.218 HD
ENDBRANCH  17  20
BRANCH  18  22
HETATM   22  O11         0       9.342 124.679  23.378  1.00  0.00    -0.357 OA
HETATM   23  H11         0       8.593 124.609  22.798  1.00  0.00     0.218 HD
ENDBRANCH  18  22
ENDBRANCH   4  14
BRANCH   8  24
HETATM   24  O17         0      14.006 116.211  24.439  1.00  0.00    -0.359 OA
HETATM   25  H17         0      14.588 115.867  23.771  1.00  0.00     0.218 HD
ENDBRANCH   8  24
TORSDOF 5
ENDMDL
MODEL 3
REMARK VINA RESULT:       0.0      6.788      9.508
REMARK  5 active torsions:
REMARK  status: ('A' for Active; 'I' for Inactive)
REMARK    1  A    between atoms: C4_4  and  C5_5 
REMARK    2  A    between atoms: C8_8  and  O9_9 
REMARK    3  A    between atoms: C10_11  and  O11_12 
REMARK    4  A    between atoms: C16_18  and  O17_19 
REMARK    5  A    between atoms: C19_22  and  O20_23 
ROOT
HETATM    1  O1          0      13.328 118.462  33.503  1.00  0.00    -0.286 OA
HETATM    2  C2          0      13.167 119.013  32.380  1.00  0.00     0.201 C 
HETATM    3  C3          0      14.184 119.129  31.448  1.00  0.00     0.067 C 
HETATM    4  C4          0      14.007 119.832  30.261  1.00  0.00     0.103 C 
HETATM    5  O13         0      12.831 120.381  30.018  1.00  0.00    -0.307 OA
HETATM    6  C14         0      11.844 120.334  30.885  1.00  0.00     0.107 C 
HETATM    7  C15         0      10.777 121.218  30.828  1.00  0.00     0.049 C 
HETATM    8  C16         0       9.877 121.333  31.881  1.00  0.00     0.093 C 
HETATM    9  C18         0       9.778 120.209  32.693  1.00  0.00     0.048 C 
HETATM   10  C19         0      10.808 119.280  32.739  1.00  0.00     0.096 C 
HETATM   11  C21         0      11.922 119.461  31.966  1.00  0.00     0.084 C 
ENDROOT
BRANCH  10  12
HETATM   12  O20         0      10.906 118.427  33.834  1.00  0.00    -0.359 OA
HETATM   13  H20         0      10.147 118.337  34.398  1.00  0.00     0.218 HD
ENDBRANCH  10  12
BRANCH   4  14
HETATM   14  C5          0      15.200 120.417  29.646  1.00  0.00     0.025 C 
HETATM   15  C6          0      15.152 121.538  28.830  1.00  0.00     0.004 C 
HETATM   16  C7          0      16.185 122.463  28.944  1.00  0.00     0.026 C 
HETATM   17  C8          0      17.297 122.221  29.743  1.00  0.00     0.112 C 
HETATM   18  C10         0      17.550 120.878  29.991  1.00  0.00     0.112 C 
HETATM   19  C12         0      16.484 119.987  29.955  1.00  0.00     0.028 C 
BRANCH  17  20
HETATM   20  O9          0      17.943 123.257  30.392  1.00  0.00    -0.357 OA
HETATM   21  H9          0      17.509 124.053  30.679  1.00  0.00     0.218 HD
ENDBRANCH  17  20
BRANCH  18  22
HETATM   22  O11         0      18.748 120.571  30.621  1.00  0.00    -0.357 OA
HETATM   23  H11         0      18.787 119.746  31.091  1.00  0.00     0.218 HD
ENDBRANCH  18  22
ENDBRANCH   4  14
BRANCH   8  24
HETATM   24  O17         0       9.377 122.577  32.282  1.00  0.00    -0.359 OA
HETATM   25  H17         0       9.155 123.252  31.651  1.00  0.00     0.218 HD
ENDBRANCH   8  24
TORSDOF 5
ENDMDL
MODEL 4
REMARK VINA RESULT:       0.0      9.735     11.623
REMARK  5 active torsions:
REMARK  status: ('A' for Active; 'I' for Inactive)
REMARK    1  A    between atoms: C4_4  and  C5_5 
REMARK    2  A    between atoms: C8_8  and  O9_9 
REMARK    3  A    between atoms: C10_11  and  O11_12 
REMARK    4  A    between atoms: C16_18  and  O17_19 
REMARK    5  A    between atoms: C19_22  and  O20_23 
ROOT
HETATM    1  O1          0       9.050 123.090  29.685  1.00  0.00    -0.286 OA
HETATM    2  C2          0       7.963 123.708  29.848  1.00  0.00     0.201 C 
HETATM    3  C3          0       6.727 123.095  29.732  1.00  0.00     0.067 C 
HETATM    4  C4          0       5.543 123.819  29.816  1.00  0.00     0.103 C 
HETATM    5  O13         0       5.610 125.121  30.032  1.00  0.00    -0.307 OA
HETATM    6  C14         0       6.757 125.758  30.112  1.00  0.00     0.107 C 
HETATM    7  C15         0       6.844 127.132  29.937  1.00  0.00     0.049 C 
HETATM    8  C16         0       8.072 127.762  29.769  1.00  0.00     0.093 C 
HETATM    9  C18         0       9.159 127.080  30.303  1.00  0.00     0.048 C 
HETATM   10  C19         0       9.090 125.713  30.535  1.00  0.00     0.096 C 
HETATM   11  C21         0       7.936 125.034  30.252  1.00  0.00     0.084 C 
ENDROOT
BRANCH  10  12
HETATM   12  O20         0      10.268 124.981  30.643  1.00  0.00    -0.359 OA
HETATM   13  H20         0      11.089 125.458  30.656  1.00  0.00     0.218 HD
ENDBRANCH  10  12
BRANCH   4  14
HETATM   14  C5          0       4.377 123.280  29.115  1.00  0.00     0.025 C 
HETATM   15  C6          0       3.342 124.079  28.651  1.00  0.00     0.004 C 
HETATM   16  C7          0       2.771 123.748  27.426  1.00  0.00     0.026 C 
HETATM   17  C8          0       3.122 122.585  26.748  1.00  0.00     0.112 C 
HETATM   18  C10         0       3.649 121.583  27.552  1.00  0.00     0.112 C 
HETATM   19  C12         0       4.290 121.948  28.729  1.00  0.00     0.028 C 
BRANCH  17  20
HETATM   20  O9          0       3.132 122.547  25.365  1.00  0.00    -0.357 OA
HETATM   21  H9          0       2.352 122.635  24.829  1.00  0.00     0.218 HD
ENDBRANCH  17  20
BRANCH  18  22
HETATM   22  O11         0       3.839 120.341  26.963  1.00  0.00    -0.357 OA
HETATM   23  H11         0       3.990 119.606  27.547  1.00  0.00     0.218 HD
ENDBRANCH  18  22
ENDBRANCH   4  14
BRANCH   8  24
HETATM   24  O17         0       8.236 128.807  28.853  1.00  0.00    -0.359 OA
HETATM   25  H17         0       8.141 128.671  27.918  1.00  0.00     0.218 HD
ENDBRANCH   8  24
TORSDOF 5
ENDMDL
MODEL 5
REMARK VINA RESULT:       0.0     10.286     11.914
REMARK  5 active torsions:
REMARK  status: ('A' for Active; 'I' for Inactive)
REMARK    1  A    between atoms: C4_4  and  C5_5 
REMARK    2  A    between atoms: C8_8  and  O9_9 
REMARK    3  A    between atoms: C10_11  and  O11_12 
REMARK    4  A    between atoms: C16_18  and  O17_19 
REMARK    5  A    between atoms: C19_22  and  O20_23 
ROOT
HETATM    1  O1          0       9.764 122.998  31.945  1.00  0.00    -0.286 OA
HETATM    2  C2          0       9.446 123.624  32.993  1.00  0.00     0.201 C 
HETATM    3  C3          0       8.177 123.567  33.545  1.00  0.00     0.067 C 
HETATM    4  C4          0       7.824 124.346  34.641  1.00  0.00     0.103 C 
HETATM    5  O13         0       8.735 125.142  35.174  1.00  0.00    -0.307 OA
HETATM    6  C14         0       9.942 125.261  34.666  1.00  0.00     0.107 C 
HETATM    7  C15         0      10.751 126.352  34.952  1.00  0.00     0.049 C 
HETATM    8  C16         0      11.908 126.602  34.225  1.00  0.00     0.093 C 
HETATM    9  C18         0      12.470 125.488  33.614  1.00  0.00     0.048 C 
HETATM   10  C19         0      11.701 124.362  33.356  1.00  0.00     0.096 C 
HETATM   11  C21         0      10.383 124.342  33.720  1.00  0.00     0.084 C 
ENDROOT
BRANCH  10  12
HETATM   12  O20         0      12.124 123.457  32.387  1.00  0.00    -0.359 OA
HETATM   13  H20         0      13.027 123.163  32.416  1.00  0.00     0.218 HD
ENDBRANCH  10  12
BRANCH   4  14
HETATM   14  C5          0       6.410 124.697  34.786  1.00  0.00     0.025 C 
HETATM   15  C6          0       5.983 125.840  35.445  1.00  0.00     0.004 C 
HETATM   16  C7          0       4.893 126.522  34.914  1.00  0.00     0.026 C 
HETATM   17  C8          0       4.167 126.014  33.842  1.00  0.00     0.112 C 
HETATM   18  C10         0       4.259 124.638  33.679  1.00  0.00     0.112 C 
HETATM   19  C12         0       5.399 123.993  34.145  1.00  0.00     0.028 C 
BRANCH  17  20
HETATM   20  O9          0       3.589 126.860  32.912  1.00  0.00    -0.357 OA
HETATM   21  H9          0       3.928 127.723  32.701  1.00  0.00     0.218 HD
ENDBRANCH  17  20
BRANCH  18  22
HETATM   22  O11         0       3.411 124.057  32.748  1.00  0.00    -0.357 OA
HETATM   23  H11         0       2.882 124.646  32.222  1.00  0.00     0.218 HD
ENDBRANCH  18  22
ENDBRANCH   4  14
BRANCH   8  24
HETATM   24  O17         0      12.273 127.903  33.862  1.00  0.00    -0.359 OA
HETATM   25  H17         0      13.172 128.205  33.922  1.00  0.00     0.218 HD
ENDBRANCH   8  24
TORSDOF 5
ENDMDL
MODEL 6
REMARK VINA RESULT:       0.0      5.834      7.559
REMARK  5 active torsions:
REMARK  status: ('A' for Active; 'I' for Inactive)
REMARK    1  A    between atoms: C4_4  and  C5_5 
REMARK    2  A    between atoms: C8_8  and  O9_9 
REMARK    3  A    between atoms: C10_11  and  O11_12 
REMARK    4  A    between atoms: C16_18  and  O17_19 
REMARK    5  A    between atoms: C19_22  and  O20_23 
ROOT
HETATM    1  O1          0       8.624 119.652  27.178  1.00  0.00    -0.286 OA
HETATM    2  C2          0       9.475 119.169  26.383  1.00  0.00     0.201 C 
HETATM    3  C3          0       9.385 119.311  25.009  1.00  0.00     0.067 C 
HETATM    4  C4          0      10.280 118.682  24.151  1.00  0.00     0.103 C 
HETATM    5  O13         0      11.249 117.949  24.670  1.00  0.00    -0.307 OA
HETATM    6  C14         0      11.358 117.750  25.966  1.00  0.00     0.107 C 
HETATM    7  C15         0      12.093 116.694  26.484  1.00  0.00     0.049 C 
HETATM    8  C16         0      11.998 116.338  27.824  1.00  0.00     0.093 C 
HETATM    9  C18         0      11.592 117.358  28.675  1.00  0.00     0.048 C 
HETATM   10  C19         0      10.895 118.453  28.182  1.00  0.00     0.096 C 
HETATM   11  C21         0      10.620 118.536  26.845  1.00  0.00     0.084 C 
ENDROOT
BRANCH  10  12
HETATM   12  O20         0      10.131 119.222  29.055  1.00  0.00    -0.359 OA
HETATM   13  H20         0      10.584 119.834  29.622  1.00  0.00     0.218 HD
ENDBRANCH  10  12
BRANCH   4  14
HETATM   14  C5          0       9.807 118.371  22.801  1.00  0.00     0.025 C 
HETATM   15  C6          0      10.321 117.327  22.046  1.00  0.00     0.004 C 
HETATM   16  C7          0       9.431 116.598  21.264  1.00  0.00     0.026 C 
HETATM   17  C8          0       8.099 116.975  21.130  1.00  0.00     0.112 C 
HETATM   18  C10         0       7.850 118.318  21.380  1.00  0.00     0.112 C 
HETATM   19  C12         0       8.707 119.002  22.234  1.00  0.00     0.028 C 
BRANCH  17  20
HETATM   20  O9          0       7.106 116.026  20.972  1.00  0.00    -0.357 OA
HETATM   21  H9          0       7.184 115.126  21.267  1.00  0.00     0.218 HD
ENDBRANCH  17  20
BRANCH  18  22
HETATM   22  O11         0       6.579 118.787  21.079  1.00  0.00    -0.357 OA
HETATM   23  H11         0       6.459 119.187  20.225  1.00  0.00     0.218 HD
ENDBRANCH  18  22
ENDBRANCH   4  14
BRANCH   8  24
HETATM   24  O17         0      11.981 114.997  28.223  1.00  0.00    -0.359 OA
HETATM   25  H17         0      11.831 114.747  29.127  1.00  0.00     0.218 HD
ENDBRANCH   8  24
TORSDOF 5
ENDMDL
MODEL 7
REMARK VINA RESULT:       0.0      4.478      7.404
REMARK  5 active torsions:
REMARK  status: ('A' for Active; 'I' for Inactive)
REMARK    1  A    between atoms: C4_4  and  C5_5 
REMARK    2  A    between atoms: C8_8  and  O9_9 
REMARK    3  A    between atoms: C10_11  and  O11_12 
REMARK    4  A    between atoms: C16_18  and  O17_19 
REMARK    5  A    between atoms: C19_22  and  O20_23 
ROOT
HETATM    1  O1          0      11.744 115.628  30.222  1.00  0.00    -0.286 OA
HETATM    2  C2          0      12.890 115.455  30.721  1.00  0.00     0.201 C 
HETATM    3  C3          0      14.055 115.556  29.980  1.00  0.00     0.067 C 
HETATM    4  C4          0      15.297 115.260  30.531  1.00  0.00     0.103 C 
HETATM    5  O13         0      15.358 114.896  31.800  1.00  0.00    -0.307 OA
HETATM    6  C14         0      14.279 114.749  32.538  1.00  0.00     0.107 C 
HETATM    7  C15         0      14.289 114.002  33.707  1.00  0.00     0.049 C 
HETATM    8  C16         0      13.108 113.639  34.341  1.00  0.00     0.093 C 
HETATM    9  C18         0      12.022 114.466  34.080  1.00  0.00     0.048 C 
HETATM   10  C19         0      12.000 115.262  32.943  1.00  0.00     0.096 C 
HETATM   11  C21         0      13.063 115.245  32.081  1.00  0.00     0.084 C 
ENDROOT
BRANCH  10  12
HETATM   12  O20         0      10.781 115.733  32.466  1.00  0.00    -0.359 OA
HETATM   13  H20         0      10.326 116.391  32.979  1.00  0.00     0.218 HD
ENDBRANCH  10  12
BRANCH   4  14
HETATM   14  C5          0      16.344 114.805  29.616  1.00  0.00     0.025 C 
HETATM   15  C6          0      17.393 113.991  30.019  1.00  0.00     0.004 C 
HETATM   16  C7          0      17.818 113.003  29.136  1.00  0.00     0.026 C 
HETATM   17  C8          0      17.311 112.912  27.844  1.00  0.00     0.112 C 
HETATM   18  C10         0      16.781 114.094  27.345  1.00  0.00     0.112 C 
HETATM   19  C12         0      16.285 115.028  28.246  1.00  0.00     0.028 C 
BRANCH  17  20
HETATM   20  O9          0      17.170 111.684  27.223  1.00  0.00    -0.357 OA
HETATM   21  H9          0      16.624 110.982  27.559  1.00  0.00     0.218 HD
ENDBRANCH  17  20
BRANCH  18  22
HETATM   22  O11         0      16.436 114.109  26.001  1.00  0.00    -0.357 OA
HETATM   23  H11         0      17.081 113.778  25.387  1.00  0.00     0.218 HD
ENDBRANCH  18  22
ENDBRANCH   4  14
BRANCH   8  24
HETATM   24  O17         0      12.945 112.370  34.910  1.00  0.00    -0.359 OA
HETATM   25  H17         0      13.541 112.041  35.572  1.00  0.00     0.218 HD
ENDBRANCH   8  24
TORSDOF 5
ENDMDL
MODEL 8
REMARK VINA RESULT:       0.0      7.015      8.061
REMARK  5 active torsions:
REMARK  status: ('A' for Active; 'I' for Inactive)
REMARK    1  A    between atoms: C4_4  and  C5_5 
REMARK    2  A    between atoms: C8_8  and  O9_9 
REMARK    3  A    between atoms: C10_11  and  O11_12 
REMARK    4  A    between atoms: C16_18  and  O17_19 
REMARK    5  A    between atoms: C19_22  and  O20_23 
ROOT
HETATM    1  O1          0       4.821 114.135  27.457  1.00  0.00    -0.286 OA
HETATM    2  C2          0       4.101 115.149  27.664  1.00  0.00     0.201 C 
HETATM    3  C3          0       4.095 116.250  26.825  1.00  0.00     0.067 C 
HETATM    4  C4          0       3.370 117.396  27.132  1.00  0.00     0.103 C 
HETATM    5  O13         0       2.656 117.418  28.243  1.00  0.00    -0.307 OA
HETATM    6  C14         0       2.656 116.414  29.093  1.00  0.00     0.107 C 
HETATM    7  C15         0       2.253 116.573  30.411  1.00  0.00     0.049 C 
HETATM    8  C16         0       2.493 115.588  31.362  1.00  0.00     0.093 C 
HETATM    9  C18         0       2.642 114.304  30.853  1.00  0.00     0.048 C 
HETATM   10  C19         0       2.998 114.108  29.526  1.00  0.00     0.096 C 
HETATM   11  C21         0       3.188 115.188  28.708  1.00  0.00     0.084 C 
ENDROOT
BRANCH  10  12
HETATM   12  O20         0       3.560 112.894  29.144  1.00  0.00    -0.359 OA
HETATM   13  H20         0       3.019 112.116  29.199  1.00  0.00     0.218 HD
ENDBRANCH  10  12
BRANCH   4  14
HETATM   14  C5          0       3.857 118.663  26.582  1.00  0.00     0.025 C 
HETATM   15  C6          0       3.614 119.888  27.187  1.00  0.00     0.004 C 
HETATM   16  C7          0       4.637 120.831  27.166  1.00  0.00     0.026 C 
HETATM   17  C8          0       5.811 120.618  26.453  1.00  0.00     0.112 C 
HETATM   18  C10         0       5.699 119.706  25.411  1.00  0.00     0.112 C 
HETATM   19  C12         0       4.723 118.721  25.498  1.00  0.00     0.028 C 
BRANCH  17  20
HETATM   20  O9          0       7.017 121.124  26.904  1.00  0.00    -0.357 OA
HETATM   21  H9          0       7.198 122.052  26.997  1.00  0.00     0.218 HD
ENDBRANCH  17  20
BRANCH  18  22
HETATM   22  O11         0       6.783 119.597  24.552  1.00  0.00    -0.357 OA
HETATM   23  H11         0       7.632 119.435  24.949  1.00  0.00     0.218 HD
ENDBRANCH  18  22
ENDBRANCH   4  14
BRANCH   8  24
HETATM   24  O17         0       2.886 115.913  32.665  1.00  0.00    -0.359 OA
HETATM   25  H17         0       3.160 115.247  33.285  1.00  0.00     0.218 HD
ENDBRANCH   8  24
TORSDOF 5
ENDMDL
MODEL 9
REMARK VINA RESULT:       0.0      3.276      5.338
REMARK  5 active torsions:
REMARK  status: ('A' for Active; 'I' for Inactive)
REMARK    1  A    between atoms: C4_4  and  C5_5 
REMARK    2  A    between atoms: C8_8  and  O9_9 
REMARK    3  A    between atoms: C10_11  and  O11_12 
REMARK    4  A    between atoms: C16_18  and  O17_19 
REMARK    5  A    between atoms: C19_22  and  O20_23 
ROOT
HETATM    1  O1          0       9.093 118.816  32.487  1.00  0.00    -0.286 OA
HETATM    2  C2          0       8.665 118.258  31.440  1.00  0.00     0.201 C 
HETATM    3  C3          0       7.322 118.213  31.109  1.00  0.00     0.067 C 
HETATM    4  C4          0       6.867 117.505  30.003  1.00  0.00     0.103 C 
HETATM    5  O13         0       7.749 116.878  29.244  1.00  0.00    -0.307 OA
HETATM    6  C14         0       9.031 116.858  29.534  1.00  0.00     0.107 C 
HETATM    7  C15         0       9.886 115.904  29.000  1.00  0.00     0.049 C 
HETATM    8  C16         0      11.171 115.727  29.499  1.00  0.00     0.093 C 
HETATM    9  C18         0      11.713 116.838  30.133  1.00  0.00     0.048 C 
HETATM   10  C19         0      10.888 117.834  30.638  1.00  0.00     0.096 C 
HETATM   11  C21         0       9.531 117.730  30.495  1.00  0.00     0.084 C 
ENDROOT
BRANCH  10  12
HETATM   12  O20         0      11.376 118.688  31.622  1.00  0.00    -0.359 OA
HETATM   13  H20         0      11.158 119.610  31.560  1.00  0.00     0.218 HD
ENDBRANCH  10  12
BRANCH   4  14
HETATM   14  C5          0       5.493 117.001  30.049  1.00  0.00     0.025 C 
HETATM   15  C6          0       5.078 115.883  29.341  1.00  0.00     0.004 C 
HETATM   16  C7          0       4.171 115.028  29.960  1.00  0.00     0.026 C 
HETATM   17  C8          0       3.593 115.341  31.185  1.00  0.00     0.112 C 
HETATM   18  C10         0       3.570 116.697  31.486  1.00  0.00     0.112 C 
HETATM   19  C12         0       4.540 117.515  30.919  1.00  0.00     0.028 C 
BRANCH  17  20
HETATM   20  O9          0       3.274 114.348  32.094  1.00  0.00    -0.357 OA
HETATM   21  H9          0       3.471 113.428  31.960  1.00  0.00     0.218 HD
ENDBRANCH  17  20
BRANCH  18  22
HETATM   22  O11         0       2.840 117.081  32.601  1.00  0.00    -0.357 OA
HETATM   23  H11         0       1.893 117.047  32.528  1.00  0.00     0.218 HD
ENDBRANCH  18  22
ENDBRANCH   4  14
BRANCH   8  24
HETATM   24  O17         0      11.725 114.451  29.649  1.00  0.00    -0.359 OA
HETATM   25  H17         0      11.813 114.042  30.502  1.00  0.00     0.218 HD
ENDBRANCH   8  24
TORSDOF 5
ENDMDL
