MODEL 1
REMARK VINA RESULT:      -4.3      0.000      0.000
REMARK  5 active torsions:
REMARK  status: ('A' for Active; 'I' for Inactive)
REMARK    1  A    between atoms: C4_4  and  C5_5 
REMARK    2  A    between atoms: C8_8  and  O9_9 
REMARK    3  A    between atoms: C10_11  and  O11_12 
REMARK    4  A    between atoms: C16_18  and  O17_19 
REMARK    5  A    between atoms: C19_22  and  O20_23 
ROOT
HETATM    1  O1          0      42.206  44.866 -21.129  1.00  0.00    -0.286 OA
HETATM    2  C2          0      43.055  44.826 -22.061  1.00  0.00     0.201 C 
HETATM    3  C3          0      44.257  45.512 -22.012  1.00  0.00     0.067 C 
HETATM    4  C4          0      45.129  45.534 -23.094  1.00  0.00     0.103 C 
HETATM    5  O13         0      44.803  44.862 -24.185  1.00  0.00    -0.307 OA
HETATM    6  C14         0      43.658  44.225 -24.298  1.00  0.00     0.107 C 
HETATM    7  C15         0      43.138  43.870 -25.534  1.00  0.00     0.049 C 
HETATM    8  C16         0      41.826  43.431 -25.666  1.00  0.00     0.093 C 
HETATM    9  C18         0      41.274  42.876 -24.518  1.00  0.00     0.048 C 
HETATM   10  C19         0      41.800  43.174 -23.268  1.00  0.00     0.096 C 
HETATM   11  C21         0      42.880  44.007 -23.166  1.00  0.00     0.084 C 
ENDROOT
BRANCH  10  12
HETATM   12  O20         0      41.011  42.986 -22.137  1.00  0.00    -0.359 OA
HETATM   13  H20         0      40.068  42.977 -22.248  1.00  0.00     0.218 HD
ENDBRANCH  10  12
BRANCH   4  14
HETATM   14  C5          0      46.014  46.693 -23.218  1.00  0.00     0.025 C 
HETATM   15  C6          0      45.544  47.976 -23.456  1.00  0.00     0.004 C 
HETATM   16  C7          0      46.183  49.027 -22.806  1.00  0.00     0.026 C 
HETATM   17  C8          0      47.334  48.826 -22.051  1.00  0.00     0.112 C 
HETATM   18  C10         0      48.056  47.689 -22.387  1.00  0.00     0.112 C 
HETATM   19  C12         0      47.377  46.620 -22.958  1.00  0.00     0.028 C 
BRANCH  17  20
HETATM   20  O9          0      47.590  49.596 -20.930  1.00  0.00    -0.357 OA
HETATM   21  H9          0      47.057  50.336 -20.665  1.00  0.00     0.218 HD
ENDBRANCH  17  20
BRANCH  18  22
HETATM   22  O11         0      49.305  47.541 -21.800  1.00  0.00    -0.357 OA
HETATM   23  H11         0      49.850  46.833 -22.122  1.00  0.00     0.218 HD
ENDBRANCH  18  22
ENDBRANCH   4  14
BRANCH   8  24
HETATM   24  O17         0      41.031  43.826 -26.748  1.00  0.00    -0.359 OA
HETATM   25  H17         0      40.676  44.705 -26.812  1.00  0.00     0.218 HD
ENDBRANCH   8  24
TORSDOF 5
ENDMDL
MODEL 2
REMARK VINA RESULT:      -4.1      1.804      6.628
REMARK  5 active torsions:
REMARK  status: ('A' for Active; 'I' for Inactive)
REMARK    1  A    between atoms: C4_4  and  C5_5 
REMARK    2  A    between atoms: C8_8  and  O9_9 
REMARK    3  A    between atoms: C10_11  and  O11_12 
REMARK    4  A    between atoms: C16_18  and  O17_19 
REMARK    5  A    between atoms: C19_22  and  O20_23 
ROOT
HETATM    1  O1          0      48.268  45.932 -21.399  1.00  0.00    -0.286 OA
HETATM    2  C2          0      47.071  46.127 -21.746  1.00  0.00     0.201 C 
HETATM    3  C3          0      46.060  45.214 -21.498  1.00  0.00     0.067 C 
HETATM    4  C4          0      44.770  45.406 -21.981  1.00  0.00     0.103 C 
HETATM    5  O13         0      44.509  46.499 -22.675  1.00  0.00    -0.307 OA
HETATM    6  C14         0      45.440  47.379 -22.970  1.00  0.00     0.107 C 
HETATM    7  C15         0      45.282  48.292 -24.003  1.00  0.00     0.049 C 
HETATM    8  C16         0      46.354  49.040 -24.475  1.00  0.00     0.093 C 
HETATM    9  C18         0      47.387  49.226 -23.564  1.00  0.00     0.048 C 
HETATM   10  C19         0      47.546  48.359 -22.492  1.00  0.00     0.096 C 
HETATM   11  C21         0      46.668  47.322 -22.321  1.00  0.00     0.084 C 
ENDROOT
BRANCH  10  12
HETATM   12  O20         0      48.783  48.277 -21.860  1.00  0.00    -0.359 OA
HETATM   13  H20         0      48.865  48.652 -20.992  1.00  0.00     0.218 HD
ENDBRANCH  10  12
BRANCH   4  14
HETATM   14  C5          0      43.958  44.210 -22.217  1.00  0.00     0.025 C 
HETATM   15  C6          0      44.112  43.041 -21.487  1.00  0.00     0.004 C 
HETATM   16  C7          0      42.962  42.331 -21.156  1.00  0.00     0.026 C 
HETATM   17  C8          0      41.713  42.697 -21.646  1.00  0.00     0.112 C 
HETATM   18  C10         0      41.746  43.439 -22.819  1.00  0.00     0.112 C 
HETATM   19  C12         0      42.874  44.206 -23.084  1.00  0.00     0.028 C 
BRANCH  17  20
HETATM   20  O9          0      40.571  42.504 -20.890  1.00  0.00    -0.357 OA
HETATM   21  H9          0      40.375  41.699 -20.426  1.00  0.00     0.218 HD
ENDBRANCH  17  20
BRANCH  18  22
HETATM   22  O11         0      40.532  43.668 -23.452  1.00  0.00    -0.357 OA
HETATM   23  H11         0      40.043  42.903 -23.734  1.00  0.00     0.218 HD
ENDBRANCH  18  22
ENDBRANCH   4  14
BRANCH   8  24
HETATM   24  O17         0      46.525  49.288 -25.842  1.00  0.00    -0.359 OA
HETATM   25  H17         0      46.256  50.108 -26.238  1.00  0.00     0.218 HD
ENDBRANCH   8  24
TORSDOF 5
ENDMDL
MODEL 3
REMARK VINA RESULT:      -4.0      2.322      6.781
REMARK  5 active torsions:
REMARK  status: ('A' for Active; 'I' for Inactive)
REMARK    1  A    between atoms: C4_4  and  C5_5 
REMARK    2  A    between atoms: C8_8  and  O9_9 
REMARK    3  A    between atoms: C10_11  and  O11_12 
REMARK    4  A    between atoms: C16_18  and  O17_19 
REMARK    5  A    between atoms: C19_22  and  O20_23 
ROOT
HETATM    1  O1          0      46.418  44.682 -21.948  1.00  0.00    -0.286 OA
HETATM    2  C2          0      45.714  45.430 -22.681  1.00  0.00     0.201 C 
HETATM    3  C3          0      44.813  44.938 -23.609  1.00  0.00     0.067 C 
HETATM    4  C4          0      44.126  45.780 -24.476  1.00  0.00     0.103 C 
HETATM    5  O13         0      44.330  47.083 -24.389  1.00  0.00    -0.307 OA
HETATM    6  C14         0      45.202  47.600 -23.551  1.00  0.00     0.107 C 
HETATM    7  C15         0      45.709  48.880 -23.722  1.00  0.00     0.049 C 
HETATM    8  C16         0      46.806  49.324 -22.994  1.00  0.00     0.093 C 
HETATM    9  C18         0      47.008  48.675 -21.782  1.00  0.00     0.048 C 
HETATM   10  C19         0      46.475  47.412 -21.560  1.00  0.00     0.096 C 
HETATM   11  C21         0      45.730  46.809 -22.537  1.00  0.00     0.084 C 
ENDROOT
BRANCH  10  12
HETATM   12  O20         0      47.023  46.607 -20.567  1.00  0.00    -0.359 OA
HETATM   13  H20         0      46.955  45.665 -20.669  1.00  0.00     0.218 HD
ENDBRANCH  10  12
BRANCH   4  14
HETATM   14  C5          0      43.697  45.218 -25.757  1.00  0.00     0.025 C 
HETATM   15  C6          0      44.074  43.954 -26.188  1.00  0.00     0.004 C 
HETATM   16  C7          0      43.126  43.195 -26.867  1.00  0.00     0.026 C 
HETATM   17  C8          0      41.890  43.722 -27.225  1.00  0.00     0.112 C 
HETATM   18  C10         0      41.857  45.106 -27.325  1.00  0.00     0.112 C 
HETATM   19  C12         0      42.760  45.845 -26.569  1.00  0.00     0.028 C 
BRANCH  17  20
HETATM   20  O9          0      40.762  42.922 -27.261  1.00  0.00    -0.357 OA
HETATM   21  H9          0      40.029  43.016 -26.663  1.00  0.00     0.218 HD
ENDBRANCH  17  20
BRANCH  18  22
HETATM   22  O11         0      40.707  45.671 -27.860  1.00  0.00    -0.357 OA
HETATM   23  H11         0      40.612  45.639 -28.805  1.00  0.00     0.218 HD
ENDBRANCH  18  22
ENDBRANCH   4  14
BRANCH   8  24
HETATM   24  O17         0      47.804  50.108 -23.583  1.00  0.00    -0.359 OA
HETATM   25  H17         0      48.600  50.336 -23.118  1.00  0.00     0.218 HD
ENDBRANCH   8  24
TORSDOF 5
ENDMDL
MODEL 4
REMARK VINA RESULT:      -3.7      1.553      2.859
REMARK  5 active torsions:
REMARK  status: ('A' for Active; 'I' for Inactive)
REMARK    1  A    between atoms: C4_4  and  C5_5 
REMARK    2  A    between atoms: C8_8  and  O9_9 
REMARK    3  A    between atoms: C10_11  and  O11_12 
REMARK    4  A    between atoms: C16_18  and  O17_19 
REMARK    5  A    between atoms: C19_22  and  O20_23 
ROOT
HETATM    1  O1          0      43.510  42.816 -25.523  1.00  0.00    -0.286 OA
HETATM    2  C2          0      43.506  43.648 -24.575  1.00  0.00     0.201 C 
HETATM    3  C3          0      44.167  44.863 -24.641  1.00  0.00     0.067 C 
HETATM    4  C4          0      44.233  45.717 -23.546  1.00  0.00     0.103 C 
HETATM    5  O13         0      43.630  45.361 -22.426  1.00  0.00    -0.307 OA
HETATM    6  C14         0      43.021  44.202 -22.298  1.00  0.00     0.107 C 
HETATM    7  C15         0      42.745  43.655 -21.053  1.00  0.00     0.049 C 
HETATM    8  C16         0      42.338  42.333 -20.920  1.00  0.00     0.093 C 
HETATM    9  C18         0      41.730  41.790 -22.045  1.00  0.00     0.048 C 
HETATM   10  C19         0      41.947  42.341 -23.301  1.00  0.00     0.096 C 
HETATM   11  C21         0      42.754  43.439 -23.429  1.00  0.00     0.084 C 
ENDROOT
BRANCH  10  12
HETATM   12  O20         0      41.711  41.569 -24.434  1.00  0.00    -0.359 OA
HETATM   13  H20         0      42.308  41.659 -25.167  1.00  0.00     0.218 HD
ENDBRANCH  10  12
BRANCH   4  14
HETATM   14  C5          0      45.381  46.623 -23.471  1.00  0.00     0.025 C 
HETATM   15  C6          0      45.297  47.972 -23.783  1.00  0.00     0.004 C 
HETATM   16  C7          0      46.028  48.861 -23.003  1.00  0.00     0.026 C 
HETATM   17  C8          0      46.919  48.417 -22.031  1.00  0.00     0.112 C 
HETATM   18  C10         0      47.394  47.127 -22.226  1.00  0.00     0.112 C 
HETATM   19  C12         0      46.603  46.233 -22.938  1.00  0.00     0.028 C 
BRANCH  17  20
HETATM   20  O9          0      47.123  49.143 -20.871  1.00  0.00    -0.357 OA
HETATM   21  H9          0      47.753  48.903 -20.202  1.00  0.00     0.218 HD
ENDBRANCH  17  20
BRANCH  18  22
HETATM   22  O11         0      48.423  46.704 -21.397  1.00  0.00    -0.357 OA
HETATM   23  H11         0      48.248  45.951 -20.844  1.00  0.00     0.218 HD
ENDBRANCH  18  22
ENDBRANCH   4  14
BRANCH   8  24
HETATM   24  O17         0      42.807  41.527 -19.876  1.00  0.00    -0.359 OA
HETATM   25  H17         0      42.438  40.669 -19.704  1.00  0.00     0.218 HD
ENDBRANCH   8  24
TORSDOF 5
ENDMDL
MODEL 5
REMARK VINA RESULT:      -3.7      3.058      5.277
REMARK  5 active torsions:
REMARK  status: ('A' for Active; 'I' for Inactive)
REMARK    1  A    between atoms: C4_4  and  C5_5 
REMARK    2  A    between atoms: C8_8  and  O9_9 
REMARK    3  A    between atoms: C10_11  and  O11_12 
REMARK    4  A    between atoms: C16_18  and  O17_19 
REMARK    5  A    between atoms: C19_22  and  O20_23 
ROOT
HETATM    1  O1          0      46.450  47.650 -21.537  1.00  0.00    -0.286 OA
HETATM    2  C2          0      45.825  47.090 -22.479  1.00  0.00     0.201 C 
HETATM    3  C3          0      45.794  47.598 -23.766  1.00  0.00     0.067 C 
HETATM    4  C4          0      45.014  47.018 -24.760  1.00  0.00     0.103 C 
HETATM    5  O13         0      44.304  45.944 -24.464  1.00  0.00    -0.307 OA
HETATM    6  C14         0      44.268  45.443 -23.248  1.00  0.00     0.107 C 
HETATM    7  C15         0      43.250  44.595 -22.837  1.00  0.00     0.049 C 
HETATM    8  C16         0      43.074  44.275 -21.496  1.00  0.00     0.093 C 
HETATM    9  C18         0      44.216  44.388 -20.711  1.00  0.00     0.048 C 
HETATM   10  C19         0      45.273  45.192 -21.116  1.00  0.00     0.096 C 
HETATM   11  C21         0      45.198  45.865 -22.304  1.00  0.00     0.084 C 
ENDROOT
BRANCH  10  12
HETATM   12  O20         0      46.187  45.642 -20.168  1.00  0.00    -0.359 OA
HETATM   13  H20         0      45.866  46.203 -19.472  1.00  0.00     0.218 HD
ENDBRANCH  10  12
BRANCH   4  14
HETATM   14  C5          0      44.557  47.887 -25.846  1.00  0.00     0.025 C 
HETATM   15  C6          0      44.875  47.659 -27.177  1.00  0.00     0.004 C 
HETATM   16  C7          0      43.891  47.915 -28.127  1.00  0.00     0.026 C 
HETATM   17  C8          0      42.680  48.505 -27.783  1.00  0.00     0.112 C 
HETATM   18  C10         0      42.711  49.251 -26.612  1.00  0.00     0.112 C 
HETATM   19  C12         0      43.649  48.918 -25.642  1.00  0.00     0.028 C 
BRANCH  17  20
HETATM   20  O9          0      41.516  48.179 -28.456  1.00  0.00    -0.357 OA
HETATM   21  H9          0      41.498  47.816 -29.334  1.00  0.00     0.218 HD
ENDBRANCH  17  20
BRANCH  18  22
HETATM   22  O11         0      41.588  50.012 -26.322  1.00  0.00    -0.357 OA
HETATM   23  H11         0      40.781  49.775 -26.765  1.00  0.00     0.218 HD
ENDBRANCH  18  22
ENDBRANCH   4  14
BRANCH   8  24
HETATM   24  O17         0      41.798  44.182 -20.929  1.00  0.00    -0.359 OA
HETATM   25  H17         0      41.479  43.373 -20.549  1.00  0.00     0.218 HD
ENDBRANCH   8  24
TORSDOF 5
ENDMDL
MODEL 6
REMARK VINA RESULT:      -3.7      1.689      6.523
REMARK  5 active torsions:
REMARK  status: ('A' for Active; 'I' for Inactive)
REMARK    1  A    between atoms: C4_4  and  C5_5 
REMARK    2  A    between atoms: C8_8  and  O9_9 
REMARK    3  A    between atoms: C10_11  and  O11_12 
REMARK    4  A    between atoms: C16_18  and  O17_19 
REMARK    5  A    between atoms: C19_22  and  O20_23 
ROOT
HETATM    1  O1          0      47.042  46.359 -20.928  1.00  0.00    -0.286 OA
HETATM    2  C2          0      46.123  46.513 -21.778  1.00  0.00     0.201 C 
HETATM    3  C3          0      45.186  45.532 -22.057  1.00  0.00     0.067 C 
HETATM    4  C4          0      44.247  45.688 -23.070  1.00  0.00     0.103 C 
HETATM    5  O13         0      44.244  46.812 -23.765  1.00  0.00    -0.307 OA
HETATM    6  C14         0      45.134  47.759 -23.566  1.00  0.00     0.107 C 
HETATM    7  C15         0      45.391  48.732 -24.521  1.00  0.00     0.049 C 
HETATM    8  C16         0      46.497  49.568 -24.420  1.00  0.00     0.093 C 
HETATM    9  C18         0      46.983  49.745 -23.130  1.00  0.00     0.048 C 
HETATM   10  C19         0      46.705  48.814 -22.138  1.00  0.00     0.096 C 
HETATM   11  C21         0      45.932  47.723 -22.428  1.00  0.00     0.084 C 
ENDROOT
BRANCH  10  12
HETATM   12  O20         0      47.521  48.755 -21.013  1.00  0.00    -0.359 OA
HETATM   13  H20         0      47.461  49.461 -20.381  1.00  0.00     0.218 HD
ENDBRANCH  10  12
BRANCH   4  14
HETATM   14  C5          0      43.730  44.470 -23.697  1.00  0.00     0.025 C 
HETATM   15  C6          0      42.625  43.786 -23.212  1.00  0.00     0.004 C 
HETATM   16  C7          0      41.747  43.238 -24.142  1.00  0.00     0.026 C 
HETATM   17  C8          0      42.025  43.253 -25.505  1.00  0.00     0.112 C 
HETATM   18  C10         0      43.372  43.366 -25.820  1.00  0.00     0.112 C 
HETATM   19  C12         0      44.213  43.994 -24.909  1.00  0.00     0.028 C 
BRANCH  17  20
HETATM   20  O9          0      41.006  43.360 -26.435  1.00  0.00    -0.357 OA
HETATM   21  H9          0      40.463  44.133 -26.536  1.00  0.00     0.218 HD
ENDBRANCH  17  20
BRANCH  18  22
HETATM   22  O11         0      43.722  43.196 -27.152  1.00  0.00    -0.357 OA
HETATM   23  H11         0      43.421  43.858 -27.764  1.00  0.00     0.218 HD
ENDBRANCH  18  22
ENDBRANCH   4  14
BRANCH   8  24
HETATM   24  O17         0      47.251  49.920 -25.545  1.00  0.00    -0.359 OA
HETATM   25  H17         0      48.147  50.226 -25.469  1.00  0.00     0.218 HD
ENDBRANCH   8  24
TORSDOF 5
ENDMDL
MODEL 7
REMARK VINA RESULT:      -3.7      2.466      5.982
REMARK  5 active torsions:
REMARK  status: ('A' for Active; 'I' for Inactive)
REMARK    1  A    between atoms: C4_4  and  C5_5 
REMARK    2  A    between atoms: C8_8  and  O9_9 
REMARK    3  A    between atoms: C10_11  and  O11_12 
REMARK    4  A    between atoms: C16_18  and  O17_19 
REMARK    5  A    between atoms: C19_22  and  O20_23 
ROOT
HETATM    1  O1          0      45.240  47.412 -23.139  1.00  0.00    -0.286 OA
HETATM    2  C2          0      44.770  46.370 -23.672  1.00  0.00     0.201 C 
HETATM    3  C3          0      44.671  46.207 -25.044  1.00  0.00     0.067 C 
HETATM    4  C4          0      44.055  45.093 -25.602  1.00  0.00     0.103 C 
HETATM    5  O13         0      43.574  44.162 -24.797  1.00  0.00    -0.307 OA
HETATM    6  C14         0      43.608  44.285 -23.488  1.00  0.00     0.107 C 
HETATM    7  C15         0      42.776  43.543 -22.662  1.00  0.00     0.049 C 
HETATM    8  C16         0      42.633  43.853 -21.315  1.00  0.00     0.093 C 
HETATM    9  C18         0      43.704  44.538 -20.753  1.00  0.00     0.048 C 
HETATM   10  C19         0      44.584  45.252 -21.555  1.00  0.00     0.096 C 
HETATM   11  C21         0      44.404  45.269 -22.912  1.00  0.00     0.084 C 
ENDROOT
BRANCH  10  12
HETATM   12  O20         0      45.358  46.259 -20.987  1.00  0.00    -0.359 OA
HETATM   13  H20         0      46.255  46.352 -21.285  1.00  0.00     0.218 HD
ENDBRANCH  10  12
BRANCH   4  14
HETATM   14  C5          0      43.459  45.252 -26.930  1.00  0.00     0.025 C 
HETATM   15  C6          0      42.905  44.195 -27.637  1.00  0.00     0.004 C 
HETATM   16  C7          0      41.750  44.447 -28.372  1.00  0.00     0.026 C 
HETATM   17  C8          0      41.238  45.732 -28.510  1.00  0.00     0.112 C 
HETATM   18  C10         0      42.166  46.749 -28.324  1.00  0.00     0.112 C 
HETATM   19  C12         0      43.268  46.497 -27.516  1.00  0.00     0.028 C 
BRANCH  17  20
HETATM   20  O9          0      39.875  45.946 -28.610  1.00  0.00    -0.357 OA
HETATM   21  H9          0      39.223  45.403 -28.181  1.00  0.00     0.218 HD
ENDBRANCH  17  20
BRANCH  18  22
HETATM   22  O11         0      41.757  48.038 -28.634  1.00  0.00    -0.357 OA
HETATM   23  H11         0      40.845  48.153 -28.876  1.00  0.00     0.218 HD
ENDBRANCH  18  22
ENDBRANCH   4  14
BRANCH   8  24
HETATM   24  O17         0      41.389  43.786 -20.679  1.00  0.00    -0.359 OA
HETATM   25  H17         0      41.299  43.913 -19.742  1.00  0.00     0.218 HD
ENDBRANCH   8  24
TORSDOF 5
ENDMDL
MODEL 8
REMARK VINA RESULT:      -3.6      2.123      6.832
REMARK  5 active torsions:
REMARK  status: ('A' for Active; 'I' for Inactive)
REMARK    1  A    between atoms: C4_4  and  C5_5 
REMARK    2  A    between atoms: C8_8  and  O9_9 
REMARK    3  A    between atoms: C10_11  and  O11_12 
REMARK    4  A    between atoms: C16_18  and  O17_19 
REMARK    5  A    between atoms: C19_22  and  O20_23 
ROOT
HETATM    1  O1          0      43.761  48.714 -25.063  1.00  0.00    -0.286 OA
HETATM    2  C2          0      44.343  47.596 -25.001  1.00  0.00     0.201 C 
HETATM    3  C3          0      43.947  46.502 -25.751  1.00  0.00     0.067 C 
HETATM    4  C4          0      44.539  45.254 -25.589  1.00  0.00     0.103 C 
HETATM    5  O13         0      45.516  45.125 -24.708  1.00  0.00    -0.307 OA
HETATM    6  C14         0      45.905  46.123 -23.944  1.00  0.00     0.107 C 
HETATM    7  C15         0      46.621  45.911 -22.775  1.00  0.00     0.049 C 
HETATM    8  C16         0      46.806  46.930 -21.848  1.00  0.00     0.093 C 
HETATM    9  C18         0      46.728  48.217 -22.367  1.00  0.00     0.048 C 
HETATM   10  C19         0      46.059  48.457 -23.560  1.00  0.00     0.096 C 
HETATM   11  C21         0      45.487  47.416 -24.239  1.00  0.00     0.084 C 
ENDROOT
BRANCH  10  12
HETATM   12  O20         0      45.612  49.744 -23.842  1.00  0.00    -0.359 OA
HETATM   13  H20         0      45.987  50.464 -23.349  1.00  0.00     0.218 HD
ENDBRANCH  10  12
BRANCH   4  14
HETATM   14  C5          0      43.730  44.080 -25.920  1.00  0.00     0.025 C 
HETATM   15  C6          0      44.281  42.890 -26.373  1.00  0.00     0.004 C 
HETATM   16  C7          0      43.713  41.704 -25.922  1.00  0.00     0.026 C 
HETATM   17  C8          0      42.553  41.696 -25.154  1.00  0.00     0.112 C 
HETATM   18  C10         0      41.758  42.826 -25.293  1.00  0.00     0.112 C 
HETATM   19  C12         0      42.366  44.020 -25.663  1.00  0.00     0.028 C 
BRANCH  17  20
HETATM   20  O9          0      42.350  40.728 -24.186  1.00  0.00    -0.357 OA
HETATM   21  H9          0      41.492  40.423 -23.916  1.00  0.00     0.218 HD
ENDBRANCH  17  20
BRANCH  18  22
HETATM   22  O11         0      40.505  42.789 -24.699  1.00  0.00    -0.357 OA
HETATM   23  H11         0      39.938  42.064 -24.935  1.00  0.00     0.218 HD
ENDBRANCH  18  22
ENDBRANCH   4  14
BRANCH   8  24
HETATM   24  O17         0      46.736  46.686 -20.472  1.00  0.00    -0.359 OA
HETATM   25  H17         0      47.124  47.279 -19.840  1.00  0.00     0.218 HD
ENDBRANCH   8  24
TORSDOF 5
ENDMDL
MODEL 9
REMARK VINA RESULT:      -3.6      2.127      3.381
REMARK  5 active torsions:
REMARK  status: ('A' for Active; 'I' for Inactive)
REMARK    1  A    between atoms: C4_4  and  C5_5 
REMARK    2  A    between atoms: C8_8  and  O9_9 
REMARK    3  A    between atoms: C10_11  and  O11_12 
REMARK    4  A    between atoms: C16_18  and  O17_19 
REMARK    5  A    between atoms: C19_22  and  O20_23 
ROOT
HETATM    1  O1          0      41.301  42.998 -24.769  1.00  0.00    -0.286 OA
HETATM    2  C2          0      42.302  43.764 -24.818  1.00  0.00     0.201 C 
HETATM    3  C3          0      43.187  43.910 -23.763  1.00  0.00     0.067 C 
HETATM    4  C4          0      44.223  44.837 -23.804  1.00  0.00     0.103 C 
HETATM    5  O13         0      44.369  45.578 -24.889  1.00  0.00    -0.307 OA
HETATM    6  C14         0      43.535  45.505 -25.903  1.00  0.00     0.107 C 
HETATM    7  C15         0      43.435  46.522 -26.841  1.00  0.00     0.049 C 
HETATM    8  C16         0      42.388  46.562 -27.754  1.00  0.00     0.093 C 
HETATM    9  C18         0      41.801  45.332 -28.027  1.00  0.00     0.048 C 
HETATM   10  C19         0      41.921  44.279 -27.132  1.00  0.00     0.096 C 
HETATM   11  C21         0      42.637  44.446 -25.978  1.00  0.00     0.084 C 
ENDROOT
BRANCH  10  12
HETATM   12  O20         0      41.004  43.233 -27.184  1.00  0.00    -0.359 OA
HETATM   13  H20         0      40.082  43.452 -27.252  1.00  0.00     0.218 HD
ENDBRANCH  10  12
BRANCH   4  14
HETATM   14  C5          0      44.706  45.358 -22.524  1.00  0.00     0.025 C 
HETATM   15  C6          0      44.578  44.661 -21.332  1.00  0.00     0.004 C 
HETATM   16  C7          0      45.633  44.731 -20.428  1.00  0.00     0.026 C 
HETATM   17  C8          0      46.721  45.572 -20.639  1.00  0.00     0.112 C 
HETATM   18  C10         0      46.467  46.648 -21.479  1.00  0.00     0.112 C 
HETATM   19  C12         0      45.462  46.520 -22.431  1.00  0.00     0.028 C 
BRANCH  17  20
HETATM   20  O9          0      47.986  45.216 -20.207  1.00  0.00    -0.357 OA
HETATM   21  H9          0      48.237  45.169 -19.292  1.00  0.00     0.218 HD
ENDBRANCH  17  20
BRANCH  18  22
HETATM   22  O11         0      47.455  47.617 -21.575  1.00  0.00    -0.357 OA
HETATM   23  H11         0      47.178  48.523 -21.497  1.00  0.00     0.218 HD
ENDBRANCH  18  22
ENDBRANCH   4  14
BRANCH   8  24
HETATM   24  O17         0      41.765  47.767 -28.097  1.00  0.00    -0.359 OA
HETATM   25  H17         0      41.245  48.257 -27.471  1.00  0.00     0.218 HD
ENDBRANCH   8  24
TORSDOF 5
ENDMDL
