MODEL 1
REMARK VINA RESULT:      -6.3      0.000      0.000
REMARK  5 active torsions:
REMARK  status: ('A' for Active; 'I' for Inactive)
REMARK    1  A    between atoms: C4_4  and  C5_5 
REMARK    2  A    between atoms: C8_8  and  O9_9 
REMARK    3  A    between atoms: C10_11  and  O11_12 
REMARK    4  A    between atoms: C16_18  and  O17_19 
REMARK    5  A    between atoms: C19_22  and  O20_23 
ROOT
HETATM    1  O1          0      31.624  95.790 -12.114  1.00  0.00    -0.286 OA
HETATM    2  C2          0      32.040  94.728 -12.654  1.00  0.00     0.201 C 
HETATM    3  C3          0      31.595  93.472 -12.278  1.00  0.00     0.067 C 
HETATM    4  C4          0      32.144  92.314 -12.816  1.00  0.00     0.103 C 
HETATM    5  O13         0      33.098  92.426 -13.723  1.00  0.00    -0.307 OA
HETATM    6  C14         0      33.583  93.593 -14.088  1.00  0.00     0.107 C 
HETATM    7  C15         0      34.817  93.710 -14.711  1.00  0.00     0.049 C 
HETATM    8  C16         0      35.435  94.945 -14.863  1.00  0.00     0.093 C 
HETATM    9  C18         0      34.574  96.036 -14.863  1.00  0.00     0.048 C 
HETATM   10  C19         0      33.313  95.940 -14.289  1.00  0.00     0.096 C 
HETATM   11  C21         0      32.908  94.756 -13.734  1.00  0.00     0.084 C 
ENDROOT
BRANCH  10  12
HETATM   12  O20         0      32.650  97.101 -13.905  1.00  0.00    -0.359 OA
HETATM   13  H20         0      31.939  97.022 -13.280  1.00  0.00     0.218 HD
ENDBRANCH  10  12
BRANCH   4  14
HETATM   14  C5          0      32.091  91.103 -11.995  1.00  0.00     0.025 C 
HETATM   15  C6          0      30.901  90.562 -11.529  1.00  0.00     0.004 C 
HETATM   16  C7          0      30.788  89.176 -11.506  1.00  0.00     0.026 C 
HETATM   17  C8          0      31.866  88.351 -11.809  1.00  0.00     0.112 C 
HETATM   18  C10         0      33.112  88.939 -11.636  1.00  0.00     0.112 C 
HETATM   19  C12         0      33.212  90.321 -11.748  1.00  0.00     0.028 C 
BRANCH  17  20
HETATM   20  O9          0      31.673  87.130 -12.430  1.00  0.00    -0.357 OA
HETATM   21  H9          0      30.817  86.772 -12.636  1.00  0.00     0.218 HD
ENDBRANCH  17  20
BRANCH  18  22
HETATM   22  O11         0      34.219  88.109 -11.740  1.00  0.00    -0.357 OA
HETATM   23  H11         0      34.957  88.302 -11.173  1.00  0.00     0.218 HD
ENDBRANCH  18  22
ENDBRANCH   4  14
BRANCH   8  24
HETATM   24  O17         0      36.814  95.097 -14.687  1.00  0.00    -0.359 OA
HETATM   25  H17         0      37.380  94.354 -14.510  1.00  0.00     0.218 HD
ENDBRANCH   8  24
TORSDOF 5
ENDMDL
MODEL 2
REMARK VINA RESULT:      -6.2      2.332      3.085
REMARK  5 active torsions:
REMARK  status: ('A' for Active; 'I' for Inactive)
REMARK    1  A    between atoms: C4_4  and  C5_5 
REMARK    2  A    between atoms: C8_8  and  O9_9 
REMARK    3  A    between atoms: C10_11  and  O11_12 
REMARK    4  A    between atoms: C16_18  and  O17_19 
REMARK    5  A    between atoms: C19_22  and  O20_23 
ROOT
HETATM    1  O1          0      34.210  93.754 -14.266  1.00  0.00    -0.286 OA
HETATM    2  C2          0      33.034  93.378 -14.008  1.00  0.00     0.201 C 
HETATM    3  C3          0      32.724  92.575 -12.923  1.00  0.00     0.067 C 
HETATM    4  C4          0      31.437  92.090 -12.720  1.00  0.00     0.103 C 
HETATM    5  O13         0      30.490  92.426 -13.577  1.00  0.00    -0.307 OA
HETATM    6  C14         0      30.738  93.155 -14.643  1.00  0.00     0.107 C 
HETATM    7  C15         0      29.876  93.177 -15.730  1.00  0.00     0.049 C 
HETATM    8  C16         0      30.258  93.737 -16.943  1.00  0.00     0.093 C 
HETATM    9  C18         0      31.259  94.697 -16.857  1.00  0.00     0.048 C 
HETATM   10  C19         0      32.110  94.733 -15.760  1.00  0.00     0.096 C 
HETATM   11  C21         0      31.951  93.826 -14.748  1.00  0.00     0.084 C 
ENDROOT
BRANCH  10  12
HETATM   12  O20         0      33.338  95.377 -15.873  1.00  0.00    -0.359 OA
HETATM   13  H20         0      34.124  94.867 -15.717  1.00  0.00     0.218 HD
ENDBRANCH  10  12
BRANCH   4  14
HETATM   14  C5          0      31.304  90.835 -11.978  1.00  0.00     0.025 C 
HETATM   15  C6          0      30.081  90.342 -11.547  1.00  0.00     0.004 C 
HETATM   16  C7          0      29.880  88.967 -11.613  1.00  0.00     0.026 C 
HETATM   17  C8          0      30.904  88.097 -11.968  1.00  0.00     0.112 C 
HETATM   18  C10         0      32.184  88.592 -11.759  1.00  0.00     0.112 C 
HETATM   19  C12         0      32.372  89.969 -11.782  1.00  0.00     0.028 C 
BRANCH  17  20
HETATM   20  O9          0      30.635  86.933 -12.666  1.00  0.00    -0.357 OA
HETATM   21  H9          0      30.294  86.142 -12.263  1.00  0.00     0.218 HD
ENDBRANCH  17  20
BRANCH  18  22
HETATM   22  O11         0      33.236  87.701 -11.917  1.00  0.00    -0.357 OA
HETATM   23  H11         0      33.169  86.871 -11.459  1.00  0.00     0.218 HD
ENDBRANCH  18  22
ENDBRANCH   4  14
BRANCH   8  24
HETATM   24  O17         0      29.911  93.143 -18.162  1.00  0.00    -0.359 OA
HETATM   25  H17         0      29.032  92.826 -18.331  1.00  0.00     0.218 HD
ENDBRANCH   8  24
TORSDOF 5
ENDMDL
MODEL 3
REMARK VINA RESULT:      -6.1      4.432      8.053
REMARK  5 active torsions:
REMARK  status: ('A' for Active; 'I' for Inactive)
REMARK    1  A    between atoms: C4_4  and  C5_5 
REMARK    2  A    between atoms: C8_8  and  O9_9 
REMARK    3  A    between atoms: C10_11  and  O11_12 
REMARK    4  A    between atoms: C16_18  and  O17_19 
REMARK    5  A    between atoms: C19_22  and  O20_23 
ROOT
HETATM    1  O1          0      35.855  93.311 -15.272  1.00  0.00    -0.286 OA
HETATM    2  C2          0      36.133  94.417 -14.733  1.00  0.00     0.201 C 
HETATM    3  C3          0      37.431  94.811 -14.456  1.00  0.00     0.067 C 
HETATM    4  C4          0      37.705  95.989 -13.769  1.00  0.00     0.103 C 
HETATM    5  O13         0      36.694  96.753 -13.393  1.00  0.00    -0.307 OA
HETATM    6  C14         0      35.442  96.407 -13.597  1.00  0.00     0.107 C 
HETATM    7  C15         0      34.401  96.974 -12.877  1.00  0.00     0.049 C 
HETATM    8  C16         0      33.121  96.432 -12.911  1.00  0.00     0.093 C 
HETATM    9  C18         0      32.828  95.690 -14.048  1.00  0.00     0.048 C 
HETATM   10  C19         0      33.848  95.148 -14.819  1.00  0.00     0.096 C 
HETATM   11  C21         0      35.153  95.360 -14.465  1.00  0.00     0.084 C 
ENDROOT
BRANCH  10  12
HETATM   12  O20         0      33.567  94.079 -15.665  1.00  0.00    -0.359 OA
HETATM   13  H20         0      33.509  93.212 -15.282  1.00  0.00     0.218 HD
ENDBRANCH  10  12
BRANCH   4  14
HETATM   14  C5          0      38.953  96.045 -13.006  1.00  0.00     0.025 C 
HETATM   15  C6          0      39.905  95.037 -13.048  1.00  0.00     0.004 C 
HETATM   16  C7          0      41.244  95.414 -13.034  1.00  0.00     0.026 C 
HETATM   17  C8          0      41.627  96.738 -12.849  1.00  0.00     0.112 C 
HETATM   18  C10         0      40.686  97.529 -12.202  1.00  0.00     0.112 C 
HETATM   19  C12         0      39.346  97.176 -12.304  1.00  0.00     0.028 C 
BRANCH  17  20
HETATM   20  O9          0      42.763  97.240 -13.460  1.00  0.00    -0.357 OA
HETATM   21  H9          0      42.887  98.158 -13.669  1.00  0.00     0.218 HD
ENDBRANCH  17  20
BRANCH  18  22
HETATM   22  O11         0      41.089  98.802 -11.825  1.00  0.00    -0.357 OA
HETATM   23  H11         0      41.864  98.864 -11.280  1.00  0.00     0.218 HD
ENDBRANCH  18  22
ENDBRANCH   4  14
BRANCH   8  24
HETATM   24  O17         0      32.331  96.356 -11.759  1.00  0.00    -0.359 OA
HETATM   25  H17         0      32.688  96.071 -10.926  1.00  0.00     0.218 HD
ENDBRANCH   8  24
TORSDOF 5
ENDMDL
MODEL 4
REMARK VINA RESULT:      -6.0      4.914      8.158
REMARK  5 active torsions:
REMARK  status: ('A' for Active; 'I' for Inactive)
REMARK    1  A    between atoms: C4_4  and  C5_5 
REMARK    2  A    between atoms: C8_8  and  O9_9 
REMARK    3  A    between atoms: C10_11  and  O11_12 
REMARK    4  A    between atoms: C16_18  and  O17_19 
REMARK    5  A    between atoms: C19_22  and  O20_23 
ROOT
HETATM    1  O1          0      40.695  94.232 -13.273  1.00  0.00    -0.286 OA
HETATM    2  C2          0      40.025  95.287 -13.445  1.00  0.00     0.201 C 
HETATM    3  C3          0      38.659  95.280 -13.668  1.00  0.00     0.067 C 
HETATM    4  C4          0      37.962  96.448 -13.956  1.00  0.00     0.103 C 
HETATM    5  O13         0      38.626  97.590 -13.995  1.00  0.00    -0.307 OA
HETATM    6  C14         0      39.929  97.647 -13.828  1.00  0.00     0.107 C 
HETATM    7  C15         0      40.673  98.738 -14.254  1.00  0.00     0.049 C 
HETATM    8  C16         0      42.061  98.687 -14.309  1.00  0.00     0.093 C 
HETATM    9  C18         0      42.649  97.762 -13.454  1.00  0.00     0.048 C 
HETATM   10  C19         0      41.919  96.684 -12.971  1.00  0.00     0.096 C 
HETATM   11  C21         0      40.605  96.540 -13.326  1.00  0.00     0.084 C 
ENDROOT
BRANCH  10  12
HETATM   12  O20         0      42.593  95.563 -12.498  1.00  0.00    -0.359 OA
HETATM   13  H20         0      42.082  94.788 -12.296  1.00  0.00     0.218 HD
ENDBRANCH  10  12
BRANCH   4  14
HETATM   14  C5          0      36.734  96.319 -14.743  1.00  0.00     0.025 C 
HETATM   15  C6          0      36.619  96.797 -16.040  1.00  0.00     0.004 C 
HETATM   16  C7          0      35.894  96.032 -16.948  1.00  0.00     0.026 C 
HETATM   17  C8          0      35.193  94.898 -16.550  1.00  0.00     0.112 C 
HETATM   18  C10         0      34.852  94.871 -15.204  1.00  0.00     0.112 C 
HETATM   19  C12         0      35.645  95.576 -14.307  1.00  0.00     0.028 C 
BRANCH  17  20
HETATM   20  O9          0      35.055  93.816 -17.400  1.00  0.00    -0.357 OA
HETATM   21  H9          0      35.586  93.030 -17.345  1.00  0.00     0.218 HD
ENDBRANCH  17  20
BRANCH  18  22
HETATM   22  O11         0      33.994  93.860 -14.794  1.00  0.00    -0.357 OA
HETATM   23  H11         0      33.199  93.739 -15.301  1.00  0.00     0.218 HD
ENDBRANCH  18  22
ENDBRANCH   4  14
BRANCH   8  24
HETATM   24  O17         0      42.771  99.266 -15.367  1.00  0.00    -0.359 OA
HETATM   25  H17         0      42.377  99.392 -16.222  1.00  0.00     0.218 HD
ENDBRANCH   8  24
TORSDOF 5
ENDMDL
MODEL 5
REMARK VINA RESULT:      -6.0      4.781      7.268
REMARK  5 active torsions:
REMARK  status: ('A' for Active; 'I' for Inactive)
REMARK    1  A    between atoms: C4_4  and  C5_5 
REMARK    2  A    between atoms: C8_8  and  O9_9 
REMARK    3  A    between atoms: C10_11  and  O11_12 
REMARK    4  A    between atoms: C16_18  and  O17_19 
REMARK    5  A    between atoms: C19_22  and  O20_23 
ROOT
HETATM    1  O1          0      34.008  97.853 -13.890  1.00  0.00    -0.286 OA
HETATM    2  C2          0      34.835  96.905 -13.981  1.00  0.00     0.201 C 
HETATM    3  C3          0      36.110  96.968 -13.447  1.00  0.00     0.067 C 
HETATM    4  C4          0      37.036  95.950 -13.650  1.00  0.00     0.103 C 
HETATM    5  O13         0      36.673  94.893 -14.355  1.00  0.00    -0.307 OA
HETATM    6  C14         0      35.487  94.800 -14.915  1.00  0.00     0.107 C 
HETATM    7  C15         0      35.239  93.920 -15.958  1.00  0.00     0.049 C 
HETATM    8  C16         0      34.073  94.002 -16.711  1.00  0.00     0.093 C 
HETATM    9  C18         0      32.999  94.602 -16.065  1.00  0.00     0.048 C 
HETATM   10  C19         0      33.209  95.453 -14.988  1.00  0.00     0.096 C 
HETATM   11  C21         0      34.483  95.689 -14.547  1.00  0.00     0.084 C 
ENDROOT
BRANCH  10  12
HETATM   12  O20         0      32.218  96.365 -14.638  1.00  0.00    -0.359 OA
HETATM   13  H20         0      32.276  96.780 -13.786  1.00  0.00     0.218 HD
ENDBRANCH  10  12
BRANCH   4  14
HETATM   14  C5          0      38.453  96.316 -13.607  1.00  0.00     0.025 C 
HETATM   15  C6          0      38.892  97.583 -13.250  1.00  0.00     0.004 C 
HETATM   16  C7          0      40.048  97.672 -12.481  1.00  0.00     0.026 C 
HETATM   17  C8          0      40.818  96.551 -12.188  1.00  0.00     0.112 C 
HETATM   18  C10         0      40.667  95.496 -13.079  1.00  0.00     0.112 C 
HETATM   19  C12         0      39.468  95.382 -13.772  1.00  0.00     0.028 C 
BRANCH  17  20
HETATM   20  O9          0      41.498  96.451 -10.988  1.00  0.00    -0.357 OA
HETATM   21  H9          0      41.795  97.202 -10.486  1.00  0.00     0.218 HD
ENDBRANCH  17  20
BRANCH  18  22
HETATM   22  O11         0      41.546  94.430 -12.945  1.00  0.00    -0.357 OA
HETATM   23  H11         0      41.183  93.558 -13.046  1.00  0.00     0.218 HD
ENDBRANCH  18  22
ENDBRANCH   4  14
BRANCH   8  24
HETATM   24  O17         0      34.085  93.812 -18.097  1.00  0.00    -0.359 OA
HETATM   25  H17         0      34.856  94.000 -18.620  1.00  0.00     0.218 HD
ENDBRANCH   8  24
TORSDOF 5
ENDMDL
MODEL 6
REMARK VINA RESULT:      -5.8      7.642     10.474
REMARK  5 active torsions:
REMARK  status: ('A' for Active; 'I' for Inactive)
REMARK    1  A    between atoms: C4_4  and  C5_5 
REMARK    2  A    between atoms: C8_8  and  O9_9 
REMARK    3  A    between atoms: C10_11  and  O11_12 
REMARK    4  A    between atoms: C16_18  and  O17_19 
REMARK    5  A    between atoms: C19_22  and  O20_23 
ROOT
HETATM    1  O1          0      31.364  94.894 -23.468  1.00  0.00    -0.286 OA
HETATM    2  C2          0      32.366  94.841 -22.704  1.00  0.00     0.201 C 
HETATM    3  C3          0      33.667  94.783 -23.175  1.00  0.00     0.067 C 
HETATM    4  C4          0      34.747  94.622 -22.315  1.00  0.00     0.103 C 
HETATM    5  O13         0      34.517  94.545 -21.016  1.00  0.00    -0.307 OA
HETATM    6  C14         0      33.300  94.557 -20.519  1.00  0.00     0.107 C 
HETATM    7  C15         0      33.026  94.085 -19.243  1.00  0.00     0.049 C 
HETATM    8  C16         0      31.721  93.863 -18.821  1.00  0.00     0.093 C 
HETATM    9  C18         0      30.754  94.608 -19.486  1.00  0.00     0.048 C 
HETATM   10  C19         0      31.011  95.135 -20.744  1.00  0.00     0.096 C 
HETATM   11  C21         0      32.233  94.935 -21.327  1.00  0.00     0.084 C 
ENDROOT
BRANCH  10  12
HETATM   12  O20         0      29.945  95.483 -21.566  1.00  0.00    -0.359 OA
HETATM   13  H20         0      29.422  94.783 -21.938  1.00  0.00     0.218 HD
ENDBRANCH  10  12
BRANCH   4  14
HETATM   14  C5          0      35.946  93.983 -22.858  1.00  0.00     0.025 C 
HETATM   15  C6          0      36.515  94.355 -24.067  1.00  0.00     0.004 C 
HETATM   16  C7          0      37.903  94.367 -24.150  1.00  0.00     0.026 C 
HETATM   17  C8          0      38.700  93.897 -23.112  1.00  0.00     0.112 C 
HETATM   18  C10         0      38.073  92.995 -22.263  1.00  0.00     0.112 C 
HETATM   19  C12         0      36.691  93.061 -22.134  1.00  0.00     0.028 C 
BRANCH  17  20
HETATM   20  O9          0      39.936  94.464 -22.854  1.00  0.00    -0.357 OA
HETATM   21  H9          0      40.761  94.004 -22.963  1.00  0.00     0.218 HD
ENDBRANCH  17  20
BRANCH  18  22
HETATM   22  O11         0      38.872  92.353 -21.328  1.00  0.00    -0.357 OA
HETATM   23  H11         0      38.604  92.414 -20.418  1.00  0.00     0.218 HD
ENDBRANCH  18  22
ENDBRANCH   4  14
BRANCH   8  24
HETATM   24  O17         0      31.386  92.749 -18.042  1.00  0.00    -0.359 OA
HETATM   25  H17         0      30.753  92.806 -17.337  1.00  0.00     0.218 HD
ENDBRANCH   8  24
TORSDOF 5
ENDMDL
MODEL 7
REMARK VINA RESULT:      -5.8      3.543      7.467
REMARK  5 active torsions:
REMARK  status: ('A' for Active; 'I' for Inactive)
REMARK    1  A    between atoms: C4_4  and  C5_5 
REMARK    2  A    between atoms: C8_8  and  O9_9 
REMARK    3  A    between atoms: C10_11  and  O11_12 
REMARK    4  A    between atoms: C16_18  and  O17_19 
REMARK    5  A    between atoms: C19_22  and  O20_23 
ROOT
HETATM    1  O1          0      35.314  94.866 -17.753  1.00  0.00    -0.286 OA
HETATM    2  C2          0      35.207  95.216 -16.545  1.00  0.00     0.201 C 
HETATM    3  C3          0      36.249  95.789 -15.836  1.00  0.00     0.067 C 
HETATM    4  C4          0      36.138  96.070 -14.479  1.00  0.00     0.103 C 
HETATM    5  O13         0      34.999  95.800 -13.865  1.00  0.00    -0.307 OA
HETATM    6  C14         0      33.992  95.222 -14.484  1.00  0.00     0.107 C 
HETATM    7  C15         0      32.977  94.582 -13.787  1.00  0.00     0.049 C 
HETATM    8  C16         0      32.062  93.762 -14.437  1.00  0.00     0.093 C 
HETATM    9  C18         0      31.884  94.036 -15.787  1.00  0.00     0.048 C 
HETATM   10  C19         0      32.860  94.716 -16.504  1.00  0.00     0.096 C 
HETATM   11  C21         0      33.998  95.135 -15.872  1.00  0.00     0.084 C 
ENDROOT
BRANCH  10  12
HETATM   12  O20         0      32.887  94.604 -17.891  1.00  0.00    -0.359 OA
HETATM   13  H20         0      32.855  95.403 -18.402  1.00  0.00     0.218 HD
ENDBRANCH  10  12
BRANCH   4  14
HETATM   14  C5          0      37.374  96.087 -13.694  1.00  0.00     0.025 C 
HETATM   15  C6          0      38.242  95.006 -13.636  1.00  0.00     0.004 C 
HETATM   16  C7          0      39.607  95.275 -13.621  1.00  0.00     0.026 C 
HETATM   17  C8          0      40.093  96.575 -13.530  1.00  0.00     0.112 C 
HETATM   18  C10         0      39.209  97.487 -12.968  1.00  0.00     0.112 C 
HETATM   19  C12         0      37.846  97.236 -13.072  1.00  0.00     0.028 C 
BRANCH  17  20
HETATM   20  O9          0      41.275  96.935 -14.152  1.00  0.00    -0.357 OA
HETATM   21  H9          0      41.420  96.869 -15.089  1.00  0.00     0.218 HD
ENDBRANCH  17  20
BRANCH  18  22
HETATM   22  O11         0      39.707  98.750 -12.681  1.00  0.00    -0.357 OA
HETATM   23  H11         0      39.412  99.155 -11.874  1.00  0.00     0.218 HD
ENDBRANCH  18  22
ENDBRANCH   4  14
BRANCH   8  24
HETATM   24  O17         0      31.624  92.562 -13.865  1.00  0.00    -0.359 OA
HETATM   25  H17         0      31.765  91.725 -14.292  1.00  0.00     0.218 HD
ENDBRANCH   8  24
TORSDOF 5
ENDMDL
MODEL 8
REMARK VINA RESULT:      -5.8      5.391      8.924
REMARK  5 active torsions:
REMARK  status: ('A' for Active; 'I' for Inactive)
REMARK    1  A    between atoms: C4_4  and  C5_5 
REMARK    2  A    between atoms: C8_8  and  O9_9 
REMARK    3  A    between atoms: C10_11  and  O11_12 
REMARK    4  A    between atoms: C16_18  and  O17_19 
REMARK    5  A    between atoms: C19_22  and  O20_23 
ROOT
HETATM    1  O1          0      32.561  93.441 -18.847  1.00  0.00    -0.286 OA
HETATM    2  C2          0      33.596  94.163 -18.864  1.00  0.00     0.201 C 
HETATM    3  C3          0      34.291  94.451 -20.026  1.00  0.00     0.067 C 
HETATM    4  C4          0      35.484  95.164 -20.004  1.00  0.00     0.103 C 
HETATM    5  O13         0      35.948  95.590 -18.842  1.00  0.00    -0.307 OA
HETATM    6  C14         0      35.347  95.312 -17.706  1.00  0.00     0.107 C 
HETATM    7  C15         0      36.008  95.397 -16.489  1.00  0.00     0.049 C 
HETATM    8  C16         0      35.458  94.864 -15.330  1.00  0.00     0.093 C 
HETATM    9  C18         0      34.073  94.747 -15.337  1.00  0.00     0.048 C 
HETATM   10  C19         0      33.375  94.707 -16.536  1.00  0.00     0.096 C 
HETATM   11  C21         0      34.054  94.799 -17.721  1.00  0.00     0.084 C 
ENDROOT
BRANCH  10  12
HETATM   12  O20         0      32.094  94.165 -16.560  1.00  0.00    -0.359 OA
HETATM   13  H20         0      31.358  94.764 -16.592  1.00  0.00     0.218 HD
ENDBRANCH  10  12
BRANCH   4  14
HETATM   14  C5          0      36.432  94.919 -21.093  1.00  0.00     0.025 C 
HETATM   15  C6          0      36.991  95.940 -21.847  1.00  0.00     0.004 C 
HETATM   16  C7          0      38.324  95.808 -22.223  1.00  0.00     0.026 C 
HETATM   17  C8          0      39.040  94.643 -21.974  1.00  0.00     0.112 C 
HETATM   18  C10         0      38.259  93.506 -21.812  1.00  0.00     0.112 C 
HETATM   19  C12         0      36.956  93.660 -21.354  1.00  0.00     0.028 C 
BRANCH  17  20
HETATM   20  O9          0      40.396  94.688 -21.704  1.00  0.00    -0.357 OA
HETATM   21  H9          0      40.984  93.951 -21.826  1.00  0.00     0.218 HD
ENDBRANCH  17  20
BRANCH  18  22
HETATM   22  O11         0      38.925  92.290 -21.750  1.00  0.00    -0.357 OA
HETATM   23  H11         0      39.031  91.815 -22.567  1.00  0.00     0.218 HD
ENDBRANCH  18  22
ENDBRANCH   4  14
BRANCH   8  24
HETATM   24  O17         0      36.248  94.194 -14.388  1.00  0.00    -0.359 OA
HETATM   25  H17         0      36.316  94.495 -13.490  1.00  0.00     0.218 HD
ENDBRANCH   8  24
TORSDOF 5
ENDMDL
MODEL 9
REMARK VINA RESULT:      -5.6     11.319     12.659
REMARK  5 active torsions:
REMARK  status: ('A' for Active; 'I' for Inactive)
REMARK    1  A    between atoms: C4_4  and  C5_5 
REMARK    2  A    between atoms: C8_8  and  O9_9 
REMARK    3  A    between atoms: C10_11  and  O11_12 
REMARK    4  A    between atoms: C16_18  and  O17_19 
REMARK    5  A    between atoms: C19_22  and  O20_23 
ROOT
HETATM    1  O1          0      37.980  92.429 -22.749  1.00  0.00    -0.286 OA
HETATM    2  C2          0      37.270  93.428 -23.045  1.00  0.00     0.201 C 
HETATM    3  C3          0      35.996  93.313 -23.576  1.00  0.00     0.067 C 
HETATM    4  C4          0      35.275  94.428 -23.989  1.00  0.00     0.103 C 
HETATM    5  O13         0      35.820  95.623 -23.848  1.00  0.00    -0.307 OA
HETATM    6  C14         0      37.039  95.786 -23.384  1.00  0.00     0.107 C 
HETATM    7  C15         0      37.754  96.955 -23.602  1.00  0.00     0.049 C 
HETATM    8  C16         0      39.116  97.028 -23.337  1.00  0.00     0.093 C 
HETATM    9  C18         0      39.580  96.120 -22.392  1.00  0.00     0.048 C 
HETATM   10  C19         0      38.865  94.963 -22.116  1.00  0.00     0.096 C 
HETATM   11  C21         0      37.686  94.721 -22.767  1.00  0.00     0.084 C 
ENDROOT
BRANCH  10  12
HETATM   12  O20         0      39.518  93.884 -21.527  1.00  0.00    -0.359 OA
HETATM   13  H20         0      39.140  93.511 -20.740  1.00  0.00     0.218 HD
ENDBRANCH  10  12
BRANCH   4  14
HETATM   14  C5          0      34.277  94.227 -25.041  1.00  0.00     0.025 C 
HETATM   15  C6          0      34.405  94.767 -26.312  1.00  0.00     0.004 C 
HETATM   16  C7          0      33.987  93.990 -27.388  1.00  0.00     0.026 C 
HETATM   17  C8          0      33.341  92.773 -27.201  1.00  0.00     0.112 C 
HETATM   18  C10         0      32.711  92.634 -25.971  1.00  0.00     0.112 C 
HETATM   19  C12         0      33.203  93.359 -24.892  1.00  0.00     0.028 C 
BRANCH  17  20
HETATM   20  O9          0      33.513  91.734 -28.098  1.00  0.00    -0.357 OA
HETATM   21  H9          0      33.507  90.816 -27.850  1.00  0.00     0.218 HD
ENDBRANCH  17  20
BRANCH  18  22
HETATM   22  O11         0      31.896  91.524 -25.804  1.00  0.00    -0.357 OA
HETATM   23  H11         0      31.675  91.283 -24.912  1.00  0.00     0.218 HD
ENDBRANCH  18  22
ENDBRANCH   4  14
BRANCH   8  24
HETATM   24  O17         0      39.989  97.713 -24.189  1.00  0.00    -0.359 OA
HETATM   25  H17         0      40.295  97.330 -25.003  1.00  0.00     0.218 HD
ENDBRANCH   8  24
TORSDOF 5
ENDMDL
