MODEL 1
REMARK VINA RESULT:      -0.0      0.000      0.000
REMARK  5 active torsions:
REMARK  status: ('A' for Active; 'I' for Inactive)
REMARK    1  A    between atoms: C4_4  and  C5_5 
REMARK    2  A    between atoms: C8_8  and  O9_9 
REMARK    3  A    between atoms: C10_11  and  O11_12 
REMARK    4  A    between atoms: C16_18  and  O17_19 
REMARK    5  A    between atoms: C19_22  and  O20_23 
ROOT
HETATM    1  O1          0      71.972 104.241   8.101  1.00  0.00    -0.286 OA
HETATM    2  C2          0      71.955 105.502   8.146  1.00  0.00     0.201 C 
HETATM    3  C3          0      71.917 106.210   9.335  1.00  0.00     0.067 C 
HETATM    4  C4          0      71.795 107.595   9.354  1.00  0.00     0.103 C 
HETATM    5  O13         0      71.735 108.243   8.204  1.00  0.00    -0.307 OA
HETATM    6  C14         0      71.729 107.616   7.048  1.00  0.00     0.107 C 
HETATM    7  C15         0      71.273 108.226   5.888  1.00  0.00     0.049 C 
HETATM    8  C16         0      71.030 107.490   4.734  1.00  0.00     0.093 C 
HETATM    9  C18         0      71.741 106.301   4.635  1.00  0.00     0.048 C 
HETATM   10  C19         0      72.252 105.688   5.771  1.00  0.00     0.096 C 
HETATM   11  C21         0      72.069 106.268   6.996  1.00  0.00     0.084 C 
ENDROOT
BRANCH  10  12
HETATM   12  O20         0      72.563 104.332   5.731  1.00  0.00    -0.359 OA
HETATM   13  H20         0      73.073 103.971   6.446  1.00  0.00     0.218 HD
ENDBRANCH  10  12
BRANCH   4  14
HETATM   14  C5          0      71.173 108.196  10.535  1.00  0.00     0.025 C 
HETATM   15  C6          0      70.507 109.413  10.497  1.00  0.00     0.004 C 
HETATM   16  C7          0      69.356 109.541  11.267  1.00  0.00     0.026 C 
HETATM   17  C8          0      68.953 108.545  12.150  1.00  0.00     0.112 C 
HETATM   18  C10         0      69.971 107.702  12.576  1.00  0.00     0.112 C 
HETATM   19  C12         0      71.073 107.525  11.746  1.00  0.00     0.028 C 
BRANCH  17  20
HETATM   20  O9          0      67.611 108.311  12.391  1.00  0.00    -0.357 OA
HETATM   21  H9          0      66.947 108.298  11.711  1.00  0.00     0.218 HD
ENDBRANCH  17  20
BRANCH  18  22
HETATM   22  O11         0      69.666 106.813  13.596  1.00  0.00    -0.357 OA
HETATM   23  H11         0      69.516 107.183  14.459  1.00  0.00     0.218 HD
ENDBRANCH  18  22
ENDBRANCH   4  14
BRANCH   8  24
HETATM   24  O17         0      69.922 107.755   3.920  1.00  0.00    -0.359 OA
HETATM   25  H17         0      69.129 107.236   3.972  1.00  0.00     0.218 HD
ENDBRANCH   8  24
TORSDOF 5
ENDMDL
MODEL 2
REMARK VINA RESULT:      -0.0      1.796      2.349
REMARK  5 active torsions:
REMARK  status: ('A' for Active; 'I' for Inactive)
REMARK    1  A    between atoms: C4_4  and  C5_5 
REMARK    2  A    between atoms: C8_8  and  O9_9 
REMARK    3  A    between atoms: C10_11  and  O11_12 
REMARK    4  A    between atoms: C16_18  and  O17_19 
REMARK    5  A    between atoms: C19_22  and  O20_23 
ROOT
HETATM    1  O1          0      72.641 105.762   6.105  1.00  0.00    -0.286 OA
HETATM    2  C2          0      72.331 106.984   6.154  1.00  0.00     0.201 C 
HETATM    3  C3          0      72.524 107.762   7.284  1.00  0.00     0.067 C 
HETATM    4  C4          0      72.079 109.078   7.346  1.00  0.00     0.103 C 
HETATM    5  O13         0      71.478 109.596   6.290  1.00  0.00    -0.307 OA
HETATM    6  C14         0      71.236 108.890   5.207  1.00  0.00     0.107 C 
HETATM    7  C15         0      70.281 109.278   4.279  1.00  0.00     0.049 C 
HETATM    8  C16         0      69.851 108.413   3.281  1.00  0.00     0.093 C 
HETATM    9  C18         0      70.756 107.416   2.938  1.00  0.00     0.048 C 
HETATM   10  C19         0      71.754 107.035   3.825  1.00  0.00     0.096 C 
HETATM   11  C21         0      71.858 107.658   5.038  1.00  0.00     0.084 C 
ENDROOT
BRANCH  10  12
HETATM   12  O20         0      72.356 105.789   3.677  1.00  0.00    -0.359 OA
HETATM   13  H20         0      71.809 105.059   3.413  1.00  0.00     0.218 HD
ENDBRANCH  10  12
BRANCH   4  14
HETATM   14  C5          0      71.765 109.616   8.671  1.00  0.00     0.025 C 
HETATM   15  C6          0      70.848 110.638   8.869  1.00  0.00     0.004 C 
HETATM   16  C7          0      70.030 110.561   9.992  1.00  0.00     0.026 C 
HETATM   17  C8          0      70.207 109.576  10.958  1.00  0.00     0.112 C 
HETATM   18  C10         0      71.483 109.030  11.002  1.00  0.00     0.112 C 
HETATM   19  C12         0      72.247 109.043   9.841  1.00  0.00     0.028 C 
BRANCH  17  20
HETATM   20  O9          0      69.126 109.060  11.650  1.00  0.00    -0.357 OA
HETATM   21  H9          0      68.963 109.223  12.572  1.00  0.00     0.218 HD
ENDBRANCH  17  20
BRANCH  18  22
HETATM   22  O11         0      71.767 108.183  12.063  1.00  0.00    -0.357 OA
HETATM   23  H11         0      71.831 108.579  12.925  1.00  0.00     0.218 HD
ENDBRANCH  18  22
ENDBRANCH   4  14
BRANCH   8  24
HETATM   24  O17         0      68.505 108.347   2.903  1.00  0.00    -0.359 OA
HETATM   25  H17         0      67.934 107.653   3.212  1.00  0.00     0.218 HD
ENDBRANCH   8  24
TORSDOF 5
ENDMDL
MODEL 3
REMARK VINA RESULT:      -0.0      5.417      8.559
REMARK  5 active torsions:
REMARK  status: ('A' for Active; 'I' for Inactive)
REMARK    1  A    between atoms: C4_4  and  C5_5 
REMARK    2  A    between atoms: C8_8  and  O9_9 
REMARK    3  A    between atoms: C10_11  and  O11_12 
REMARK    4  A    between atoms: C16_18  and  O17_19 
REMARK    5  A    between atoms: C19_22  and  O20_23 
ROOT
HETATM    1  O1          0      74.092 104.941   8.516  1.00  0.00    -0.286 OA
HETATM    2  C2          0      75.147 105.630   8.457  1.00  0.00     0.201 C 
HETATM    3  C3          0      75.298 106.699   7.590  1.00  0.00     0.067 C 
HETATM    4  C4          0      76.507 107.376   7.472  1.00  0.00     0.103 C 
HETATM    5  O13         0      77.524 106.995   8.225  1.00  0.00    -0.307 OA
HETATM    6  C14         0      77.445 105.963   9.036  1.00  0.00     0.107 C 
HETATM    7  C15         0      78.578 105.320   9.512  1.00  0.00     0.049 C 
HETATM    8  C16         0      78.494 104.090  10.154  1.00  0.00     0.093 C 
HETATM    9  C18         0      77.266 103.820  10.747  1.00  0.00     0.048 C 
HETATM   10  C19         0      76.120 104.480  10.326  1.00  0.00     0.096 C 
HETATM   11  C21         0      76.201 105.416   9.332  1.00  0.00     0.084 C 
ENDROOT
BRANCH  10  12
HETATM   12  O20         0      74.875 103.919  10.593  1.00  0.00    -0.359 OA
HETATM   13  H20         0      74.571 103.220  10.027  1.00  0.00     0.218 HD
ENDBRANCH  10  12
BRANCH   4  14
HETATM   14  C5          0      76.783 108.035   6.195  1.00  0.00     0.025 C 
HETATM   15  C6          0      78.070 108.264   5.729  1.00  0.00     0.004 C 
HETATM   16  C7          0      78.300 108.110   4.366  1.00  0.00     0.026 C 
HETATM   17  C8          0      77.260 107.868   3.474  1.00  0.00     0.112 C 
HETATM   18  C10         0      76.010 108.281   3.915  1.00  0.00     0.112 C 
HETATM   19  C12         0      75.781 108.345   5.284  1.00  0.00     0.028 C 
BRANCH  17  20
HETATM   20  O9          0      77.459 107.088   2.348  1.00  0.00    -0.357 OA
HETATM   21  H9          0      78.316 106.818   2.038  1.00  0.00     0.218 HD
ENDBRANCH  17  20
BRANCH  18  22
HETATM   22  O11         0      74.973 108.238   2.994  1.00  0.00    -0.357 OA
HETATM   23  H11         0      74.344 108.949   3.022  1.00  0.00     0.218 HD
ENDBRANCH  18  22
ENDBRANCH   4  14
BRANCH   8  24
HETATM   24  O17         0      79.439 103.083   9.927  1.00  0.00    -0.359 OA
HETATM   25  H17         0      79.236 102.318   9.401  1.00  0.00     0.218 HD
ENDBRANCH   8  24
TORSDOF 5
ENDMDL
MODEL 4
REMARK VINA RESULT:      -0.0      7.243      9.113
REMARK  5 active torsions:
REMARK  status: ('A' for Active; 'I' for Inactive)
REMARK    1  A    between atoms: C4_4  and  C5_5 
REMARK    2  A    between atoms: C8_8  and  O9_9 
REMARK    3  A    between atoms: C10_11  and  O11_12 
REMARK    4  A    between atoms: C16_18  and  O17_19 
REMARK    5  A    between atoms: C19_22  and  O20_23 
ROOT
HETATM    1  O1          0      72.276 107.405  15.785  1.00  0.00    -0.286 OA
HETATM    2  C2          0      71.498 106.424  15.945  1.00  0.00     0.201 C 
HETATM    3  C3          0      71.952 105.132  16.146  1.00  0.00     0.067 C 
HETATM    4  C4          0      71.076 104.055  16.218  1.00  0.00     0.103 C 
HETATM    5  O13         0      69.779 104.283  16.110  1.00  0.00    -0.307 OA
HETATM    6  C14         0      69.298 105.485  15.881  1.00  0.00     0.107 C 
HETATM    7  C15         0      68.019 105.677  15.376  1.00  0.00     0.049 C 
HETATM    8  C16         0      67.610 106.917  14.899  1.00  0.00     0.093 C 
HETATM    9  C18         0      68.297 108.004  15.425  1.00  0.00     0.048 C 
HETATM   10  C19         0      69.559 107.840  15.980  1.00  0.00     0.096 C 
HETATM   11  C21         0      70.124 106.594  16.025  1.00  0.00     0.084 C 
ENDROOT
BRANCH  10  12
HETATM   12  O20         0      70.400 108.942  16.095  1.00  0.00    -0.359 OA
HETATM   13  H20         0      71.200 108.948  15.584  1.00  0.00     0.218 HD
ENDBRANCH  10  12
BRANCH   4  14
HETATM   14  C5          0      71.595 102.742  15.829  1.00  0.00     0.025 C 
HETATM   15  C6          0      70.785 101.729  15.335  1.00  0.00     0.004 C 
HETATM   16  C7          0      71.296 100.936  14.313  1.00  0.00     0.026 C 
HETATM   17  C8          0      72.615 101.056  13.886  1.00  0.00     0.112 C 
HETATM   18  C10         0      73.479 101.606  14.823  1.00  0.00     0.112 C 
HETATM   19  C12         0      72.955 102.463  15.783  1.00  0.00     0.028 C 
BRANCH  17  20
HETATM   20  O9          0      72.954 100.836  12.563  1.00  0.00    -0.357 OA
HETATM   21  H9          0      73.329 100.024  12.242  1.00  0.00     0.218 HD
ENDBRANCH  17  20
BRANCH  18  22
HETATM   22  O11         0      74.834 101.575  14.522  1.00  0.00    -0.357 OA
HETATM   23  H11         0      75.381 102.235  14.932  1.00  0.00     0.218 HD
ENDBRANCH  18  22
ENDBRANCH   4  14
BRANCH   8  24
HETATM   24  O17         0      66.821 107.031  13.749  1.00  0.00    -0.359 OA
HETATM   25  H17         0      67.097 107.552  13.004  1.00  0.00     0.218 HD
ENDBRANCH   8  24
TORSDOF 5
ENDMDL
MODEL 5
REMARK VINA RESULT:       0.0      4.046      4.963
REMARK  5 active torsions:
REMARK  status: ('A' for Active; 'I' for Inactive)
REMARK    1  A    between atoms: C4_4  and  C5_5 
REMARK    2  A    between atoms: C8_8  and  O9_9 
REMARK    3  A    between atoms: C10_11  and  O11_12 
REMARK    4  A    between atoms: C16_18  and  O17_19 
REMARK    5  A    between atoms: C19_22  and  O20_23 
ROOT
HETATM    1  O1          0      72.924 104.119   6.566  1.00  0.00    -0.286 OA
HETATM    2  C2          0      72.226 105.066   6.109  1.00  0.00     0.201 C 
HETATM    3  C3          0      70.978 105.390   6.615  1.00  0.00     0.067 C 
HETATM    4  C4          0      70.186 106.370   6.027  1.00  0.00     0.103 C 
HETATM    5  O13         0      70.653 107.016   4.973  1.00  0.00    -0.307 OA
HETATM    6  C14         0      71.815 106.722   4.431  1.00  0.00     0.107 C 
HETATM    7  C15         0      72.130 107.093   3.132  1.00  0.00     0.049 C 
HETATM    8  C16         0      73.239 106.568   2.480  1.00  0.00     0.093 C 
HETATM    9  C18         0      74.253 106.118   3.317  1.00  0.00     0.048 C 
HETATM   10  C19         0      73.981 105.782   4.637  1.00  0.00     0.096 C 
HETATM   11  C21         0      72.709 105.911   5.122  1.00  0.00     0.084 C 
ENDROOT
BRANCH  10  12
HETATM   12  O20         0      74.859 104.945   5.320  1.00  0.00    -0.359 OA
HETATM   13  H20         0      75.658 105.325   5.665  1.00  0.00     0.218 HD
ENDBRANCH  10  12
BRANCH   4  14
HETATM   14  C5          0      68.737 106.249   6.195  1.00  0.00     0.025 C 
HETATM   15  C6          0      67.829 106.770   5.284  1.00  0.00     0.004 C 
HETATM   16  C7          0      66.685 106.025   5.017  1.00  0.00     0.026 C 
HETATM   17  C8          0      66.385 104.868   5.728  1.00  0.00     0.112 C 
HETATM   18  C10         0      66.976 104.788   6.982  1.00  0.00     0.112 C 
HETATM   19  C12         0      68.165 105.475   7.196  1.00  0.00     0.028 C 
BRANCH  17  20
HETATM   20  O9          0      65.727 103.813   5.120  1.00  0.00    -0.357 OA
HETATM   21  H9          0      64.797 103.812   4.926  1.00  0.00     0.218 HD
ENDBRANCH  17  20
BRANCH  18  22
HETATM   22  O11         0      66.564 103.751   7.806  1.00  0.00    -0.357 OA
HETATM   23  H11         0      65.993 103.979   8.531  1.00  0.00     0.218 HD
ENDBRANCH  18  22
ENDBRANCH   4  14
BRANCH   8  24
HETATM   24  O17         0      73.190 106.214   1.127  1.00  0.00    -0.359 OA
HETATM   25  H17         0      73.978 106.146   0.601  1.00  0.00     0.218 HD
ENDBRANCH   8  24
TORSDOF 5
ENDMDL
MODEL 6
REMARK VINA RESULT:       0.0      6.025      9.125
REMARK  5 active torsions:
REMARK  status: ('A' for Active; 'I' for Inactive)
REMARK    1  A    between atoms: C4_4  and  C5_5 
REMARK    2  A    between atoms: C8_8  and  O9_9 
REMARK    3  A    between atoms: C10_11  and  O11_12 
REMARK    4  A    between atoms: C16_18  and  O17_19 
REMARK    5  A    between atoms: C19_22  and  O20_23 
ROOT
HETATM    1  O1          0      74.596 106.767  10.371  1.00  0.00    -0.286 OA
HETATM    2  C2          0      75.829 106.562  10.199  1.00  0.00     0.201 C 
HETATM    3  C3          0      76.574 107.229   9.242  1.00  0.00     0.067 C 
HETATM    4  C4          0      77.907 106.912   9.003  1.00  0.00     0.103 C 
HETATM    5  O13         0      78.472 105.962   9.727  1.00  0.00    -0.307 OA
HETATM    6  C14         0      77.799 105.272  10.623  1.00  0.00     0.107 C 
HETATM    7  C15         0      78.248 104.043  11.087  1.00  0.00     0.049 C 
HETATM    8  C16         0      77.423 103.207  11.829  1.00  0.00     0.093 C 
HETATM    9  C18         0      76.395 103.850  12.508  1.00  0.00     0.048 C 
HETATM   10  C19         0      75.952 105.101  12.099  1.00  0.00     0.096 C 
HETATM   11  C21         0      76.545 105.714  11.029  1.00  0.00     0.084 C 
ENDROOT
BRANCH  10  12
HETATM   12  O20         0      74.685 105.532  12.478  1.00  0.00    -0.359 OA
HETATM   13  H20         0      74.624 106.291  13.045  1.00  0.00     0.218 HD
ENDBRANCH  10  12
BRANCH   4  14
HETATM   14  C5          0      78.431 107.182   7.663  1.00  0.00     0.025 C 
HETATM   15  C6          0      79.487 106.472   7.112  1.00  0.00     0.004 C 
HETATM   16  C7          0      79.423 106.173   5.755  1.00  0.00     0.026 C 
HETATM   17  C8          0      78.411 106.675   4.943  1.00  0.00     0.112 C 
HETATM   18  C10         0      77.810 107.833   5.417  1.00  0.00     0.112 C 
HETATM   19  C12         0      77.814 108.066   6.788  1.00  0.00     0.028 C 
BRANCH  17  20
HETATM   20  O9          0      77.928 105.940   3.875  1.00  0.00    -0.357 OA
HETATM   21  H9          0      78.467 105.368   3.341  1.00  0.00     0.218 HD
ENDBRANCH  17  20
BRANCH  18  22
HETATM   22  O11         0      76.930 108.480   4.561  1.00  0.00    -0.357 OA
HETATM   23  H11         0      76.127 108.020   4.342  1.00  0.00     0.218 HD
ENDBRANCH  18  22
ENDBRANCH   4  14
BRANCH   8  24
HETATM   24  O17         0      77.422 101.822  11.633  1.00  0.00    -0.359 OA
HETATM   25  H17         0      78.138 101.275  11.934  1.00  0.00     0.218 HD
ENDBRANCH   8  24
TORSDOF 5
ENDMDL
MODEL 7
REMARK VINA RESULT:       0.0      3.993      6.202
REMARK  5 active torsions:
REMARK  status: ('A' for Active; 'I' for Inactive)
REMARK    1  A    between atoms: C4_4  and  C5_5 
REMARK    2  A    between atoms: C8_8  and  O9_9 
REMARK    3  A    between atoms: C10_11  and  O11_12 
REMARK    4  A    between atoms: C16_18  and  O17_19 
REMARK    5  A    between atoms: C19_22  and  O20_23 
ROOT
HETATM    1  O1          0      76.830 107.716  11.815  1.00  0.00    -0.286 OA
HETATM    2  C2          0      75.732 107.311  11.345  1.00  0.00     0.201 C 
HETATM    3  C3          0      74.972 108.059  10.463  1.00  0.00     0.067 C 
HETATM    4  C4          0      73.717 107.635  10.041  1.00  0.00     0.103 C 
HETATM    5  O13         0      73.257 106.477  10.482  1.00  0.00    -0.307 OA
HETATM    6  C14         0      73.921 105.746  11.349  1.00  0.00     0.107 C 
HETATM    7  C15         0      73.298 104.766  12.108  1.00  0.00     0.049 C 
HETATM    8  C16         0      73.938 104.177  13.193  1.00  0.00     0.093 C 
HETATM    9  C18         0      75.326 104.211  13.144  1.00  0.00     0.048 C 
HETATM   10  C19         0      75.982 105.149  12.359  1.00  0.00     0.096 C 
HETATM   11  C21         0      75.256 106.036  11.612  1.00  0.00     0.084 C 
ENDROOT
BRANCH  10  12
HETATM   12  O20         0      77.308 105.464  12.640  1.00  0.00    -0.359 OA
HETATM   13  H20         0      77.973 105.182  12.024  1.00  0.00     0.218 HD
ENDBRANCH  10  12
BRANCH   4  14
HETATM   14  C5          0      72.760 108.668   9.641  1.00  0.00     0.025 C 
HETATM   15  C6          0      71.386 108.491   9.721  1.00  0.00     0.004 C 
HETATM   16  C7          0      70.618 109.582  10.117  1.00  0.00     0.026 C 
HETATM   17  C8          0      71.179 110.842  10.297  1.00  0.00     0.112 C 
HETATM   18  C10         0      72.363 111.054   9.603  1.00  0.00     0.112 C 
HETATM   19  C12         0      73.154 109.954   9.295  1.00  0.00     0.028 C 
BRANCH  17  20
HETATM   20  O9          0      70.686 111.706  11.259  1.00  0.00    -0.357 OA
HETATM   21  H9          0      69.939 111.510  11.812  1.00  0.00     0.218 HD
ENDBRANCH  17  20
BRANCH  18  22
HETATM   22  O11         0      72.863 112.348   9.596  1.00  0.00    -0.357 OA
HETATM   23  H11         0      73.647 112.509  10.108  1.00  0.00     0.218 HD
ENDBRANCH  18  22
ENDBRANCH   4  14
BRANCH   8  24
HETATM   24  O17         0      73.249 103.888  14.376  1.00  0.00    -0.359 OA
HETATM   25  H17         0      72.835 103.045  14.519  1.00  0.00     0.218 HD
ENDBRANCH   8  24
TORSDOF 5
ENDMDL
MODEL 8
REMARK VINA RESULT:       0.0      7.710     10.821
REMARK  5 active torsions:
REMARK  status: ('A' for Active; 'I' for Inactive)
REMARK    1  A    between atoms: C4_4  and  C5_5 
REMARK    2  A    between atoms: C8_8  and  O9_9 
REMARK    3  A    between atoms: C10_11  and  O11_12 
REMARK    4  A    between atoms: C16_18  and  O17_19 
REMARK    5  A    between atoms: C19_22  and  O20_23 
ROOT
HETATM    1  O1          0      68.482 115.164  15.766  1.00  0.00    -0.286 OA
HETATM    2  C2          0      69.479 114.412  15.941  1.00  0.00     0.201 C 
HETATM    3  C3          0      70.757 114.898  16.159  1.00  0.00     0.067 C 
HETATM    4  C4          0      71.855 114.048  16.246  1.00  0.00     0.103 C 
HETATM    5  O13         0      71.660 112.746  16.137  1.00  0.00    -0.307 OA
HETATM    6  C14         0      70.473 112.235  15.892  1.00  0.00     0.107 C 
HETATM    7  C15         0      70.320 110.952  15.387  1.00  0.00     0.049 C 
HETATM    8  C16         0      69.098 110.511  14.894  1.00  0.00     0.093 C 
HETATM    9  C18         0      67.987 111.172  15.404  1.00  0.00     0.048 C 
HETATM   10  C19         0      68.112 112.438  15.959  1.00  0.00     0.096 C 
HETATM   11  C21         0      69.342 113.034  16.020  1.00  0.00     0.084 C 
ENDROOT
BRANCH  10  12
HETATM   12  O20         0      66.987 113.252  16.059  1.00  0.00    -0.359 OA
HETATM   13  H20         0      66.242 113.051  15.505  1.00  0.00     0.218 HD
ENDBRANCH  10  12
BRANCH   4  14
HETATM   14  C5          0      73.159 114.599  15.874  1.00  0.00     0.025 C 
HETATM   15  C6          0      74.198 113.815  15.395  1.00  0.00     0.004 C 
HETATM   16  C7          0      74.992 114.344  14.383  1.00  0.00     0.026 C 
HETATM   17  C8          0      74.845 115.659  13.953  1.00  0.00     0.112 C 
HETATM   18  C10         0      74.262 116.511  14.882  1.00  0.00     0.112 C 
HETATM   19  C12         0      73.405 115.966  15.831  1.00  0.00     0.028 C 
BRANCH  17  20
HETATM   20  O9          0      75.074 116.003  12.633  1.00  0.00    -0.357 OA
HETATM   21  H9          0      75.834 116.493  12.339  1.00  0.00     0.218 HD
ENDBRANCH  17  20
BRANCH  18  22
HETATM   22  O11         0      74.264 117.865  14.580  1.00  0.00    -0.357 OA
HETATM   23  H11         0      73.507 118.369  14.857  1.00  0.00     0.218 HD
ENDBRANCH  18  22
ENDBRANCH   4  14
BRANCH   8  24
HETATM   24  O17         0      69.019 109.718  13.744  1.00  0.00    -0.359 OA
HETATM   25  H17         0      69.381 108.841  13.717  1.00  0.00     0.218 HD
ENDBRANCH   8  24
TORSDOF 5
ENDMDL
MODEL 9
REMARK VINA RESULT:       0.0      5.022      7.100
REMARK  5 active torsions:
REMARK  status: ('A' for Active; 'I' for Inactive)
REMARK    1  A    between atoms: C4_4  and  C5_5 
REMARK    2  A    between atoms: C8_8  and  O9_9 
REMARK    3  A    between atoms: C10_11  and  O11_12 
REMARK    4  A    between atoms: C16_18  and  O17_19 
REMARK    5  A    between atoms: C19_22  and  O20_23 
ROOT
HETATM    1  O1          0      69.106 108.141   7.995  1.00  0.00    -0.286 OA
HETATM    2  C2          0      68.157 108.101   8.825  1.00  0.00     0.201 C 
HETATM    3  C3          0      67.346 106.990   8.985  1.00  0.00     0.067 C 
HETATM    4  C4          0      66.244 107.009   9.832  1.00  0.00     0.103 C 
HETATM    5  O13         0      65.984 108.112  10.512  1.00  0.00    -0.307 OA
HETATM    6  C14         0      66.699 109.206  10.369  1.00  0.00     0.107 C 
HETATM    7  C15         0      66.217 110.450  10.750  1.00  0.00     0.049 C 
HETATM    8  C16         0      66.859 111.621  10.368  1.00  0.00     0.093 C 
HETATM    9  C18         0      68.212 111.482  10.082  1.00  0.00     0.048 C 
HETATM   10  C19         0      68.737 110.242   9.743  1.00  0.00     0.096 C 
HETATM   11  C21         0      67.920 109.146   9.706  1.00  0.00     0.084 C 
ENDROOT
BRANCH  10  12
HETATM   12  O20         0      69.944 110.181   9.052  1.00  0.00    -0.359 OA
HETATM   13  H20         0      70.699 110.611   9.435  1.00  0.00     0.218 HD
ENDBRANCH  10  12
BRANCH   4  14
HETATM   14  C5          0      65.141 106.099   9.515  1.00  0.00     0.025 C 
HETATM   15  C6          0      63.828 106.353   9.884  1.00  0.00     0.004 C 
HETATM   16  C7          0      62.827 106.008   8.982  1.00  0.00     0.026 C 
HETATM   17  C8          0      63.108 105.312   7.811  1.00  0.00     0.112 C 
HETATM   18  C10         0      64.284 104.575   7.844  1.00  0.00     0.112 C 
HETATM   19  C12         0      65.302 104.992   8.693  1.00  0.00     0.028 C 
BRANCH  17  20
HETATM   20  O9          0      62.369 105.531   6.662  1.00  0.00    -0.357 OA
HETATM   21  H9          0      61.928 106.349   6.466  1.00  0.00     0.218 HD
ENDBRANCH  17  20
BRANCH  18  22
HETATM   22  O11         0      64.517 103.716   6.779  1.00  0.00    -0.357 OA
HETATM   23  H11         0      65.389 103.724   6.403  1.00  0.00     0.218 HD
ENDBRANCH  18  22
ENDBRANCH   4  14
BRANCH   8  24
HETATM   24  O17         0      66.138 112.755   9.979  1.00  0.00    -0.359 OA
HETATM   25  H17         0      66.563 113.594   9.842  1.00  0.00     0.218 HD
ENDBRANCH   8  24
TORSDOF 5
ENDMDL
