MODEL 1
REMARK VINA RESULT:      -7.7      0.000      0.000
REMARK  5 active torsions:
REMARK  status: ('A' for Active; 'I' for Inactive)
REMARK    1  A    between atoms: C4_4  and  C5_5 
REMARK    2  A    between atoms: C8_8  and  O9_9 
REMARK    3  A    between atoms: C10_11  and  O11_12 
REMARK    4  A    between atoms: C16_18  and  O17_19 
REMARK    5  A    between atoms: C19_22  and  O20_23 
ROOT
HETATM    1  O1          0      46.779  43.649  15.247  1.00  0.00    -0.286 OA
HETATM    2  C2          0      46.333  43.655  16.427  1.00  0.00     0.201 C 
HETATM    3  C3          0      45.047  44.059  16.741  1.00  0.00     0.067 C 
HETATM    4  C4          0      44.614  44.154  18.059  1.00  0.00     0.103 C 
HETATM    5  O13         0      45.453  43.830  19.027  1.00  0.00    -0.307 OA
HETATM    6  C14         0      46.696  43.477  18.786  1.00  0.00     0.107 C 
HETATM    7  C15         0      47.674  43.525  19.769  1.00  0.00     0.049 C 
HETATM    8  C16         0      49.022  43.399  19.454  1.00  0.00     0.093 C 
HETATM    9  C18         0      49.287  42.716  18.273  1.00  0.00     0.048 C 
HETATM   10  C19         0      48.315  42.608  17.287  1.00  0.00     0.096 C 
HETATM   11  C21         0      47.081  43.164  17.486  1.00  0.00     0.084 C 
ENDROOT
BRANCH  10  12
HETATM   12  O20         0      48.701  42.327  15.980  1.00  0.00    -0.359 OA
HETATM   13  H20         0      48.347  41.547  15.569  1.00  0.00     0.218 HD
ENDBRANCH  10  12
BRANCH   4  14
HETATM   14  C5          0      43.544  45.111  18.345  1.00  0.00     0.025 C 
HETATM   15  C6          0      43.302  45.611  19.616  1.00  0.00     0.004 C 
HETATM   16  C7          0      42.934  46.949  19.723  1.00  0.00     0.026 C 
HETATM   17  C8          0      42.684  47.729  18.599  1.00  0.00     0.112 C 
HETATM   18  C10         0      42.335  47.012  17.462  1.00  0.00     0.112 C 
HETATM   19  C12         0      42.787  45.704  17.342  1.00  0.00     0.028 C 
BRANCH  17  20
HETATM   20  O9          0      42.976  49.081  18.596  1.00  0.00    -0.357 OA
HETATM   21  H9          0      43.788  49.445  18.262  1.00  0.00     0.218 HD
ENDBRANCH  17  20
BRANCH  18  22
HETATM   22  O11         0      41.893  47.744  16.369  1.00  0.00    -0.357 OA
HETATM   23  H11         0      41.255  48.428  16.539  1.00  0.00     0.218 HD
ENDBRANCH  18  22
ENDBRANCH   4  14
BRANCH   8  24
HETATM   24  O17         0      49.995  44.182  20.086  1.00  0.00    -0.359 OA
HETATM   25  H17         0      50.507  43.850  20.813  1.00  0.00     0.218 HD
ENDBRANCH   8  24
TORSDOF 5
ENDMDL
MODEL 2
REMARK VINA RESULT:      -7.2      9.202     10.623
REMARK  5 active torsions:
REMARK  status: ('A' for Active; 'I' for Inactive)
REMARK    1  A    between atoms: C4_4  and  C5_5 
REMARK    2  A    between atoms: C8_8  and  O9_9 
REMARK    3  A    between atoms: C10_11  and  O11_12 
REMARK    4  A    between atoms: C16_18  and  O17_19 
REMARK    5  A    between atoms: C19_22  and  O20_23 
ROOT
HETATM    1  O1          0      39.222  54.211  21.097  1.00  0.00    -0.286 OA
HETATM    2  C2          0      40.034  53.958  20.165  1.00  0.00     0.201 C 
HETATM    3  C3          0      39.642  53.408  18.956  1.00  0.00     0.067 C 
HETATM    4  C4          0      40.568  53.043  17.986  1.00  0.00     0.103 C 
HETATM    5  O13         0      41.852  53.248  18.226  1.00  0.00    -0.307 OA
HETATM    6  C14         0      42.281  53.732  19.371  1.00  0.00     0.107 C 
HETATM    7  C15         0      43.597  53.579  19.782  1.00  0.00     0.049 C 
HETATM    8  C16         0      43.983  53.860  21.087  1.00  0.00     0.093 C 
HETATM    9  C18         0      43.168  54.764  21.758  1.00  0.00     0.048 C 
HETATM   10  C19         0      41.860  54.976  21.345  1.00  0.00     0.096 C 
HETATM   11  C21         0      41.374  54.303  20.257  1.00  0.00     0.084 C 
ENDROOT
BRANCH  10  12
HETATM   12  O20         0      40.943  55.518  22.240  1.00  0.00    -0.359 OA
HETATM   13  H20         0      40.037  55.244  22.169  1.00  0.00     0.218 HD
ENDBRANCH  10  12
BRANCH   4  14
HETATM   14  C5          0      40.186  51.974  17.063  1.00  0.00     0.025 C 
HETATM   15  C6          0      39.080  51.162  17.269  1.00  0.00     0.004 C 
HETATM   16  C7          0      38.330  50.799  16.155  1.00  0.00     0.026 C 
HETATM   17  C8          0      38.739  51.119  14.865  1.00  0.00     0.112 C 
HETATM   18  C10         0      40.102  51.344  14.728  1.00  0.00     0.112 C 
HETATM   19  C12         0      40.812  51.789  15.837  1.00  0.00     0.028 C 
BRANCH  17  20
HETATM   20  O9          0      37.812  51.390  13.874  1.00  0.00    -0.357 OA
HETATM   21  H9          0      37.329  50.719  13.405  1.00  0.00     0.218 HD
ENDBRANCH  17  20
BRANCH  18  22
HETATM   22  O11         0      40.590  51.480  13.437  1.00  0.00    -0.357 OA
HETATM   23  H11         0      40.004  51.860  12.793  1.00  0.00     0.218 HD
ENDBRANCH  18  22
ENDBRANCH   4  14
BRANCH   8  24
HETATM   24  O17         0      44.900  53.051  21.766  1.00  0.00    -0.359 OA
HETATM   25  H17         0      45.203  52.227  21.404  1.00  0.00     0.218 HD
ENDBRANCH   8  24
TORSDOF 5
ENDMDL
MODEL 3
REMARK VINA RESULT:      -7.1      1.774      6.891
REMARK  5 active torsions:
REMARK  status: ('A' for Active; 'I' for Inactive)
REMARK    1  A    between atoms: C4_4  and  C5_5 
REMARK    2  A    between atoms: C8_8  and  O9_9 
REMARK    3  A    between atoms: C10_11  and  O11_12 
REMARK    4  A    between atoms: C16_18  and  O17_19 
REMARK    5  A    between atoms: C19_22  and  O20_23 
ROOT
HETATM    1  O1          0      43.194  45.602  21.872  1.00  0.00    -0.286 OA
HETATM    2  C2          0      43.551  45.125  20.760  1.00  0.00     0.201 C 
HETATM    3  C3          0      44.725  44.410  20.593  1.00  0.00     0.067 C 
HETATM    4  C4          0      45.146  43.984  19.339  1.00  0.00     0.103 C 
HETATM    5  O13         0      44.390  44.254  18.290  1.00  0.00    -0.307 OA
HETATM    6  C14         0      43.285  44.961  18.388  1.00  0.00     0.107 C 
HETATM    7  C15         0      42.714  45.581  17.286  1.00  0.00     0.049 C 
HETATM    8  C16         0      41.705  46.526  17.432  1.00  0.00     0.093 C 
HETATM    9  C18         0      40.966  46.419  18.604  1.00  0.00     0.048 C 
HETATM   10  C19         0      41.489  45.765  19.710  1.00  0.00     0.096 C 
HETATM   11  C21         0      42.736  45.205  19.642  1.00  0.00     0.084 C 
ENDROOT
BRANCH  10  12
HETATM   12  O20         0      40.962  46.031  20.970  1.00  0.00    -0.359 OA
HETATM   13  H20         0      41.522  46.462  21.605  1.00  0.00     0.218 HD
ENDBRANCH  10  12
BRANCH   4  14
HETATM   14  C5          0      46.585  43.800  19.142  1.00  0.00     0.025 C 
HETATM   15  C6          0      47.466  43.584  20.191  1.00  0.00     0.004 C 
HETATM   16  C7          0      48.507  42.684  19.984  1.00  0.00     0.026 C 
HETATM   17  C8          0      48.746  42.120  18.736  1.00  0.00     0.112 C 
HETATM   18  C10         0      48.250  42.850  17.665  1.00  0.00     0.112 C 
HETATM   19  C12         0      47.154  43.678  17.881  1.00  0.00     0.028 C 
BRANCH  17  20
HETATM   20  O9          0      49.247  40.835  18.623  1.00  0.00    -0.357 OA
HETATM   21  H9          0      48.709  40.053  18.665  1.00  0.00     0.218 HD
ENDBRANCH  17  20
BRANCH  18  22
HETATM   22  O11         0      48.621  42.434  16.394  1.00  0.00    -0.357 OA
HETATM   23  H11         0      48.264  41.607  16.091  1.00  0.00     0.218 HD
ENDBRANCH  18  22
ENDBRANCH   4  14
BRANCH   8  24
HETATM   24  O17         0      41.665  47.678  16.639  1.00  0.00    -0.359 OA
HETATM   25  H17         0      41.215  47.693  15.803  1.00  0.00     0.218 HD
ENDBRANCH   8  24
TORSDOF 5
ENDMDL
MODEL 4
REMARK VINA RESULT:      -6.9      2.964      5.541
REMARK  5 active torsions:
REMARK  status: ('A' for Active; 'I' for Inactive)
REMARK    1  A    between atoms: C4_4  and  C5_5 
REMARK    2  A    between atoms: C8_8  and  O9_9 
REMARK    3  A    between atoms: C10_11  and  O11_12 
REMARK    4  A    between atoms: C16_18  and  O17_19 
REMARK    5  A    between atoms: C19_22  and  O20_23 
ROOT
HETATM    1  O1          0      48.944  43.205  18.234  1.00  0.00    -0.286 OA
HETATM    2  C2          0      47.760  43.499  18.554  1.00  0.00     0.201 C 
HETATM    3  C3          0      47.367  43.705  19.866  1.00  0.00     0.067 C 
HETATM    4  C4          0      46.036  43.927  20.201  1.00  0.00     0.103 C 
HETATM    5  O13         0      45.135  43.961  19.235  1.00  0.00    -0.307 OA
HETATM    6  C14         0      45.449  43.735  17.978  1.00  0.00     0.107 C 
HETATM    7  C15         0      44.493  43.376  17.039  1.00  0.00     0.049 C 
HETATM    8  C16         0      44.857  42.894  15.787  1.00  0.00     0.093 C 
HETATM    9  C18         0      46.117  43.286  15.350  1.00  0.00     0.048 C 
HETATM   10  C19         0      47.082  43.696  16.260  1.00  0.00     0.096 C 
HETATM   11  C21         0      46.786  43.731  17.595  1.00  0.00     0.084 C 
ENDROOT
BRANCH  10  12
HETATM   12  O20         0      48.423  43.662  15.889  1.00  0.00    -0.359 OA
HETATM   13  H20         0      48.642  43.878  14.991  1.00  0.00     0.218 HD
ENDBRANCH  10  12
BRANCH   4  14
HETATM   14  C5          0      45.610  43.540  21.547  1.00  0.00     0.025 C 
HETATM   15  C6          0      44.318  43.734  22.013  1.00  0.00     0.004 C 
HETATM   16  C7          0      43.768  42.744  22.820  1.00  0.00     0.026 C 
HETATM   17  C8          0      44.520  41.661  23.261  1.00  0.00     0.112 C 
HETATM   18  C10         0      45.892  41.878  23.283  1.00  0.00     0.112 C 
HETATM   19  C12         0      46.426  42.814  22.406  1.00  0.00     0.028 C 
BRANCH  17  20
HETATM   20  O9          0      43.936  40.420  23.447  1.00  0.00    -0.357 OA
HETATM   21  H9          0      44.064  39.888  24.224  1.00  0.00     0.218 HD
ENDBRANCH  17  20
BRANCH  18  22
HETATM   22  O11         0      46.673  40.905  23.890  1.00  0.00    -0.357 OA
HETATM   23  H11         0      46.730  40.064  23.450  1.00  0.00     0.218 HD
ENDBRANCH  18  22
ENDBRANCH   4  14
BRANCH   8  24
HETATM   24  O17         0      44.163  41.840  15.181  1.00  0.00    -0.359 OA
HETATM   25  H17         0      43.219  41.858  15.080  1.00  0.00     0.218 HD
ENDBRANCH   8  24
TORSDOF 5
ENDMDL
MODEL 5
REMARK VINA RESULT:      -6.9      1.981      6.865
REMARK  5 active torsions:
REMARK  status: ('A' for Active; 'I' for Inactive)
REMARK    1  A    between atoms: C4_4  and  C5_5 
REMARK    2  A    between atoms: C8_8  and  O9_9 
REMARK    3  A    between atoms: C10_11  and  O11_12 
REMARK    4  A    between atoms: C16_18  and  O17_19 
REMARK    5  A    between atoms: C19_22  and  O20_23 
ROOT
HETATM    1  O1          0      42.192  45.136  21.146  1.00  0.00    -0.286 OA
HETATM    2  C2          0      42.342  45.084  19.895  1.00  0.00     0.201 C 
HETATM    3  C3          0      43.114  44.118  19.272  1.00  0.00     0.067 C 
HETATM    4  C4          0      43.347  44.144  17.901  1.00  0.00     0.103 C 
HETATM    5  O13         0      42.798  45.107  17.182  1.00  0.00    -0.307 OA
HETATM    6  C14         0      42.088  46.069  17.729  1.00  0.00     0.107 C 
HETATM    7  C15         0      41.853  47.268  17.071  1.00  0.00     0.049 C 
HETATM    8  C16         0      41.329  48.368  17.740  1.00  0.00     0.093 C 
HETATM    9  C18         0      40.586  48.065  18.875  1.00  0.00     0.048 C 
HETATM   10  C19         0      40.762  46.854  19.531  1.00  0.00     0.096 C 
HETATM   11  C21         0      41.662  45.944  19.047  1.00  0.00     0.084 C 
ENDROOT
BRANCH  10  12
HETATM   12  O20         0      40.365  46.736  20.859  1.00  0.00    -0.359 OA
HETATM   13  H20         0      39.709  46.083  21.072  1.00  0.00     0.218 HD
ENDBRANCH  10  12
BRANCH   4  14
HETATM   14  C5          0      44.582  43.522  17.420  1.00  0.00     0.025 C 
HETATM   15  C6          0      44.678  42.899  16.184  1.00  0.00     0.004 C 
HETATM   16  C7          0      45.862  43.062  15.471  1.00  0.00     0.026 C 
HETATM   17  C8          0      46.963  43.707  16.023  1.00  0.00     0.112 C 
HETATM   18  C10         0      46.993  43.717  17.411  1.00  0.00     0.112 C 
HETATM   19  C12         0      45.788  43.639  18.099  1.00  0.00     0.028 C 
BRANCH  17  20
HETATM   20  O9          0      47.821  44.448  15.231  1.00  0.00    -0.357 OA
HETATM   21  H9          0      47.726  45.382  15.079  1.00  0.00     0.218 HD
ENDBRANCH  17  20
BRANCH  18  22
HETATM   22  O11         0      48.157  44.178  18.011  1.00  0.00    -0.357 OA
HETATM   23  H11         0      48.867  43.553  18.109  1.00  0.00     0.218 HD
ENDBRANCH  18  22
ENDBRANCH   4  14
BRANCH   8  24
HETATM   24  O17         0      41.792  49.664  17.489  1.00  0.00    -0.359 OA
HETATM   25  H17         0      42.361  49.856  16.753  1.00  0.00     0.218 HD
ENDBRANCH   8  24
TORSDOF 5
ENDMDL
MODEL 6
REMARK VINA RESULT:      -6.8      3.148      6.479
REMARK  5 active torsions:
REMARK  status: ('A' for Active; 'I' for Inactive)
REMARK    1  A    between atoms: C4_4  and  C5_5 
REMARK    2  A    between atoms: C8_8  and  O9_9 
REMARK    3  A    between atoms: C10_11  and  O11_12 
REMARK    4  A    between atoms: C16_18  and  O17_19 
REMARK    5  A    between atoms: C19_22  and  O20_23 
ROOT
HETATM    1  O1          0      49.592  42.216  17.536  1.00  0.00    -0.286 OA
HETATM    2  C2          0      48.714  42.568  18.371  1.00  0.00     0.201 C 
HETATM    3  C3          0      48.818  42.302  19.726  1.00  0.00     0.067 C 
HETATM    4  C4          0      47.789  42.609  20.610  1.00  0.00     0.103 C 
HETATM    5  O13         0      46.699  43.187  20.138  1.00  0.00    -0.307 OA
HETATM    6  C14         0      46.533  43.427  18.856  1.00  0.00     0.107 C 
HETATM    7  C15         0      45.278  43.650  18.309  1.00  0.00     0.049 C 
HETATM    8  C16         0      45.078  43.649  16.934  1.00  0.00     0.093 C 
HETATM    9  C18         0      46.205  43.948  16.178  1.00  0.00     0.048 C 
HETATM   10  C19         0      47.477  43.780  16.709  1.00  0.00     0.096 C 
HETATM   11  C21         0      47.622  43.334  17.995  1.00  0.00     0.084 C 
ENDROOT
BRANCH  10  12
HETATM   12  O20         0      48.563  43.655  15.849  1.00  0.00    -0.359 OA
HETATM   13  H20         0      48.605  44.235  15.097  1.00  0.00     0.218 HD
ENDBRANCH  10  12
BRANCH   4  14
HETATM   14  C5          0      47.689  41.802  21.827  1.00  0.00     0.025 C 
HETATM   15  C6          0      48.639  40.856  22.182  1.00  0.00     0.004 C 
HETATM   16  C7          0      48.960  40.739  23.531  1.00  0.00     0.026 C 
HETATM   17  C8          0      48.266  41.443  24.509  1.00  0.00     0.112 C 
HETATM   18  C10         0      46.986  41.837  24.142  1.00  0.00     0.112 C 
HETATM   19  C12         0      46.716  42.028  22.792  1.00  0.00     0.028 C 
BRANCH  17  20
HETATM   20  O9          0      48.904  41.880  25.656  1.00  0.00    -0.357 OA
HETATM   21  H9          0      48.618  42.628  26.167  1.00  0.00     0.218 HD
ENDBRANCH  17  20
BRANCH  18  22
HETATM   22  O11         0      46.183  42.373  25.138  1.00  0.00    -0.357 OA
HETATM   23  H11         0      45.313  42.004  25.235  1.00  0.00     0.218 HD
ENDBRANCH  18  22
ENDBRANCH   4  14
BRANCH   8  24
HETATM   24  O17         0      43.941  43.068  16.363  1.00  0.00    -0.359 OA
HETATM   25  H17         0      43.926  42.156  16.099  1.00  0.00     0.218 HD
ENDBRANCH   8  24
TORSDOF 5
ENDMDL
MODEL 7
REMARK VINA RESULT:      -6.7      2.980      4.785
REMARK  5 active torsions:
REMARK  status: ('A' for Active; 'I' for Inactive)
REMARK    1  A    between atoms: C4_4  and  C5_5 
REMARK    2  A    between atoms: C8_8  and  O9_9 
REMARK    3  A    between atoms: C10_11  and  O11_12 
REMARK    4  A    between atoms: C16_18  and  O17_19 
REMARK    5  A    between atoms: C19_22  and  O20_23 
ROOT
HETATM    1  O1          0      48.682  43.060  18.496  1.00  0.00    -0.286 OA
HETATM    2  C2          0      47.494  43.430  18.707  1.00  0.00     0.201 C 
HETATM    3  C3          0      47.011  43.716  19.973  1.00  0.00     0.067 C 
HETATM    4  C4          0      45.672  44.022  20.190  1.00  0.00     0.103 C 
HETATM    5  O13         0      44.853  44.058  19.153  1.00  0.00    -0.307 OA
HETATM    6  C14         0      45.252  43.758  17.937  1.00  0.00     0.107 C 
HETATM    7  C15         0      44.355  43.405  16.939  1.00  0.00     0.049 C 
HETATM    8  C16         0      44.788  42.847  15.743  1.00  0.00     0.093 C 
HETATM    9  C18         0      46.098  43.153  15.393  1.00  0.00     0.048 C 
HETATM   10  C19         0      47.010  43.554  16.359  1.00  0.00     0.096 C 
HETATM   11  C21         0      46.613  43.667  17.664  1.00  0.00     0.084 C 
ENDROOT
BRANCH  10  12
HETATM   12  O20         0      48.372  43.434  16.100  1.00  0.00    -0.359 OA
HETATM   13  H20         0      48.711  42.573  15.889  1.00  0.00     0.218 HD
ENDBRANCH  10  12
BRANCH   4  14
HETATM   14  C5          0      45.122  43.721  21.513  1.00  0.00     0.025 C 
HETATM   15  C6          0      45.887  43.195  22.543  1.00  0.00     0.004 C 
HETATM   16  C7          0      45.637  43.656  23.832  1.00  0.00     0.026 C 
HETATM   17  C8          0      44.574  44.509  24.108  1.00  0.00     0.112 C 
HETATM   18  C10         0      43.537  44.461  23.185  1.00  0.00     0.112 C 
HETATM   19  C12         0      43.832  44.079  21.881  1.00  0.00     0.028 C 
BRANCH  17  20
HETATM   20  O9          0      44.670  45.463  25.105  1.00  0.00    -0.357 OA
HETATM   21  H9          0      44.097  45.494  25.863  1.00  0.00     0.218 HD
ENDBRANCH  17  20
BRANCH  18  22
HETATM   22  O11         0      42.375  45.146  23.508  1.00  0.00    -0.357 OA
HETATM   23  H11         0      42.421  46.096  23.505  1.00  0.00     0.218 HD
ENDBRANCH  18  22
ENDBRANCH   4  14
BRANCH   8  24
HETATM   24  O17         0      44.087  41.804  15.128  1.00  0.00    -0.359 OA
HETATM   25  H17         0      44.526  41.158  14.587  1.00  0.00     0.218 HD
ENDBRANCH   8  24
TORSDOF 5
ENDMDL
MODEL 8
REMARK VINA RESULT:      -6.6      1.806      2.257
REMARK  5 active torsions:
REMARK  status: ('A' for Active; 'I' for Inactive)
REMARK    1  A    between atoms: C4_4  and  C5_5 
REMARK    2  A    between atoms: C8_8  and  O9_9 
REMARK    3  A    between atoms: C10_11  and  O11_12 
REMARK    4  A    between atoms: C16_18  and  O17_19 
REMARK    5  A    between atoms: C19_22  and  O20_23 
ROOT
HETATM    1  O1          0      45.915  43.689  15.435  1.00  0.00    -0.286 OA
HETATM    2  C2          0      45.661  43.748  16.670  1.00  0.00     0.201 C 
HETATM    3  C3          0      44.455  44.214  17.166  1.00  0.00     0.067 C 
HETATM    4  C4          0      44.239  44.365  18.532  1.00  0.00     0.103 C 
HETATM    5  O13         0      45.208  44.036  19.368  1.00  0.00    -0.307 OA
HETATM    6  C14         0      46.384  43.625  18.948  1.00  0.00     0.107 C 
HETATM    7  C15         0      47.506  43.662  19.764  1.00  0.00     0.049 C 
HETATM    8  C16         0      48.782  43.472  19.246  1.00  0.00     0.093 C 
HETATM    9  C18         0      48.833  42.744  18.063  1.00  0.00     0.048 C 
HETATM   10  C19         0      47.715  42.647  17.246  1.00  0.00     0.096 C 
HETATM   11  C21         0      46.548  43.259  17.616  1.00  0.00     0.084 C 
ENDROOT
BRANCH  10  12
HETATM   12  O20         0      47.879  42.312  15.906  1.00  0.00    -0.359 OA
HETATM   13  H20         0      48.467  42.843  15.383  1.00  0.00     0.218 HD
ENDBRANCH  10  12
BRANCH   4  14
HETATM   14  C5          0      43.262  45.373  18.947  1.00  0.00     0.025 C 
HETATM   15  C6          0      42.264  45.844  18.107  1.00  0.00     0.004 C 
HETATM   16  C7          0      41.014  46.092  18.666  1.00  0.00     0.026 C 
HETATM   17  C8          0      40.798  46.005  20.037  1.00  0.00     0.112 C 
HETATM   18  C10         0      41.939  46.158  20.814  1.00  0.00     0.112 C 
HETATM   19  C12         0      43.167  45.822  20.258  1.00  0.00     0.028 C 
BRANCH  17  20
HETATM   20  O9          0      39.578  45.586  20.538  1.00  0.00    -0.357 OA
HETATM   21  H9          0      39.382  44.685  20.766  1.00  0.00     0.218 HD
ENDBRANCH  17  20
BRANCH  18  22
HETATM   22  O11         0      41.755  46.268  22.185  1.00  0.00    -0.357 OA
HETATM   23  H11         0      41.188  45.626  22.596  1.00  0.00     0.218 HD
ENDBRANCH  18  22
ENDBRANCH   4  14
BRANCH   8  24
HETATM   24  O17         0      49.869  44.232  19.690  1.00  0.00    -0.359 OA
HETATM   25  H17         0      50.729  44.152  19.294  1.00  0.00     0.218 HD
ENDBRANCH   8  24
TORSDOF 5
ENDMDL
MODEL 9
REMARK VINA RESULT:      -6.5      3.359      8.436
REMARK  5 active torsions:
REMARK  status: ('A' for Active; 'I' for Inactive)
REMARK    1  A    between atoms: C4_4  and  C5_5 
REMARK    2  A    between atoms: C8_8  and  O9_9 
REMARK    3  A    between atoms: C10_11  and  O11_12 
REMARK    4  A    between atoms: C16_18  and  O17_19 
REMARK    5  A    between atoms: C19_22  and  O20_23 
ROOT
HETATM    1  O1          0      42.876  50.515  16.766  1.00  0.00    -0.286 OA
HETATM    2  C2          0      42.047  49.696  17.251  1.00  0.00     0.201 C 
HETATM    3  C3          0      42.428  48.505  17.845  1.00  0.00     0.067 C 
HETATM    4  C4          0      41.491  47.574  18.278  1.00  0.00     0.103 C 
HETATM    5  O13         0      40.207  47.852  18.134  1.00  0.00    -0.307 OA
HETATM    6  C14         0      39.792  48.952  17.544  1.00  0.00     0.107 C 
HETATM    7  C15         0      38.506  49.067  17.036  1.00  0.00     0.049 C 
HETATM    8  C16         0      38.153  50.118  16.197  1.00  0.00     0.093 C 
HETATM    9  C18         0      38.931  51.262  16.330  1.00  0.00     0.048 C 
HETATM   10  C19         0      40.205  51.189  16.878  1.00  0.00     0.096 C 
HETATM   11  C21         0      40.692  49.984  17.305  1.00  0.00     0.084 C 
ENDROOT
BRANCH  10  12
HETATM   12  O20         0      41.117  52.206  16.614  1.00  0.00    -0.359 OA
HETATM   13  H20         0      41.283  52.431  15.706  1.00  0.00     0.218 HD
ENDBRANCH  10  12
BRANCH   4  14
HETATM   14  C5          0      41.908  46.172  18.318  1.00  0.00     0.025 C 
HETATM   15  C6          0      42.645  45.578  17.304  1.00  0.00     0.004 C 
HETATM   16  C7          0      43.630  44.666  17.672  1.00  0.00     0.026 C 
HETATM   17  C8          0      43.788  44.257  18.991  1.00  0.00     0.112 C 
HETATM   18  C10         0      42.655  44.396  19.781  1.00  0.00     0.112 C 
HETATM   19  C12         0      41.728  45.373  19.439  1.00  0.00     0.028 C 
BRANCH  17  20
HETATM   20  O9          0      45.040  43.945  19.491  1.00  0.00    -0.357 OA
HETATM   21  H9          0      45.278  43.086  19.822  1.00  0.00     0.218 HD
ENDBRANCH  17  20
BRANCH  18  22
HETATM   22  O11         0      42.699  43.831  21.048  1.00  0.00    -0.357 OA
HETATM   23  H11         0      41.903  43.417  21.362  1.00  0.00     0.218 HD
ENDBRANCH  18  22
ENDBRANCH   4  14
BRANCH   8  24
HETATM   24  O17         0      37.320  49.919  15.091  1.00  0.00    -0.359 OA
HETATM   25  H17         0      37.664  49.886  14.206  1.00  0.00     0.218 HD
ENDBRANCH   8  24
TORSDOF 5
ENDMDL
