MODEL 1
REMARK VINA RESULT:       0.0      0.000      0.000
REMARK  5 active torsions:
REMARK  status: ('A' for Active; 'I' for Inactive)
REMARK    1  A    between atoms: C4_4  and  C5_5 
REMARK    2  A    between atoms: C8_8  and  O9_9 
REMARK    3  A    between atoms: C10_11  and  O11_12 
REMARK    4  A    between atoms: C16_18  and  O17_19 
REMARK    5  A    between atoms: C19_22  and  O20_23 
ROOT
HETATM    1  O1          0      61.499 122.800  30.563  1.00  0.00    -0.286 OA
HETATM    2  C2          0      61.238 122.022  29.604  1.00  0.00     0.201 C 
HETATM    3  C3          0      60.790 122.472  28.374  1.00  0.00     0.067 C 
HETATM    4  C4          0      60.412 121.588  27.369  1.00  0.00     0.103 C 
HETATM    5  O13         0      60.505 120.290  27.597  1.00  0.00    -0.307 OA
HETATM    6  C14         0      60.889 119.810  28.760  1.00  0.00     0.107 C 
HETATM    7  C15         0      60.614 118.504  29.138  1.00  0.00     0.049 C 
HETATM    8  C16         0      60.791 118.080  30.450  1.00  0.00     0.093 C 
HETATM    9  C18         0      61.714 118.815  31.184  1.00  0.00     0.048 C 
HETATM   10  C19         0      62.048 120.108  30.807  1.00  0.00     0.096 C 
HETATM   11  C21         0      61.476 120.659  29.692  1.00  0.00     0.084 C 
ENDROOT
BRANCH  10  12
HETATM   12  O20         0      62.605 120.969  31.747  1.00  0.00    -0.359 OA
HETATM   13  H20         0      62.530 120.735  32.664  1.00  0.00     0.218 HD
ENDBRANCH  10  12
BRANCH   4  14
HETATM   14  C5          0      59.428 122.064  26.395  1.00  0.00     0.025 C 
HETATM   15  C6          0      58.575 121.210  25.710  1.00  0.00     0.004 C 
HETATM   16  C7          0      57.271 121.643  25.489  1.00  0.00     0.026 C 
HETATM   17  C8          0      56.865 122.932  25.817  1.00  0.00     0.112 C 
HETATM   18  C10         0      57.892 123.863  25.888  1.00  0.00     0.112 C 
HETATM   19  C12         0      59.171 123.414  26.195  1.00  0.00     0.028 C 
BRANCH  17  20
HETATM   20  O9          0      55.571 123.181  26.240  1.00  0.00    -0.357 OA
HETATM   21  H9          0      54.956 122.500  26.486  1.00  0.00     0.218 HD
ENDBRANCH  17  20
BRANCH  18  22
HETATM   22  O11         0      57.525 125.194  26.024  1.00  0.00    -0.357 OA
HETATM   23  H11         0      56.856 125.519  25.432  1.00  0.00     0.218 HD
ENDBRANCH  18  22
ENDBRANCH   4  14
BRANCH   8  24
HETATM   24  O17         0      59.878 117.218  31.067  1.00  0.00    -0.359 OA
HETATM   25  H17         0      59.860 117.102  32.010  1.00  0.00     0.218 HD
ENDBRANCH   8  24
TORSDOF 5
ENDMDL
MODEL 2
REMARK VINA RESULT:       0.0      4.658      7.592
REMARK  5 active torsions:
REMARK  status: ('A' for Active; 'I' for Inactive)
REMARK    1  A    between atoms: C4_4  and  C5_5 
REMARK    2  A    between atoms: C8_8  and  O9_9 
REMARK    3  A    between atoms: C10_11  and  O11_12 
REMARK    4  A    between atoms: C16_18  and  O17_19 
REMARK    5  A    between atoms: C19_22  and  O20_23 
ROOT
HETATM    1  O1          0      61.038 120.704  31.348  1.00  0.00    -0.286 OA
HETATM    2  C2          0      60.206 120.076  32.059  1.00  0.00     0.201 C 
HETATM    3  C3          0      60.405 118.769  32.470  1.00  0.00     0.067 C 
HETATM    4  C4          0      59.427 118.067  33.166  1.00  0.00     0.103 C 
HETATM    5  O13         0      58.291 118.678  33.455  1.00  0.00    -0.307 OA
HETATM    6  C14         0      58.037 119.905  33.057  1.00  0.00     0.107 C 
HETATM    7  C15         0      56.742 120.401  32.999  1.00  0.00     0.049 C 
HETATM    8  C16         0      56.454 121.593  32.344  1.00  0.00     0.093 C 
HETATM    9  C18         0      57.520 122.478  32.241  1.00  0.00     0.048 C 
HETATM   10  C19         0      58.828 122.022  32.340  1.00  0.00     0.096 C 
HETATM   11  C21         0      59.069 120.693  32.559  1.00  0.00     0.084 C 
ENDROOT
BRANCH  10  12
HETATM   12  O20         0      59.859 122.795  31.815  1.00  0.00    -0.359 OA
HETATM   13  H20         0      59.628 123.523  31.251  1.00  0.00     0.218 HD
ENDBRANCH  10  12
BRANCH   4  14
HETATM   14  C5          0      59.430 116.609  33.037  1.00  0.00     0.025 C 
HETATM   15  C6          0      58.286 115.839  33.188  1.00  0.00     0.004 C 
HETATM   16  C7          0      58.128 114.745  32.343  1.00  0.00     0.026 C 
HETATM   17  C8          0      59.134 114.349  31.467  1.00  0.00     0.112 C 
HETATM   18  C10         0      60.411 114.756  31.829  1.00  0.00     0.112 C 
HETATM   19  C12         0      60.544 115.902  32.605  1.00  0.00     0.028 C 
BRANCH  17  20
HETATM   20  O9          0      58.825 113.786  30.242  1.00  0.00    -0.357 OA
HETATM   21  H9          0      59.144 114.121  29.412  1.00  0.00     0.218 HD
ENDBRANCH  17  20
BRANCH  18  22
HETATM   22  O11         0      61.468 114.232  31.099  1.00  0.00    -0.357 OA
HETATM   23  H11         0      61.366 113.347  30.769  1.00  0.00     0.218 HD
ENDBRANCH  18  22
ENDBRANCH   4  14
BRANCH   8  24
HETATM   24  O17         0      55.300 121.737  31.567  1.00  0.00    -0.359 OA
HETATM   25  H17         0      55.155 122.505  31.027  1.00  0.00     0.218 HD
ENDBRANCH   8  24
TORSDOF 5
ENDMDL
MODEL 3
REMARK VINA RESULT:       0.0      2.302      3.460
REMARK  5 active torsions:
REMARK  status: ('A' for Active; 'I' for Inactive)
REMARK    1  A    between atoms: C4_4  and  C5_5 
REMARK    2  A    between atoms: C8_8  and  O9_9 
REMARK    3  A    between atoms: C10_11  and  O11_12 
REMARK    4  A    between atoms: C16_18  and  O17_19 
REMARK    5  A    between atoms: C19_22  and  O20_23 
ROOT
HETATM    1  O1          0      57.376 119.358  28.941  1.00  0.00    -0.286 OA
HETATM    2  C2          0      58.229 120.194  29.346  1.00  0.00     0.201 C 
HETATM    3  C3          0      58.006 121.560  29.335  1.00  0.00     0.067 C 
HETATM    4  C4          0      59.000 122.464  29.690  1.00  0.00     0.103 C 
HETATM    5  O13         0      60.178 121.997  30.066  1.00  0.00    -0.307 OA
HETATM    6  C14         0      60.455 120.712  30.059  1.00  0.00     0.107 C 
HETATM    7  C15         0      61.761 120.245  30.058  1.00  0.00     0.049 C 
HETATM    8  C16         0      62.052 118.912  29.795  1.00  0.00     0.093 C 
HETATM    9  C18         0      61.019 118.022  30.065  1.00  0.00     0.048 C 
HETATM   10  C19         0      59.704 118.464  30.120  1.00  0.00     0.096 C 
HETATM   11  C21         0      59.423 119.789  29.923  1.00  0.00     0.084 C 
ENDROOT
BRANCH  10  12
HETATM   12  O20         0      58.671 117.547  29.952  1.00  0.00    -0.359 OA
HETATM   13  H20         0      58.829 116.646  30.208  1.00  0.00     0.218 HD
ENDBRANCH  10  12
BRANCH   4  14
HETATM   14  C5          0      58.928 123.804  29.104  1.00  0.00     0.025 C 
HETATM   15  C6          0      60.046 124.602  28.910  1.00  0.00     0.004 C 
HETATM   16  C7          0      60.097 125.369  27.751  1.00  0.00     0.026 C 
HETATM   17  C8          0      59.016 125.447  26.879  1.00  0.00     0.112 C 
HETATM   18  C10         0      57.786 125.156  27.454  1.00  0.00     0.112 C 
HETATM   19  C12         0      57.757 124.317  28.561  1.00  0.00     0.028 C 
BRANCH  17  20
HETATM   20  O9          0      59.213 125.593  25.518  1.00  0.00    -0.357 OA
HETATM   21  H9          0      59.077 126.409  25.049  1.00  0.00     0.218 HD
ENDBRANCH  17  20
BRANCH  18  22
HETATM   22  O11         0      56.659 125.400  26.682  1.00  0.00    -0.357 OA
HETATM   23  H11         0      55.959 124.759  26.729  1.00  0.00     0.218 HD
ENDBRANCH  18  22
ENDBRANCH   4  14
BRANCH   8  24
HETATM   24  O17         0      63.153 118.546  29.013  1.00  0.00    -0.359 OA
HETATM   25  H17         0      64.042 118.612  29.341  1.00  0.00     0.218 HD
ENDBRANCH   8  24
TORSDOF 5
ENDMDL
MODEL 4
REMARK VINA RESULT:       0.0      8.036     10.126
REMARK  5 active torsions:
REMARK  status: ('A' for Active; 'I' for Inactive)
REMARK    1  A    between atoms: C4_4  and  C5_5 
REMARK    2  A    between atoms: C8_8  and  O9_9 
REMARK    3  A    between atoms: C10_11  and  O11_12 
REMARK    4  A    between atoms: C16_18  and  O17_19 
REMARK    5  A    between atoms: C19_22  and  O20_23 
ROOT
HETATM    1  O1          0      63.602 114.548  27.357  1.00  0.00    -0.286 OA
HETATM    2  C2          0      63.673 114.251  26.133  1.00  0.00     0.201 C 
HETATM    3  C3          0      64.873 114.176  25.448  1.00  0.00     0.067 C 
HETATM    4  C4          0      64.917 113.947  24.077  1.00  0.00     0.103 C 
HETATM    5  O13         0      63.780 113.779  23.426  1.00  0.00    -0.307 OA
HETATM    6  C14         0      62.611 113.877  24.021  1.00  0.00     0.107 C 
HETATM    7  C15         0      61.443 114.100  23.307  1.00  0.00     0.049 C 
HETATM    8  C16         0      60.262 114.455  23.947  1.00  0.00     0.093 C 
HETATM    9  C18         0      60.174 114.061  25.277  1.00  0.00     0.048 C 
HETATM   10  C19         0      61.321 113.784  26.008  1.00  0.00     0.096 C 
HETATM   11  C21         0      62.548 113.884  25.410  1.00  0.00     0.084 C 
ENDROOT
BRANCH  10  12
HETATM   12  O20         0      61.268 113.822  27.398  1.00  0.00    -0.359 OA
HETATM   13  H20         0      60.981 113.040  27.854  1.00  0.00     0.218 HD
ENDBRANCH  10  12
BRANCH   4  14
HETATM   14  C5          0      66.077 114.464  23.348  1.00  0.00     0.025 C 
HETATM   15  C6          0      66.031 114.800  22.003  1.00  0.00     0.004 C 
HETATM   16  C7          0      66.743 115.923  21.595  1.00  0.00     0.026 C 
HETATM   17  C8          0      67.581 116.612  22.466  1.00  0.00     0.112 C 
HETATM   18  C10         0      68.041 115.863  23.541  1.00  0.00     0.112 C 
HETATM   19  C12         0      67.267 114.797  23.983  1.00  0.00     0.028 C 
BRANCH  17  20
HETATM   20  O9          0      67.748 117.981  22.356  1.00  0.00    -0.357 OA
HETATM   21  H9          0      67.350 118.508  21.673  1.00  0.00     0.218 HD
ENDBRANCH  17  20
BRANCH  18  22
HETATM   22  O11         0      69.025 116.438  24.333  1.00  0.00    -0.357 OA
HETATM   23  H11         0      68.819 117.274  24.735  1.00  0.00     0.218 HD
ENDBRANCH  18  22
ENDBRANCH   4  14
BRANCH   8  24
HETATM   24  O17         0      59.398 115.413  23.405  1.00  0.00    -0.359 OA
HETATM   25  H17         0      59.380 116.307  23.726  1.00  0.00     0.218 HD
ENDBRANCH   8  24
TORSDOF 5
ENDMDL
MODEL 5
REMARK VINA RESULT:       0.0      5.296      6.935
REMARK  5 active torsions:
REMARK  status: ('A' for Active; 'I' for Inactive)
REMARK    1  A    between atoms: C4_4  and  C5_5 
REMARK    2  A    between atoms: C8_8  and  O9_9 
REMARK    3  A    between atoms: C10_11  and  O11_12 
REMARK    4  A    between atoms: C16_18  and  O17_19 
REMARK    5  A    between atoms: C19_22  and  O20_23 
ROOT
HETATM    1  O1          0      55.921 114.060  29.070  1.00  0.00    -0.286 OA
HETATM    2  C2          0      55.828 115.029  29.873  1.00  0.00     0.201 C 
HETATM    3  C3          0      54.817 115.971  29.799  1.00  0.00     0.067 C 
HETATM    4  C4          0      54.796 117.084  30.632  1.00  0.00     0.103 C 
HETATM    5  O13         0      55.759 117.226  31.525  1.00  0.00    -0.307 OA
HETATM    6  C14         0      56.763 116.381  31.612  1.00  0.00     0.107 C 
HETATM    7  C15         0      57.951 116.719  32.243  1.00  0.00     0.049 C 
HETATM    8  C16         0      59.087 115.930  32.113  1.00  0.00     0.093 C 
HETATM    9  C18         0      58.844 114.597  31.804  1.00  0.00     0.048 C 
HETATM   10  C19         0      57.646 114.217  31.215  1.00  0.00     0.096 C 
HETATM   11  C21         0      56.690 115.160  30.951  1.00  0.00     0.084 C 
ENDROOT
BRANCH  10  12
HETATM   12  O20         0      57.580 113.010  30.526  1.00  0.00    -0.359 OA
HETATM   13  H20         0      57.024 112.326  30.879  1.00  0.00     0.218 HD
ENDBRANCH  10  12
BRANCH   4  14
HETATM   14  C5          0      54.115 118.281  30.134  1.00  0.00     0.025 C 
HETATM   15  C6          0      54.447 119.562  30.547  1.00  0.00     0.004 C 
HETATM   16  C7          0      54.421 120.575  29.593  1.00  0.00     0.026 C 
HETATM   17  C8          0      53.952 120.350  28.304  1.00  0.00     0.112 C 
HETATM   18  C10         0      53.084 119.273  28.182  1.00  0.00     0.112 C 
HETATM   19  C12         0      53.189 118.234  29.099  1.00  0.00     0.028 C 
BRANCH  17  20
HETATM   20  O9          0      54.492 121.027  27.225  1.00  0.00    -0.357 OA
HETATM   21  H9          0      54.548 121.974  27.170  1.00  0.00     0.218 HD
ENDBRANCH  17  20
BRANCH  18  22
HETATM   22  O11         0      52.441 119.118  26.962  1.00  0.00    -0.357 OA
HETATM   23  H11         0      52.955 118.760  26.247  1.00  0.00     0.218 HD
ENDBRANCH  18  22
ENDBRANCH   4  14
BRANCH   8  24
HETATM   24  O17         0      60.358 116.499  31.968  1.00  0.00    -0.359 OA
HETATM   25  H17         0      61.048 116.346  32.602  1.00  0.00     0.218 HD
ENDBRANCH   8  24
TORSDOF 5
ENDMDL
MODEL 6
REMARK VINA RESULT:       0.0      5.411      7.322
REMARK  5 active torsions:
REMARK  status: ('A' for Active; 'I' for Inactive)
REMARK    1  A    between atoms: C4_4  and  C5_5 
REMARK    2  A    between atoms: C8_8  and  O9_9 
REMARK    3  A    between atoms: C10_11  and  O11_12 
REMARK    4  A    between atoms: C16_18  and  O17_19 
REMARK    5  A    between atoms: C19_22  and  O20_23 
ROOT
HETATM    1  O1          0      57.752 117.167  32.943  1.00  0.00    -0.286 OA
HETATM    2  C2          0      58.349 116.224  32.356  1.00  0.00     0.201 C 
HETATM    3  C3          0      58.950 116.371  31.117  1.00  0.00     0.067 C 
HETATM    4  C4          0      59.512 115.290  30.447  1.00  0.00     0.103 C 
HETATM    5  O13         0      59.484 114.102  31.023  1.00  0.00    -0.307 OA
HETATM    6  C14         0      58.894 113.900  32.181  1.00  0.00     0.107 C 
HETATM    7  C15         0      58.512 112.632  32.595  1.00  0.00     0.049 C 
HETATM    8  C16         0      57.670 112.452  33.686  1.00  0.00     0.093 C 
HETATM    9  C18         0      57.679 113.490  34.611  1.00  0.00     0.048 C 
HETATM   10  C19         0      58.100 114.760  34.242  1.00  0.00     0.096 C 
HETATM   11  C21         0      58.525 114.989  32.963  1.00  0.00     0.084 C 
ENDROOT
BRANCH  10  12
HETATM   12  O20         0      57.706 115.855  35.005  1.00  0.00    -0.359 OA
HETATM   13  H20         0      58.369 116.306  35.513  1.00  0.00     0.218 HD
ENDBRANCH  10  12
BRANCH   4  14
HETATM   14  C5          0      59.566 115.364  28.985  1.00  0.00     0.025 C 
HETATM   15  C6          0      59.574 114.237  28.176  1.00  0.00     0.004 C 
HETATM   16  C7          0      58.856 114.294  26.986  1.00  0.00     0.026 C 
HETATM   17  C8          0      58.260 115.472  26.548  1.00  0.00     0.112 C 
HETATM   18  C10         0      58.823 116.632  27.064  1.00  0.00     0.112 C 
HETATM   19  C12         0      59.462 116.565  28.296  1.00  0.00     0.028 C 
BRANCH  17  20
HETATM   20  O9          0      57.077 115.445  25.832  1.00  0.00    -0.357 OA
HETATM   21  H9          0      56.694 116.208  25.416  1.00  0.00     0.218 HD
ENDBRANCH  17  20
BRANCH  18  22
HETATM   22  O11         0      58.395 117.834  26.519  1.00  0.00    -0.357 OA
HETATM   23  H11         0      58.175 117.833  25.594  1.00  0.00     0.218 HD
ENDBRANCH  18  22
ENDBRANCH   4  14
BRANCH   8  24
HETATM   24  O17         0      56.661 111.483  33.677  1.00  0.00    -0.359 OA
HETATM   25  H17         0      56.178 111.274  32.887  1.00  0.00     0.218 HD
ENDBRANCH   8  24
TORSDOF 5
ENDMDL
MODEL 7
REMARK VINA RESULT:       0.0      3.877      6.096
REMARK  5 active torsions:
REMARK  status: ('A' for Active; 'I' for Inactive)
REMARK    1  A    between atoms: C4_4  and  C5_5 
REMARK    2  A    between atoms: C8_8  and  O9_9 
REMARK    3  A    between atoms: C10_11  and  O11_12 
REMARK    4  A    between atoms: C16_18  and  O17_19 
REMARK    5  A    between atoms: C19_22  and  O20_23 
ROOT
HETATM    1  O1          0      59.107 117.720  33.273  1.00  0.00    -0.286 OA
HETATM    2  C2          0      59.901 117.047  32.560  1.00  0.00     0.201 C 
HETATM    3  C3          0      60.689 117.615  31.574  1.00  0.00     0.067 C 
HETATM    4  C4          0      61.479 116.837  30.735  1.00  0.00     0.103 C 
HETATM    5  O13         0      61.485 115.527  30.904  1.00  0.00    -0.307 OA
HETATM    6  C14         0      60.727 114.934  31.800  1.00  0.00     0.107 C 
HETATM    7  C15         0      60.424 113.582  31.722  1.00  0.00     0.049 C 
HETATM    8  C16         0      59.430 113.019  32.512  1.00  0.00     0.093 C 
HETATM    9  C18         0      59.159 113.703  33.691  1.00  0.00     0.048 C 
HETATM   10  C19         0      59.491 115.045  33.820  1.00  0.00     0.096 C 
HETATM   11  C21         0      60.107 115.695  32.785  1.00  0.00     0.084 C 
ENDROOT
BRANCH  10  12
HETATM   12  O20         0      58.848 115.816  34.784  1.00  0.00    -0.359 OA
HETATM   13  H20         0      59.320 116.011  35.584  1.00  0.00     0.218 HD
ENDBRANCH  10  12
BRANCH   4  14
HETATM   14  C5          0      61.781 117.378  29.408  1.00  0.00     0.025 C 
HETATM   15  C6          0      62.058 116.573  28.313  1.00  0.00     0.004 C 
HETATM   16  C7          0      61.558 116.971  27.077  1.00  0.00     0.026 C 
HETATM   17  C8          0      60.919 118.195  26.909  1.00  0.00     0.112 C 
HETATM   18  C10         0      61.248 119.156  27.855  1.00  0.00     0.112 C 
HETATM   19  C12         0      61.664 118.730  29.111  1.00  0.00     0.028 C 
BRANCH  17  20
HETATM   20  O9          0      59.891 118.338  25.994  1.00  0.00    -0.357 OA
HETATM   21  H9          0      59.503 119.174  25.762  1.00  0.00     0.218 HD
ENDBRANCH  17  20
BRANCH  18  22
HETATM   22  O11         0      60.790 120.446  27.628  1.00  0.00    -0.357 OA
HETATM   23  H11         0      60.737 120.730  26.723  1.00  0.00     0.218 HD
ENDBRANCH  18  22
ENDBRANCH   4  14
BRANCH   8  24
HETATM   24  O17         0      58.554 112.053  32.004  1.00  0.00    -0.359 OA
HETATM   25  H17         0      58.516 111.175  32.364  1.00  0.00     0.218 HD
ENDBRANCH   8  24
TORSDOF 5
ENDMDL
MODEL 8
REMARK VINA RESULT:       0.0      3.720      6.316
REMARK  5 active torsions:
REMARK  status: ('A' for Active; 'I' for Inactive)
REMARK    1  A    between atoms: C4_4  and  C5_5 
REMARK    2  A    between atoms: C8_8  and  O9_9 
REMARK    3  A    between atoms: C10_11  and  O11_12 
REMARK    4  A    between atoms: C16_18  and  O17_19 
REMARK    5  A    between atoms: C19_22  and  O20_23 
ROOT
HETATM    1  O1          0      58.826 119.181  33.768  1.00  0.00    -0.286 OA
HETATM    2  C2          0      59.037 120.113  32.945  1.00  0.00     0.201 C 
HETATM    3  C3          0      59.470 119.887  31.649  1.00  0.00     0.067 C 
HETATM    4  C4          0      59.794 120.936  30.796  1.00  0.00     0.103 C 
HETATM    5  O13         0      59.663 122.175  31.235  1.00  0.00    -0.307 OA
HETATM    6  C14         0      59.293 122.445  32.468  1.00  0.00     0.107 C 
HETATM    7  C15         0      59.534 123.681  33.050  1.00  0.00     0.049 C 
HETATM    8  C16         0      59.376 123.878  34.416  1.00  0.00     0.093 C 
HETATM    9  C18         0      58.496 123.001  35.038  1.00  0.00     0.048 C 
HETATM   10  C19         0      58.195 121.775  34.460  1.00  0.00     0.096 C 
HETATM   11  C21         0      58.758 121.434  33.260  1.00  0.00     0.084 C 
ENDROOT
BRANCH  10  12
HETATM   12  O20         0      57.690 120.753  35.257  1.00  0.00    -0.359 OA
HETATM   13  H20         0      58.305 120.135  35.632  1.00  0.00     0.218 HD
ENDBRANCH  10  12
BRANCH   4  14
HETATM   14  C5          0      60.768 120.662  29.738  1.00  0.00     0.025 C 
HETATM   15  C6          0      61.576 121.646  29.186  1.00  0.00     0.004 C 
HETATM   16  C7          0      62.887 121.303  28.872  1.00  0.00     0.026 C 
HETATM   17  C8          0      63.343 119.993  28.977  1.00  0.00     0.112 C 
HETATM   18  C10         0      62.349 119.026  28.914  1.00  0.00     0.112 C 
HETATM   19  C12         0      61.064 119.372  29.315  1.00  0.00     0.028 C 
BRANCH  17  20
HETATM   20  O9          0      64.655 119.726  29.329  1.00  0.00    -0.357 OA
HETATM   21  H9          0      65.404 119.981  28.804  1.00  0.00     0.218 HD
ENDBRANCH  17  20
BRANCH  18  22
HETATM   22  O11         0      62.763 117.705  28.824  1.00  0.00    -0.357 OA
HETATM   23  H11         0      62.383 117.181  28.127  1.00  0.00     0.218 HD
ENDBRANCH  18  22
ENDBRANCH   4  14
BRANCH   8  24
HETATM   24  O17         0      60.275 124.661  35.149  1.00  0.00    -0.359 OA
HETATM   25  H17         0      61.202 124.680  34.943  1.00  0.00     0.218 HD
ENDBRANCH   8  24
TORSDOF 5
ENDMDL
MODEL 9
REMARK VINA RESULT:       0.0      6.003      8.370
REMARK  5 active torsions:
REMARK  status: ('A' for Active; 'I' for Inactive)
REMARK    1  A    between atoms: C4_4  and  C5_5 
REMARK    2  A    between atoms: C8_8  and  O9_9 
REMARK    3  A    between atoms: C10_11  and  O11_12 
REMARK    4  A    between atoms: C16_18  and  O17_19 
REMARK    5  A    between atoms: C19_22  and  O20_23 
ROOT
HETATM    1  O1          0      58.939 116.956  35.476  1.00  0.00    -0.286 OA
HETATM    2  C2          0      59.275 118.057  34.960  1.00  0.00     0.201 C 
HETATM    3  C3          0      59.992 118.144  33.778  1.00  0.00     0.067 C 
HETATM    4  C4          0      60.438 119.364  33.285  1.00  0.00     0.103 C 
HETATM    5  O13         0      60.148 120.465  33.957  1.00  0.00    -0.307 OA
HETATM    6  C14         0      59.502 120.435  35.102  1.00  0.00     0.107 C 
HETATM    7  C15         0      59.543 121.498  35.992  1.00  0.00     0.049 C 
HETATM    8  C16         0      59.080 121.367  37.295  1.00  0.00     0.093 C 
HETATM    9  C18         0      58.133 120.367  37.484  1.00  0.00     0.048 C 
HETATM   10  C19         0      58.034 119.312  36.586  1.00  0.00     0.096 C 
HETATM   11  C21         0      58.862 119.266  35.499  1.00  0.00     0.084 C 
ENDROOT
BRANCH  10  12
HETATM   12  O20         0      57.422 118.130  36.992  1.00  0.00    -0.359 OA
HETATM   13  H20         0      57.968 117.455  37.376  1.00  0.00     0.218 HD
ENDBRANCH  10  12
BRANCH   4  14
HETATM   14  C5          0      61.633 119.349  32.440  1.00  0.00     0.025 C 
HETATM   15  C6          0      62.487 120.436  32.326  1.00  0.00     0.004 C 
HETATM   16  C7          0      63.852 120.178  32.245  1.00  0.00     0.026 C 
HETATM   17  C8          0      64.345 118.882  32.146  1.00  0.00     0.112 C 
HETATM   18  C10         0      63.442 117.956  31.640  1.00  0.00     0.112 C 
HETATM   19  C12         0      62.084 118.197  31.809  1.00  0.00     0.028 C 
BRANCH  17  20
HETATM   20  O9          0      65.560 118.540  32.713  1.00  0.00    -0.357 OA
HETATM   21  H9          0      66.391 118.912  32.443  1.00  0.00     0.218 HD
ENDBRANCH  17  20
BRANCH  18  22
HETATM   22  O11         0      63.937 116.694  31.343  1.00  0.00    -0.357 OA
HETATM   23  H11         0      64.433 116.255  32.025  1.00  0.00     0.218 HD
ENDBRANCH  18  22
ENDBRANCH   4  14
BRANCH   8  24
HETATM   24  O17         0      59.753 121.955  38.372  1.00  0.00    -0.359 OA
HETATM   25  H17         0      60.701 122.023  38.390  1.00  0.00     0.218 HD
ENDBRANCH   8  24
TORSDOF 5
ENDMDL
