MODEL 1
REMARK VINA RESULT:      -0.6      0.000      0.000
REMARK  5 active torsions:
REMARK  status: ('A' for Active; 'I' for Inactive)
REMARK    1  A    between atoms: C4_4  and  C5_5 
REMARK    2  A    between atoms: C8_8  and  O9_9 
REMARK    3  A    between atoms: C10_11  and  O11_12 
REMARK    4  A    between atoms: C16_18  and  O17_19 
REMARK    5  A    between atoms: C19_22  and  O20_23 
ROOT
HETATM    1  O1          0      37.833 111.639 -15.448  1.00  0.00    -0.286 OA
HETATM    2  C2          0      37.316 111.033 -14.470  1.00  0.00     0.201 C 
HETATM    3  C3          0      35.974 110.698 -14.419  1.00  0.00     0.067 C 
HETATM    4  C4          0      35.409 110.123 -13.286  1.00  0.00     0.103 C 
HETATM    5  O13         0      36.185 109.875 -12.246  1.00  0.00    -0.307 OA
HETATM    6  C14         0      37.458 110.207 -12.228  1.00  0.00     0.107 C 
HETATM    7  C15         0      38.166 110.323 -11.041  1.00  0.00     0.049 C 
HETATM    8  C16         0      39.423 110.915 -11.006  1.00  0.00     0.093 C 
HETATM    9  C18         0      40.121 110.882 -12.207  1.00  0.00     0.048 C 
HETATM   10  C19         0      39.448 110.721 -13.410  1.00  0.00     0.096 C 
HETATM   11  C21         0      38.087 110.575 -13.412  1.00  0.00     0.084 C 
ENDROOT
BRANCH  10  12
HETATM   12  O20         0      40.063 111.118 -14.593  1.00  0.00    -0.359 OA
HETATM   13  H20         0      39.513 111.267 -15.353  1.00  0.00     0.218 HD
ENDBRANCH  10  12
BRANCH   4  14
HETATM   14  C5          0      33.980 110.350 -13.061  1.00  0.00     0.025 C 
HETATM   15  C6          0      33.357 110.078 -11.851  1.00  0.00     0.004 C 
HETATM   16  C7          0      32.373 110.962 -11.421  1.00  0.00     0.026 C 
HETATM   17  C8          0      31.927 112.005 -12.225  1.00  0.00     0.112 C 
HETATM   18  C10         0      32.128 111.815 -13.586  1.00  0.00     0.112 C 
HETATM   19  C12         0      33.173 110.993 -13.990  1.00  0.00     0.028 C 
BRANCH  17  20
HETATM   20  O9          0      31.519 113.205 -11.669  1.00  0.00    -0.357 OA
HETATM   21  H9          0      30.618 113.404 -11.445  1.00  0.00     0.218 HD
ENDBRANCH  17  20
BRANCH  18  22
HETATM   22  O11         0      31.536 112.732 -14.443  1.00  0.00    -0.357 OA
HETATM   23  H11         0      31.544 113.643 -14.171  1.00  0.00     0.218 HD
ENDBRANCH  18  22
ENDBRANCH   4  14
BRANCH   8  24
HETATM   24  O17         0      39.802 111.761  -9.958  1.00  0.00    -0.359 OA
HETATM   25  H17         0      39.743 111.488  -9.050  1.00  0.00     0.218 HD
ENDBRANCH   8  24
TORSDOF 5
ENDMDL
MODEL 2
REMARK VINA RESULT:      -0.6      3.048      6.127
REMARK  5 active torsions:
REMARK  status: ('A' for Active; 'I' for Inactive)
REMARK    1  A    between atoms: C4_4  and  C5_5 
REMARK    2  A    between atoms: C8_8  and  O9_9 
REMARK    3  A    between atoms: C10_11  and  O11_12 
REMARK    4  A    between atoms: C16_18  and  O17_19 
REMARK    5  A    between atoms: C19_22  and  O20_23 
ROOT
HETATM    1  O1          0      35.272 114.213 -15.746  1.00  0.00    -0.286 OA
HETATM    2  C2          0      35.225 112.953 -15.720  1.00  0.00     0.201 C 
HETATM    3  C3          0      35.437 112.217 -14.567  1.00  0.00     0.067 C 
HETATM    4  C4          0      35.481 110.828 -14.587  1.00  0.00     0.103 C 
HETATM    5  O13         0      35.295 110.203 -15.737  1.00  0.00    -0.307 OA
HETATM    6  C14         0      35.127 110.854 -16.867  1.00  0.00     0.107 C 
HETATM    7  C15         0      35.330 110.247 -18.097  1.00  0.00     0.049 C 
HETATM    8  C16         0      35.402 110.994 -19.268  1.00  0.00     0.093 C 
HETATM    9  C18         0      34.753 112.222 -19.221  1.00  0.00     0.048 C 
HETATM   10  C19         0      34.492 112.836 -18.004  1.00  0.00     0.096 C 
HETATM   11  C21         0      34.861 112.219 -16.839  1.00  0.00     0.084 C 
ENDROOT
BRANCH  10  12
HETATM   12  O20         0      34.257 114.207 -17.970  1.00  0.00    -0.359 OA
HETATM   13  H20         0      34.559 114.692 -17.211  1.00  0.00     0.218 HD
ENDBRANCH  10  12
BRANCH   4  14
HETATM   14  C5          0      36.271 110.167 -13.547  1.00  0.00     0.025 C 
HETATM   15  C6          0      37.628 109.912 -13.681  1.00  0.00     0.004 C 
HETATM   16  C7          0      38.428 110.067 -12.554  1.00  0.00     0.026 C 
HETATM   17  C8          0      37.882 110.335 -11.303  1.00  0.00     0.112 C 
HETATM   18  C10         0      36.557 109.948 -11.154  1.00  0.00     0.112 C 
HETATM   19  C12         0      35.756 109.884 -12.288  1.00  0.00     0.028 C 
BRANCH  17  20
HETATM   20  O9          0      38.563 111.114 -10.385  1.00  0.00    -0.357 OA
HETATM   21  H9          0      38.724 110.851  -9.486  1.00  0.00     0.218 HD
ENDBRANCH  17  20
BRANCH  18  22
HETATM   22  O11         0      36.022 110.018  -9.876  1.00  0.00    -0.357 OA
HETATM   23  H11         0      35.516 110.793  -9.663  1.00  0.00     0.218 HD
ENDBRANCH  18  22
ENDBRANCH   4  14
BRANCH   8  24
HETATM   24  O17         0      36.326 110.687 -20.272  1.00  0.00    -0.359 OA
HETATM   25  H17         0      37.190 110.350 -20.069  1.00  0.00     0.218 HD
ENDBRANCH   8  24
TORSDOF 5
ENDMDL
MODEL 3
REMARK VINA RESULT:      -0.5      3.323      6.360
REMARK  5 active torsions:
REMARK  status: ('A' for Active; 'I' for Inactive)
REMARK    1  A    between atoms: C4_4  and  C5_5 
REMARK    2  A    between atoms: C8_8  and  O9_9 
REMARK    3  A    between atoms: C10_11  and  O11_12 
REMARK    4  A    between atoms: C16_18  and  O17_19 
REMARK    5  A    between atoms: C19_22  and  O20_23 
ROOT
HETATM    1  O1          0      37.249 115.003 -15.431  1.00  0.00    -0.286 OA
HETATM    2  C2          0      37.138 113.773 -15.691  1.00  0.00     0.201 C 
HETATM    3  C3          0      37.118 112.798 -14.708  1.00  0.00     0.067 C 
HETATM    4  C4          0      37.098 111.444 -15.026  1.00  0.00     0.103 C 
HETATM    5  O13         0      37.077 111.092 -16.299  1.00  0.00    -0.307 OA
HETATM    6  C14         0      37.133 111.976 -17.271  1.00  0.00     0.107 C 
HETATM    7  C15         0      37.510 111.624 -18.559  1.00  0.00     0.049 C 
HETATM    8  C16         0      37.813 112.590 -19.511  1.00  0.00     0.093 C 
HETATM    9  C18         0      37.225 113.831 -19.296  1.00  0.00     0.048 C 
HETATM   10  C19         0      36.794 114.197 -18.028  1.00  0.00     0.096 C 
HETATM   11  C21         0      36.932 113.322 -16.985  1.00  0.00     0.084 C 
ENDROOT
BRANCH  10  12
HETATM   12  O20         0      36.623 115.545 -17.731  1.00  0.00    -0.359 OA
HETATM   13  H20         0      37.229 116.167 -18.117  1.00  0.00     0.218 HD
ENDBRANCH  10  12
BRANCH   4  14
HETATM   14  C5          0      37.670 110.518 -14.047  1.00  0.00     0.025 C 
HETATM   15  C6          0      38.964 110.029 -14.142  1.00  0.00     0.004 C 
HETATM   16  C7          0      39.686 109.882 -12.962  1.00  0.00     0.026 C 
HETATM   17  C8          0      39.100 110.087 -11.718  1.00  0.00     0.112 C 
HETATM   18  C10         0      37.719 109.943 -11.698  1.00  0.00     0.112 C 
HETATM   19  C12         0      37.013 110.178 -12.871  1.00  0.00     0.028 C 
BRANCH  17  20
HETATM   20  O9          0      39.834 110.598 -10.663  1.00  0.00    -0.357 OA
HETATM   21  H9          0      39.941 110.154  -9.830  1.00  0.00     0.218 HD
ENDBRANCH  17  20
BRANCH  18  22
HETATM   22  O11         0      37.105 109.949 -10.453  1.00  0.00    -0.357 OA
HETATM   23  H11         0      36.732 110.773 -10.162  1.00  0.00     0.218 HD
ENDBRANCH  18  22
ENDBRANCH   4  14
BRANCH   8  24
HETATM   24  O17         0      38.877 112.425 -20.405  1.00  0.00    -0.359 OA
HETATM   25  H17         0      39.781 112.481 -20.120  1.00  0.00     0.218 HD
ENDBRANCH   8  24
TORSDOF 5
ENDMDL
MODEL 4
REMARK VINA RESULT:      -0.5      3.180      5.909
REMARK  5 active torsions:
REMARK  status: ('A' for Active; 'I' for Inactive)
REMARK    1  A    between atoms: C4_4  and  C5_5 
REMARK    2  A    between atoms: C8_8  and  O9_9 
REMARK    3  A    between atoms: C10_11  and  O11_12 
REMARK    4  A    between atoms: C16_18  and  O17_19 
REMARK    5  A    between atoms: C19_22  and  O20_23 
ROOT
HETATM    1  O1          0      39.154 113.019 -17.738  1.00  0.00    -0.286 OA
HETATM    2  C2          0      38.327 113.051 -16.785  1.00  0.00     0.201 C 
HETATM    3  C3          0      38.491 112.314 -15.625  1.00  0.00     0.067 C 
HETATM    4  C4          0      37.515 112.288 -14.635  1.00  0.00     0.103 C 
HETATM    5  O13         0      36.417 113.003 -14.807  1.00  0.00    -0.307 OA
HETATM    6  C14         0      36.195 113.691 -15.906  1.00  0.00     0.107 C 
HETATM    7  C15         0      34.920 114.103 -16.265  1.00  0.00     0.049 C 
HETATM    8  C16         0      34.654 114.598 -17.536  1.00  0.00     0.093 C 
HETATM    9  C18         0      35.749 115.143 -18.195  1.00  0.00     0.048 C 
HETATM   10  C19         0      37.040 114.788 -17.830  1.00  0.00     0.096 C 
HETATM   11  C21         0      37.237 113.908 -16.801  1.00  0.00     0.084 C 
ENDROOT
BRANCH  10  12
HETATM   12  O20         0      38.079 114.975 -18.736  1.00  0.00    -0.359 OA
HETATM   13  H20         0      38.965 115.016 -18.396  1.00  0.00     0.218 HD
ENDBRANCH  10  12
BRANCH   4  14
HETATM   14  C5          0      37.454 111.097 -13.785  1.00  0.00     0.025 C 
HETATM   15  C6          0      38.588 110.441 -13.329  1.00  0.00     0.004 C 
HETATM   16  C7          0      38.563 109.936 -12.033  1.00  0.00     0.026 C 
HETATM   17  C8          0      37.406 109.963 -11.262  1.00  0.00     0.112 C 
HETATM   18  C10         0      36.226 110.039 -11.989  1.00  0.00     0.112 C 
HETATM   19  C12         0      36.263 110.625 -13.249  1.00  0.00     0.028 C 
BRANCH  17  20
HETATM   20  O9          0      37.473 110.117  -9.888  1.00  0.00    -0.357 OA
HETATM   21  H9          0      36.829 109.764  -9.286  1.00  0.00     0.218 HD
ENDBRANCH  17  20
BRANCH  18  22
HETATM   22  O11         0      35.042 109.879 -11.284  1.00  0.00    -0.357 OA
HETATM   23  H11         0      34.238 109.859 -11.792  1.00  0.00     0.218 HD
ENDBRANCH  18  22
ENDBRANCH   4  14
BRANCH   8  24
HETATM   24  O17         0      33.475 114.269 -18.215  1.00  0.00    -0.359 OA
HETATM   25  H17         0      32.711 114.832 -18.191  1.00  0.00     0.218 HD
ENDBRANCH   8  24
TORSDOF 5
ENDMDL
MODEL 5
REMARK VINA RESULT:      -0.5      3.106      6.952
REMARK  5 active torsions:
REMARK  status: ('A' for Active; 'I' for Inactive)
REMARK    1  A    between atoms: C4_4  and  C5_5 
REMARK    2  A    between atoms: C8_8  and  O9_9 
REMARK    3  A    between atoms: C10_11  and  O11_12 
REMARK    4  A    between atoms: C16_18  and  O17_19 
REMARK    5  A    between atoms: C19_22  and  O20_23 
ROOT
HETATM    1  O1          0      35.450 116.489 -11.619  1.00  0.00    -0.286 OA
HETATM    2  C2          0      34.859 115.407 -11.353  1.00  0.00     0.201 C 
HETATM    3  C3          0      35.479 114.355 -10.698  1.00  0.00     0.067 C 
HETATM    4  C4          0      34.838 113.136 -10.509  1.00  0.00     0.103 C 
HETATM    5  O13         0      33.600 112.994 -10.950  1.00  0.00    -0.307 OA
HETATM    6  C14         0      32.980 113.947 -11.611  1.00  0.00     0.107 C 
HETATM    7  C15         0      31.875 113.685 -12.408  1.00  0.00     0.049 C 
HETATM    8  C16         0      31.383 114.634 -13.295  1.00  0.00     0.093 C 
HETATM    9  C18         0      31.681 115.952 -12.970  1.00  0.00     0.048 C 
HETATM   10  C19         0      32.752 116.248 -12.137  1.00  0.00     0.096 C 
HETATM   11  C21         0      33.510 115.233 -11.618  1.00  0.00     0.084 C 
ENDROOT
BRANCH  10  12
HETATM   12  O20         0      33.304 117.525 -12.166  1.00  0.00    -0.359 OA
HETATM   13  H20         0      34.165 117.646 -11.786  1.00  0.00     0.218 HD
ENDBRANCH  10  12
BRANCH   4  14
HETATM   14  C5          0      35.683 111.947 -10.386  1.00  0.00     0.025 C 
HETATM   15  C6          0      35.281 110.691 -10.816  1.00  0.00     0.004 C 
HETATM   16  C7          0      36.238 109.877 -11.413  1.00  0.00     0.026 C 
HETATM   17  C8          0      37.579 110.243 -11.462  1.00  0.00     0.112 C 
HETATM   18  C10         0      37.967 111.154 -10.489  1.00  0.00     0.112 C 
HETATM   19  C12         0      37.006 112.014  -9.970  1.00  0.00     0.028 C 
BRANCH  17  20
HETATM   20  O9          0      38.375 109.875 -12.532  1.00  0.00    -0.357 OA
HETATM   21  H9          0      38.736 110.492 -13.158  1.00  0.00     0.218 HD
ENDBRANCH  17  20
BRANCH  18  22
HETATM   22  O11         0      39.326 111.408 -10.372  1.00  0.00    -0.357 OA
HETATM   23  H11         0      39.721 111.953 -11.043  1.00  0.00     0.218 HD
ENDBRANCH  18  22
ENDBRANCH   4  14
BRANCH   8  24
HETATM   24  O17         0      30.930 114.275 -14.570  1.00  0.00    -0.359 OA
HETATM   25  H17         0      30.067 113.903 -14.706  1.00  0.00     0.218 HD
ENDBRANCH   8  24
TORSDOF 5
ENDMDL
MODEL 6
REMARK VINA RESULT:      -0.5      1.823      2.232
REMARK  5 active torsions:
REMARK  status: ('A' for Active; 'I' for Inactive)
REMARK    1  A    between atoms: C4_4  and  C5_5 
REMARK    2  A    between atoms: C8_8  and  O9_9 
REMARK    3  A    between atoms: C10_11  and  O11_12 
REMARK    4  A    between atoms: C16_18  and  O17_19 
REMARK    5  A    between atoms: C19_22  and  O20_23 
ROOT
HETATM    1  O1          0      36.781 113.012 -14.821  1.00  0.00    -0.286 OA
HETATM    2  C2          0      36.305 112.271 -13.918  1.00  0.00     0.201 C 
HETATM    3  C3          0      35.042 112.458 -13.382  1.00  0.00     0.067 C 
HETATM    4  C4          0      34.581 111.692 -12.317  1.00  0.00     0.103 C 
HETATM    5  O13         0      35.368 110.751 -11.825  1.00  0.00    -0.307 OA
HETATM    6  C14         0      36.589 110.557 -12.272  1.00  0.00     0.107 C 
HETATM    7  C15         0      37.541 109.876 -11.526  1.00  0.00     0.049 C 
HETATM    8  C16         0      38.884 109.894 -11.881  1.00  0.00     0.093 C 
HETATM    9  C18         0      39.133 110.141 -13.226  1.00  0.00     0.048 C 
HETATM   10  C19         0      38.183 110.779 -14.013  1.00  0.00     0.096 C 
HETATM   11  C21         0      36.986 111.152 -13.465  1.00  0.00     0.084 C 
ENDROOT
BRANCH  10  12
HETATM   12  O20         0      38.583 111.402 -15.191  1.00  0.00    -0.359 OA
HETATM   13  H20         0      37.909 111.752 -15.761  1.00  0.00     0.218 HD
ENDBRANCH  10  12
BRANCH   4  14
HETATM   14  C5          0      33.573 112.296 -11.444  1.00  0.00     0.025 C 
HETATM   15  C6          0      33.889 112.897 -10.234  1.00  0.00     0.004 C 
HETATM   16  C7          0      33.192 114.049  -9.885  1.00  0.00     0.026 C 
HETATM   17  C8          0      32.125 114.514 -10.646  1.00  0.00     0.112 C 
HETATM   18  C10         0      31.503 113.547 -11.424  1.00  0.00     0.112 C 
HETATM   19  C12         0      32.248 112.447 -11.831  1.00  0.00     0.028 C 
BRANCH  17  20
HETATM   20  O9          0      31.871 115.870 -10.756  1.00  0.00    -0.357 OA
HETATM   21  H9          0      31.891 116.472 -10.021  1.00  0.00     0.218 HD
ENDBRANCH  17  20
BRANCH  18  22
HETATM   22  O11         0      30.321 113.912 -12.054  1.00  0.00    -0.357 OA
HETATM   23  H11         0      30.095 113.443 -12.849  1.00  0.00     0.218 HD
ENDBRANCH  18  22
ENDBRANCH   4  14
BRANCH   8  24
HETATM   24  O17         0      39.893 109.994 -10.916  1.00  0.00    -0.359 OA
HETATM   25  H17         0      39.701 109.943  -9.987  1.00  0.00     0.218 HD
ENDBRANCH   8  24
TORSDOF 5
ENDMDL
MODEL 7
REMARK VINA RESULT:      -0.5      1.680      2.021
REMARK  5 active torsions:
REMARK  status: ('A' for Active; 'I' for Inactive)
REMARK    1  A    between atoms: C4_4  and  C5_5 
REMARK    2  A    between atoms: C8_8  and  O9_9 
REMARK    3  A    between atoms: C10_11  and  O11_12 
REMARK    4  A    between atoms: C16_18  and  O17_19 
REMARK    5  A    between atoms: C19_22  and  O20_23 
ROOT
HETATM    1  O1          0      37.622 112.363 -15.394  1.00  0.00    -0.286 OA
HETATM    2  C2          0      36.780 111.759 -14.675  1.00  0.00     0.201 C 
HETATM    3  C3          0      35.413 111.942 -14.804  1.00  0.00     0.067 C 
HETATM    4  C4          0      34.512 111.343 -13.931  1.00  0.00     0.103 C 
HETATM    5  O13         0      34.980 110.566 -12.970  1.00  0.00    -0.307 OA
HETATM    6  C14         0      36.269 110.389 -12.780  1.00  0.00     0.107 C 
HETATM    7  C15         0      36.773 109.924 -11.574  1.00  0.00     0.049 C 
HETATM    8  C16         0      38.132 109.980 -11.289  1.00  0.00     0.093 C 
HETATM    9  C18         0      38.964 110.005 -12.403  1.00  0.00     0.048 C 
HETATM   10  C19         0      38.480 110.420 -13.636  1.00  0.00     0.096 C 
HETATM   11  C21         0      37.169 110.792 -13.760  1.00  0.00     0.084 C 
ENDROOT
BRANCH  10  12
HETATM   12  O20         0      39.377 110.854 -14.607  1.00  0.00    -0.359 OA
HETATM   13  H20         0      39.683 110.221 -15.244  1.00  0.00     0.218 HD
ENDBRANCH  10  12
BRANCH   4  14
HETATM   14  C5          0      33.226 112.014 -13.732  1.00  0.00     0.025 C 
HETATM   15  C6          0      33.072 113.112 -12.898  1.00  0.00     0.004 C 
HETATM   16  C7          0      32.209 114.121 -13.313  1.00  0.00     0.026 C 
HETATM   17  C8          0      31.423 113.986 -14.452  1.00  0.00     0.112 C 
HETATM   18  C10         0      31.175 112.673 -14.832  1.00  0.00     0.112 C 
HETATM   19  C12         0      32.098 111.697 -14.477  1.00  0.00     0.028 C 
BRANCH  17  20
HETATM   20  O9          0      31.113 115.084 -15.235  1.00  0.00    -0.357 OA
HETATM   21  H9          0      31.250 115.118 -16.174  1.00  0.00     0.218 HD
ENDBRANCH  17  20
BRANCH  18  22
HETATM   22  O11         0      30.246 112.477 -15.844  1.00  0.00    -0.357 OA
HETATM   23  H11         0      29.988 111.581 -16.023  1.00  0.00     0.218 HD
ENDBRANCH  18  22
ENDBRANCH   4  14
BRANCH   8  24
HETATM   24  O17         0      38.597 110.325 -10.016  1.00  0.00    -0.359 OA
HETATM   25  H17         0      38.209 109.964  -9.228  1.00  0.00     0.218 HD
ENDBRANCH   8  24
TORSDOF 5
ENDMDL
MODEL 8
REMARK VINA RESULT:      -0.5      3.510      6.229
REMARK  5 active torsions:
REMARK  status: ('A' for Active; 'I' for Inactive)
REMARK    1  A    between atoms: C4_4  and  C5_5 
REMARK    2  A    between atoms: C8_8  and  O9_9 
REMARK    3  A    between atoms: C10_11  and  O11_12 
REMARK    4  A    between atoms: C16_18  and  O17_19 
REMARK    5  A    between atoms: C19_22  and  O20_23 
ROOT
HETATM    1  O1          0      35.951 115.078 -15.588  1.00  0.00    -0.286 OA
HETATM    2  C2          0      35.421 113.934 -15.610  1.00  0.00     0.201 C 
HETATM    3  C3          0      35.473 113.062 -14.536  1.00  0.00     0.067 C 
HETATM    4  C4          0      34.970 111.769 -14.622  1.00  0.00     0.103 C 
HETATM    5  O13         0      34.414 111.378 -15.756  1.00  0.00    -0.307 OA
HETATM    6  C14         0      34.373 112.153 -16.817  1.00  0.00     0.107 C 
HETATM    7  C15         0      34.168 111.639 -18.090  1.00  0.00     0.049 C 
HETATM    8  C16         0      34.378 112.414 -19.224  1.00  0.00     0.093 C 
HETATM    9  C18         0      34.269 113.785 -19.025  1.00  0.00     0.048 C 
HETATM   10  C19         0      34.422 114.329 -17.757  1.00  0.00     0.096 C 
HETATM   11  C21         0      34.664 113.507 -16.691  1.00  0.00     0.084 C 
ENDROOT
BRANCH  10  12
HETATM   12  O20         0      34.745 115.676 -17.629  1.00  0.00    -0.359 OA
HETATM   13  H20         0      35.092 115.973 -16.797  1.00  0.00     0.218 HD
ENDBRANCH  10  12
BRANCH   4  14
HETATM   14  C5          0      35.565 110.759 -13.745  1.00  0.00     0.025 C 
HETATM   15  C6          0      36.854 110.278 -13.918  1.00  0.00     0.004 C 
HETATM   16  C7          0      37.608 110.027 -12.775  1.00  0.00     0.026 C 
HETATM   17  C8          0      37.055 110.122 -11.502  1.00  0.00     0.112 C 
HETATM   18  C10         0      35.675 109.980 -11.457  1.00  0.00     0.112 C 
HETATM   19  C12         0      34.939 110.318 -12.586  1.00  0.00     0.028 C 
BRANCH  17  20
HETATM   20  O9          0      37.821 110.538 -10.427  1.00  0.00    -0.357 OA
HETATM   21  H9          0      37.501 110.571  -9.533  1.00  0.00     0.218 HD
ENDBRANCH  17  20
BRANCH  18  22
HETATM   22  O11         0      35.095 109.877 -10.200  1.00  0.00    -0.357 OA
HETATM   23  H11         0      35.582 109.398  -9.540  1.00  0.00     0.218 HD
ENDBRANCH  18  22
ENDBRANCH   4  14
BRANCH   8  24
HETATM   24  O17         0      34.978 111.882 -20.371  1.00  0.00    -0.359 OA
HETATM   25  H17         0      35.863 112.113 -20.624  1.00  0.00     0.218 HD
ENDBRANCH   8  24
TORSDOF 5
ENDMDL
MODEL 9
REMARK VINA RESULT:      -0.4      4.727      5.392
REMARK  5 active torsions:
REMARK  status: ('A' for Active; 'I' for Inactive)
REMARK    1  A    between atoms: C4_4  and  C5_5 
REMARK    2  A    between atoms: C8_8  and  O9_9 
REMARK    3  A    between atoms: C10_11  and  O11_12 
REMARK    4  A    between atoms: C16_18  and  O17_19 
REMARK    5  A    between atoms: C19_22  and  O20_23 
ROOT
HETATM    1  O1          0      35.874 112.488 -14.763  1.00  0.00    -0.286 OA
HETATM    2  C2          0      35.658 112.895 -13.588  1.00  0.00     0.201 C 
HETATM    3  C3          0      35.392 114.221 -13.291  1.00  0.00     0.067 C 
HETATM    4  C4          0      35.260 114.661 -11.978  1.00  0.00     0.103 C 
HETATM    5  O13         0      35.373 113.781 -10.999  1.00  0.00    -0.307 OA
HETATM    6  C14         0      35.663 112.518 -11.225  1.00  0.00     0.107 C 
HETATM    7  C15         0      36.170 111.695 -10.230  1.00  0.00     0.049 C 
HETATM    8  C16         0      36.710 110.450 -10.528  1.00  0.00     0.093 C 
HETATM    9  C18         0      36.245 109.876 -11.705  1.00  0.00     0.048 C 
HETATM   10  C19         0      35.689 110.664 -12.703  1.00  0.00     0.096 C 
HETATM   11  C21         0      35.581 112.016 -12.519  1.00  0.00     0.084 C 
ENDROOT
BRANCH  10  12
HETATM   12  O20         0      35.635 110.176 -14.005  1.00  0.00    -0.359 OA
HETATM   13  H20         0      34.798 109.867 -14.330  1.00  0.00     0.218 HD
ENDBRANCH  10  12
BRANCH   4  14
HETATM   14  C5          0      35.582 116.063 -11.706  1.00  0.00     0.025 C 
HETATM   15  C6          0      36.672 116.449 -10.940  1.00  0.00     0.004 C 
HETATM   16  C7          0      37.374 117.581 -11.342  1.00  0.00     0.026 C 
HETATM   17  C8          0      36.930 118.380 -12.390  1.00  0.00     0.112 C 
HETATM   18  C10         0      35.570 118.289 -12.653  1.00  0.00     0.112 C 
HETATM   19  C12         0      34.910 117.113 -12.318  1.00  0.00     0.028 C 
BRANCH  17  20
HETATM   20  O9          0      37.831 119.032 -13.214  1.00  0.00    -0.357 OA
HETATM   21  H9          0      37.975 119.971 -13.200  1.00  0.00     0.218 HD
ENDBRANCH  17  20
BRANCH  18  22
HETATM   22  O11         0      35.043 119.200 -13.558  1.00  0.00    -0.357 OA
HETATM   23  H11         0      34.631 119.976 -13.196  1.00  0.00     0.218 HD
ENDBRANCH  18  22
ENDBRANCH   4  14
BRANCH   8  24
HETATM   24  O17         0      37.860 109.980  -9.884  1.00  0.00    -0.359 OA
HETATM   25  H17         0      38.678 110.464  -9.908  1.00  0.00     0.218 HD
ENDBRANCH   8  24
TORSDOF 5
ENDMDL
