MODEL 1
REMARK VINA RESULT:      -0.9      0.000      0.000
REMARK  5 active torsions:
REMARK  status: ('A' for Active; 'I' for Inactive)
REMARK    1  A    between atoms: C4_4  and  C5_5 
REMARK    2  A    between atoms: C8_8  and  O9_9 
REMARK    3  A    between atoms: C10_11  and  O11_12 
REMARK    4  A    between atoms: C16_18  and  O17_19 
REMARK    5  A    between atoms: C19_22  and  O20_23 
ROOT
HETATM    1  O1          0      53.034  61.126  35.784  1.00  0.00    -0.286 OA
HETATM    2  C2          0      54.202  60.774  36.105  1.00  0.00     0.201 C 
HETATM    3  C3          0      54.690  60.881  37.397  1.00  0.00     0.067 C 
HETATM    4  C4          0      56.012  60.582  37.703  1.00  0.00     0.103 C 
HETATM    5  O13         0      56.810  60.168  36.735  1.00  0.00    -0.307 OA
HETATM    6  C14         0      56.409  60.085  35.485  1.00  0.00     0.107 C 
HETATM    7  C15         0      57.308  60.046  34.430  1.00  0.00     0.049 C 
HETATM    8  C16         0      56.887  60.215  33.116  1.00  0.00     0.093 C 
HETATM    9  C18         0      55.556  59.891  32.880  1.00  0.00     0.048 C 
HETATM   10  C19         0      54.639  59.875  33.922  1.00  0.00     0.096 C 
HETATM   11  C21         0      55.051  60.164  35.195  1.00  0.00     0.084 C 
ENDROOT
BRANCH  10  12
HETATM   12  O20         0      53.281  59.985  33.636  1.00  0.00    -0.359 OA
HETATM   13  H20         0      53.032  60.305  32.777  1.00  0.00     0.218 HD
ENDBRANCH  10  12
BRANCH   4  14
HETATM   14  C5          0      56.601  61.259  38.860  1.00  0.00     0.025 C 
HETATM   15  C6          0      55.867  62.079  39.705  1.00  0.00     0.004 C 
HETATM   16  C7          0      56.152  62.023  41.066  1.00  0.00     0.026 C 
HETATM   17  C8          0      57.218  61.278  41.558  1.00  0.00     0.112 C 
HETATM   18  C10         0      58.228  61.034  40.637  1.00  0.00     0.112 C 
HETATM   19  C12         0      57.899  61.012  39.286  1.00  0.00     0.028 C 
BRANCH  17  20
HETATM   20  O9          0      57.145  60.669  42.797  1.00  0.00    -0.357 OA
HETATM   21  H9          0      56.346  60.303  43.160  1.00  0.00     0.218 HD
ENDBRANCH  17  20
BRANCH  18  22
HETATM   22  O11         0      59.396  60.462  41.121  1.00  0.00    -0.357 OA
HETATM   23  H11         0      60.200  60.950  40.991  1.00  0.00     0.218 HD
ENDBRANCH  18  22
ENDBRANCH   4  14
BRANCH   8  24
HETATM   24  O17         0      57.635  60.963  32.201  1.00  0.00    -0.359 OA
HETATM   25  H17         0      58.439  60.628  31.821  1.00  0.00     0.218 HD
ENDBRANCH   8  24
TORSDOF 5
ENDMDL
MODEL 2
REMARK VINA RESULT:      -0.8      1.708      6.843
REMARK  5 active torsions:
REMARK  status: ('A' for Active; 'I' for Inactive)
REMARK    1  A    between atoms: C4_4  and  C5_5 
REMARK    2  A    between atoms: C8_8  and  O9_9 
REMARK    3  A    between atoms: C10_11  and  O11_12 
REMARK    4  A    between atoms: C16_18  and  O17_19 
REMARK    5  A    between atoms: C19_22  and  O20_23 
ROOT
HETATM    1  O1          0      58.826  60.479  40.384  1.00  0.00    -0.286 OA
HETATM    2  C2          0      57.661  60.426  39.903  1.00  0.00     0.201 C 
HETATM    3  C3          0      57.386  59.877  38.662  1.00  0.00     0.067 C 
HETATM    4  C4          0      56.110  59.924  38.112  1.00  0.00     0.103 C 
HETATM    5  O13         0      55.139  60.489  38.807  1.00  0.00    -0.307 OA
HETATM    6  C14         0      55.354  61.058  39.973  1.00  0.00     0.107 C 
HETATM    7  C15         0      54.467  61.980  40.510  1.00  0.00     0.049 C 
HETATM    8  C16         0      54.815  62.761  41.606  1.00  0.00     0.093 C 
HETATM    9  C18         0      55.805  62.224  42.420  1.00  0.00     0.048 C 
HETATM   10  C19         0      56.680  61.265  41.927  1.00  0.00     0.096 C 
HETATM   11  C21         0      56.556  60.833  40.635  1.00  0.00     0.084 C 
ENDROOT
BRANCH  10  12
HETATM   12  O20         0      57.897  61.061  42.570  1.00  0.00    -0.359 OA
HETATM   13  H20         0      58.089  60.189  42.892  1.00  0.00     0.218 HD
ENDBRANCH  10  12
BRANCH   4  14
HETATM   14  C5          0      56.010  59.899  36.651  1.00  0.00     0.025 C 
HETATM   15  C6          0      54.803  60.025  35.978  1.00  0.00     0.004 C 
HETATM   16  C7          0      54.797  60.764  34.800  1.00  0.00     0.026 C 
HETATM   17  C8          0      55.973  61.248  34.236  1.00  0.00     0.112 C 
HETATM   18  C10         0      57.120  60.558  34.605  1.00  0.00     0.112 C 
HETATM   19  C12         0      57.128  59.898  35.828  1.00  0.00     0.028 C 
BRANCH  17  20
HETATM   20  O9          0      55.986  62.446  33.544  1.00  0.00    -0.357 OA
HETATM   21  H9          0      56.728  63.041  33.533  1.00  0.00     0.218 HD
ENDBRANCH  17  20
BRANCH  18  22
HETATM   22  O11         0      58.289  60.876  33.929  1.00  0.00    -0.357 OA
HETATM   23  H11         0      58.243  61.588  33.301  1.00  0.00     0.218 HD
ENDBRANCH  18  22
ENDBRANCH   4  14
BRANCH   8  24
HETATM   24  O17         0      54.448  64.110  41.685  1.00  0.00    -0.359 OA
HETATM   25  H17         0      53.559  64.396  41.512  1.00  0.00     0.218 HD
ENDBRANCH   8  24
TORSDOF 5
ENDMDL
MODEL 3
REMARK VINA RESULT:      -0.8      3.075      8.481
REMARK  5 active torsions:
REMARK  status: ('A' for Active; 'I' for Inactive)
REMARK    1  A    between atoms: C4_4  and  C5_5 
REMARK    2  A    between atoms: C8_8  and  O9_9 
REMARK    3  A    between atoms: C10_11  and  O11_12 
REMARK    4  A    between atoms: C16_18  and  O17_19 
REMARK    5  A    between atoms: C19_22  and  O20_23 
ROOT
HETATM    1  O1          0      58.366  64.700  42.128  1.00  0.00    -0.286 OA
HETATM    2  C2          0      58.742  63.496  42.151  1.00  0.00     0.201 C 
HETATM    3  C3          0      58.846  62.720  41.008  1.00  0.00     0.067 C 
HETATM    4  C4          0      59.163  61.368  41.072  1.00  0.00     0.103 C 
HETATM    5  O13         0      59.390  60.824  42.255  1.00  0.00    -0.307 OA
HETATM    6  C14         0      59.268  61.506  43.373  1.00  0.00     0.107 C 
HETATM    7  C15         0      59.108  60.878  44.599  1.00  0.00     0.049 C 
HETATM    8  C16         0      58.727  61.589  45.731  1.00  0.00     0.093 C 
HETATM    9  C18         0      59.035  62.944  45.703  1.00  0.00     0.048 C 
HETATM   10  C19         0      59.248  63.594  44.495  1.00  0.00     0.096 C 
HETATM   11  C21         0      59.171  62.893  43.323  1.00  0.00     0.084 C 
ENDROOT
BRANCH  10  12
HETATM   12  O20         0      59.119  64.979  44.437  1.00  0.00    -0.359 OA
HETATM   13  H20         0      59.036  65.382  43.581  1.00  0.00     0.218 HD
ENDBRANCH  10  12
BRANCH   4  14
HETATM   14  C5          0      58.681  60.514  39.985  1.00  0.00     0.025 C 
HETATM   15  C6          0      57.343  60.180  39.829  1.00  0.00     0.004 C 
HETATM   16  C7          0      56.841  60.118  38.533  1.00  0.00     0.026 C 
HETATM   17  C8          0      57.668  60.252  37.423  1.00  0.00     0.112 C 
HETATM   18  C10         0      59.003  59.948  37.655  1.00  0.00     0.112 C 
HETATM   19  C12         0      59.501  60.100  38.944  1.00  0.00     0.028 C 
BRANCH  17  20
HETATM   20  O9          0      57.206  60.846  36.262  1.00  0.00    -0.357 OA
HETATM   21  H9          0      57.012  60.366  35.465  1.00  0.00     0.218 HD
ENDBRANCH  17  20
BRANCH  18  22
HETATM   22  O11         0      59.834  59.882  36.546  1.00  0.00    -0.357 OA
HETATM   23  H11         0      60.736  59.625  36.699  1.00  0.00     0.218 HD
ENDBRANCH  18  22
ENDBRANCH   4  14
BRANCH   8  24
HETATM   24  O17         0      57.818  61.059  46.654  1.00  0.00    -0.359 OA
HETATM   25  H17         0      58.016  61.019  47.582  1.00  0.00     0.218 HD
ENDBRANCH   8  24
TORSDOF 5
ENDMDL
MODEL 4
REMARK VINA RESULT:      -0.7      6.561      9.628
REMARK  5 active torsions:
REMARK  status: ('A' for Active; 'I' for Inactive)
REMARK    1  A    between atoms: C4_4  and  C5_5 
REMARK    2  A    between atoms: C8_8  and  O9_9 
REMARK    3  A    between atoms: C10_11  and  O11_12 
REMARK    4  A    between atoms: C16_18  and  O17_19 
REMARK    5  A    between atoms: C19_22  and  O20_23 
ROOT
HETATM    1  O1          0      58.524  60.998  42.714  1.00  0.00    -0.286 OA
HETATM    2  C2          0      57.613  61.293  43.535  1.00  0.00     0.201 C 
HETATM    3  C3          0      56.375  61.772  43.142  1.00  0.00     0.067 C 
HETATM    4  C4          0      55.426  62.187  44.069  1.00  0.00     0.103 C 
HETATM    5  O13         0      55.715  62.098  45.356  1.00  0.00    -0.307 OA
HETATM    6  C14         0      56.888  61.686  45.782  1.00  0.00     0.107 C 
HETATM    7  C15         0      57.338  61.962  47.065  1.00  0.00     0.049 C 
HETATM    8  C16         0      58.663  61.752  47.426  1.00  0.00     0.093 C 
HETATM    9  C18         0      59.335  60.801  46.666  1.00  0.00     0.048 C 
HETATM   10  C19         0      58.885  60.467  45.396  1.00  0.00     0.096 C 
HETATM   11  C21         0      57.761  61.066  44.895  1.00  0.00     0.084 C 
ENDROOT
BRANCH  10  12
HETATM   12  O20         0      59.765  59.875  44.496  1.00  0.00    -0.359 OA
HETATM   13  H20         0      60.676  60.142  44.524  1.00  0.00     0.218 HD
ENDBRANCH  10  12
BRANCH   4  14
HETATM   14  C5          0      54.457  63.194  43.632  1.00  0.00     0.025 C 
HETATM   15  C6          0      54.030  64.231  44.448  1.00  0.00     0.004 C 
HETATM   16  C7          0      53.831  65.475  43.859  1.00  0.00     0.026 C 
HETATM   17  C8          0      53.922  65.653  42.482  1.00  0.00     0.112 C 
HETATM   18  C10         0      53.720  64.501  41.734  1.00  0.00     0.112 C 
HETATM   19  C12         0      54.008  63.274  42.320  1.00  0.00     0.028 C 
BRANCH  17  20
HETATM   20  O9          0      54.387  66.842  41.951  1.00  0.00    -0.357 OA
HETATM   21  H9          0      53.983  67.687  42.113  1.00  0.00     0.218 HD
ENDBRANCH  17  20
BRANCH  18  22
HETATM   22  O11         0      53.612  64.655  40.360  1.00  0.00    -0.357 OA
HETATM   23  H11         0      54.402  64.522  39.849  1.00  0.00     0.218 HD
ENDBRANCH  18  22
ENDBRANCH   4  14
BRANCH   8  24
HETATM   24  O17         0      59.348  62.655  48.247  1.00  0.00    -0.359 OA
HETATM   25  H17         0      60.290  62.763  48.194  1.00  0.00     0.218 HD
ENDBRANCH   8  24
TORSDOF 5
ENDMDL
MODEL 5
REMARK VINA RESULT:      -0.7      2.252      3.190
REMARK  5 active torsions:
REMARK  status: ('A' for Active; 'I' for Inactive)
REMARK    1  A    between atoms: C4_4  and  C5_5 
REMARK    2  A    between atoms: C8_8  and  O9_9 
REMARK    3  A    between atoms: C10_11  and  O11_12 
REMARK    4  A    between atoms: C16_18  and  O17_19 
REMARK    5  A    between atoms: C19_22  and  O20_23 
ROOT
HETATM    1  O1          0      54.763  60.855  33.844  1.00  0.00    -0.286 OA
HETATM    2  C2          0      55.960  60.494  34.015  1.00  0.00     0.201 C 
HETATM    3  C3          0      56.560  60.454  35.262  1.00  0.00     0.067 C 
HETATM    4  C4          0      57.909  60.151  35.412  1.00  0.00     0.103 C 
HETATM    5  O13         0      58.621  59.876  34.333  1.00  0.00    -0.307 OA
HETATM    6  C14         0      58.109  59.936  33.123  1.00  0.00     0.107 C 
HETATM    7  C15         0      58.910  60.045  31.996  1.00  0.00     0.049 C 
HETATM    8  C16         0      58.370  60.363  30.755  1.00  0.00     0.093 C 
HETATM    9  C18         0      57.027  60.039  30.600  1.00  0.00     0.048 C 
HETATM   10  C19         0      56.208  59.876  31.709  1.00  0.00     0.096 C 
HETATM   11  C21         0      56.730  60.018  32.965  1.00  0.00     0.084 C 
ENDROOT
BRANCH  10  12
HETATM   12  O20         0      54.829  59.989  31.558  1.00  0.00    -0.359 OA
HETATM   13  H20         0      54.488  60.146  30.686  1.00  0.00     0.218 HD
ENDBRANCH  10  12
BRANCH   4  14
HETATM   14  C5          0      58.592  60.696  36.587  1.00  0.00     0.025 C 
HETATM   15  C6          0      59.645  61.594  36.495  1.00  0.00     0.004 C 
HETATM   16  C7          0      59.704  62.617  37.437  1.00  0.00     0.026 C 
HETATM   17  C8          0      58.824  62.669  38.513  1.00  0.00     0.112 C 
HETATM   18  C10         0      58.264  61.448  38.863  1.00  0.00     0.112 C 
HETATM   19  C12         0      58.139  60.473  37.881  1.00  0.00     0.028 C 
BRANCH  17  20
HETATM   20  O9          0      58.405  63.883  39.027  1.00  0.00    -0.357 OA
HETATM   21  H9          0      58.704  64.236  39.857  1.00  0.00     0.218 HD
ENDBRANCH  17  20
BRANCH  18  22
HETATM   22  O11         0      57.530  61.408  40.040  1.00  0.00    -0.357 OA
HETATM   23  H11         0      58.021  61.324  40.850  1.00  0.00     0.218 HD
ENDBRANCH  18  22
ENDBRANCH   4  14
BRANCH   8  24
HETATM   24  O17         0      59.023  61.233  29.876  1.00  0.00    -0.359 OA
HETATM   25  H17         0      58.607  62.024  29.555  1.00  0.00     0.218 HD
ENDBRANCH   8  24
TORSDOF 5
ENDMDL
MODEL 6
REMARK VINA RESULT:      -0.7      2.379      7.091
REMARK  5 active torsions:
REMARK  status: ('A' for Active; 'I' for Inactive)
REMARK    1  A    between atoms: C4_4  and  C5_5 
REMARK    2  A    between atoms: C8_8  and  O9_9 
REMARK    3  A    between atoms: C10_11  and  O11_12 
REMARK    4  A    between atoms: C16_18  and  O17_19 
REMARK    5  A    between atoms: C19_22  and  O20_23 
ROOT
HETATM    1  O1          0      56.034  63.639  39.787  1.00  0.00    -0.286 OA
HETATM    2  C2          0      57.049  62.957  39.477  1.00  0.00     0.201 C 
HETATM    3  C3          0      57.234  62.418  38.215  1.00  0.00     0.067 C 
HETATM    4  C4          0      58.311  61.586  37.929  1.00  0.00     0.103 C 
HETATM    5  O13         0      59.183  61.325  38.886  1.00  0.00    -0.307 OA
HETATM    6  C14         0      59.034  61.780  40.111  1.00  0.00     0.107 C 
HETATM    7  C15         0      59.692  61.206  41.189  1.00  0.00     0.049 C 
HETATM    8  C16         0      59.342  61.518  42.497  1.00  0.00     0.093 C 
HETATM    9  C18         0      58.729  62.754  42.662  1.00  0.00     0.048 C 
HETATM   10  C19         0      58.101  63.379  41.593  1.00  0.00     0.096 C 
HETATM   11  C21         0      58.101  62.780  40.362  1.00  0.00     0.084 C 
ENDROOT
BRANCH  10  12
HETATM   12  O20         0      57.144  64.357  41.843  1.00  0.00    -0.359 OA
HETATM   13  H20         0      56.231  64.099  41.833  1.00  0.00     0.218 HD
ENDBRANCH  10  12
BRANCH   4  14
HETATM   14  C5          0      58.136  60.612  36.850  1.00  0.00     0.025 C 
HETATM   15  C6          0      56.894  60.122  36.473  1.00  0.00     0.004 C 
HETATM   16  C7          0      56.666  59.916  35.116  1.00  0.00     0.026 C 
HETATM   17  C8          0      57.681  60.064  34.176  1.00  0.00     0.112 C 
HETATM   18  C10         0      58.966  59.925  34.683  1.00  0.00     0.112 C 
HETATM   19  C12         0      59.182  60.219  36.025  1.00  0.00     0.028 C 
BRANCH  17  20
HETATM   20  O9          0      57.403  60.521  32.900  1.00  0.00    -0.357 OA
HETATM   21  H9          0      56.691  61.116  32.696  1.00  0.00     0.218 HD
ENDBRANCH  17  20
BRANCH  18  22
HETATM   22  O11         0      60.003  59.875  33.763  1.00  0.00    -0.357 OA
HETATM   23  H11         0      60.741  60.453  33.915  1.00  0.00     0.218 HD
ENDBRANCH  18  22
ENDBRANCH   4  14
BRANCH   8  24
HETATM   24  O17         0      59.300  60.537  43.495  1.00  0.00    -0.359 OA
HETATM   25  H17         0      59.781  59.722  43.413  1.00  0.00     0.218 HD
ENDBRANCH   8  24
TORSDOF 5
ENDMDL
MODEL 7
REMARK VINA RESULT:      -0.7      3.349      9.006
REMARK  5 active torsions:
REMARK  status: ('A' for Active; 'I' for Inactive)
REMARK    1  A    between atoms: C4_4  and  C5_5 
REMARK    2  A    between atoms: C8_8  and  O9_9 
REMARK    3  A    between atoms: C10_11  and  O11_12 
REMARK    4  A    between atoms: C16_18  and  O17_19 
REMARK    5  A    between atoms: C19_22  and  O20_23 
ROOT
HETATM    1  O1          0      58.033  64.580  43.970  1.00  0.00    -0.286 OA
HETATM    2  C2          0      58.412  63.429  43.618  1.00  0.00     0.201 C 
HETATM    3  C3          0      58.253  62.949  42.329  1.00  0.00     0.067 C 
HETATM    4  C4          0      58.586  61.642  41.992  1.00  0.00     0.103 C 
HETATM    5  O13         0      59.085  60.853  42.928  1.00  0.00    -0.307 OA
HETATM    6  C14         0      59.221  61.247  44.175  1.00  0.00     0.107 C 
HETATM    7  C15         0      59.354  60.341  45.218  1.00  0.00     0.049 C 
HETATM    8  C16         0      59.242  60.744  46.543  1.00  0.00     0.093 C 
HETATM    9  C18         0      59.525  62.085  46.774  1.00  0.00     0.048 C 
HETATM   10  C19         0      59.447  63.011  45.743  1.00  0.00     0.096 C 
HETATM   11  C21         0      59.105  62.598  44.484  1.00  0.00     0.084 C 
ENDROOT
BRANCH  10  12
HETATM   12  O20         0      59.300  64.360  46.050  1.00  0.00    -0.359 OA
HETATM   13  H20         0      58.420  64.715  46.083  1.00  0.00     0.218 HD
ENDBRANCH  10  12
BRANCH   4  14
HETATM   14  C5          0      57.870  61.036  40.868  1.00  0.00     0.025 C 
HETATM   15  C6          0      56.498  60.834  40.872  1.00  0.00     0.004 C 
HETATM   16  C7          0      55.812  61.045  39.680  1.00  0.00     0.026 C 
HETATM   17  C8          0      56.481  61.316  38.492  1.00  0.00     0.112 C 
HETATM   18  C10         0      57.798  60.879  38.455  1.00  0.00     0.112 C 
HETATM   19  C12         0      58.488  60.758  39.655  1.00  0.00     0.028 C 
BRANCH  17  20
HETATM   20  O9          0      55.919  62.142  37.534  1.00  0.00    -0.357 OA
HETATM   21  H9          0      55.750  61.873  36.638  1.00  0.00     0.218 HD
ENDBRANCH  17  20
BRANCH  18  22
HETATM   22  O11         0      58.451  60.953  37.233  1.00  0.00    -0.357 OA
HETATM   23  H11         0      59.313  60.556  37.181  1.00  0.00     0.218 HD
ENDBRANCH  18  22
ENDBRANCH   4  14
BRANCH   8  24
HETATM   24  O17         0      58.576  59.959  47.490  1.00  0.00    -0.359 OA
HETATM   25  H17         0      58.359  60.293  48.352  1.00  0.00     0.218 HD
ENDBRANCH   8  24
TORSDOF 5
ENDMDL
MODEL 8
REMARK VINA RESULT:      -0.7      4.428      6.540
REMARK  5 active torsions:
REMARK  status: ('A' for Active; 'I' for Inactive)
REMARK    1  A    between atoms: C4_4  and  C5_5 
REMARK    2  A    between atoms: C8_8  and  O9_9 
REMARK    3  A    between atoms: C10_11  and  O11_12 
REMARK    4  A    between atoms: C16_18  and  O17_19 
REMARK    5  A    between atoms: C19_22  and  O20_23 
ROOT
HETATM    1  O1          0      53.988  63.294  41.914  1.00  0.00    -0.286 OA
HETATM    2  C2          0      54.749  62.299  42.062  1.00  0.00     0.201 C 
HETATM    3  C3          0      54.690  61.468  43.168  1.00  0.00     0.067 C 
HETATM    4  C4          0      55.607  60.440  43.355  1.00  0.00     0.103 C 
HETATM    5  O13         0      56.541  60.248  42.441  1.00  0.00    -0.307 OA
HETATM    6  C14         0      56.665  61.031  41.392  1.00  0.00     0.107 C 
HETATM    7  C15         0      57.842  61.095  40.661  1.00  0.00     0.049 C 
HETATM    8  C16         0      58.056  62.097  39.723  1.00  0.00     0.093 C 
HETATM    9  C18         0      56.902  62.659  39.191  1.00  0.00     0.048 C 
HETATM   10  C19         0      55.696  62.573  39.873  1.00  0.00     0.096 C 
HETATM   11  C21         0      55.640  61.915  41.072  1.00  0.00     0.084 C 
ENDROOT
BRANCH  10  12
HETATM   12  O20         0      54.680  63.476  39.577  1.00  0.00    -0.359 OA
HETATM   13  H20         0      53.853  63.130  39.264  1.00  0.00     0.218 HD
ENDBRANCH  10  12
BRANCH   4  14
HETATM   14  C5          0      55.874  60.024  44.734  1.00  0.00     0.025 C 
HETATM   15  C6          0      57.157  59.890  45.244  1.00  0.00     0.004 C 
HETATM   16  C7          0      57.373  60.289  46.559  1.00  0.00     0.026 C 
HETATM   17  C8          0      56.324  60.682  47.383  1.00  0.00     0.112 C 
HETATM   18  C10         0      55.080  60.189  47.013  1.00  0.00     0.112 C 
HETATM   19  C12         0      54.864  59.877  45.676  1.00  0.00     0.028 C 
BRANCH  17  20
HETATM   20  O9          0      56.508  61.653  48.351  1.00  0.00    -0.357 OA
HETATM   21  H9          0      56.034  61.675  49.174  1.00  0.00     0.218 HD
ENDBRANCH  17  20
BRANCH  18  22
HETATM   22  O11         0      54.034  60.392  47.902  1.00  0.00    -0.357 OA
HETATM   23  H11         0      53.456  61.126  47.726  1.00  0.00     0.218 HD
ENDBRANCH  18  22
ENDBRANCH   4  14
BRANCH   8  24
HETATM   24  O17         0      59.305  62.713  39.585  1.00  0.00    -0.359 OA
HETATM   25  H17         0      59.746  62.765  38.746  1.00  0.00     0.218 HD
ENDBRANCH   8  24
TORSDOF 5
ENDMDL
MODEL 9
REMARK VINA RESULT:      -0.7      2.524      7.311
REMARK  5 active torsions:
REMARK  status: ('A' for Active; 'I' for Inactive)
REMARK    1  A    between atoms: C4_4  and  C5_5 
REMARK    2  A    between atoms: C8_8  and  O9_9 
REMARK    3  A    between atoms: C10_11  and  O11_12 
REMARK    4  A    between atoms: C16_18  and  O17_19 
REMARK    5  A    between atoms: C19_22  and  O20_23 
ROOT
HETATM    1  O1          0      56.668  64.250  41.176  1.00  0.00    -0.286 OA
HETATM    2  C2          0      56.814  62.998  41.199  1.00  0.00     0.201 C 
HETATM    3  C3          0      57.432  62.295  40.178  1.00  0.00     0.067 C 
HETATM    4  C4          0      57.489  60.906  40.180  1.00  0.00     0.103 C 
HETATM    5  O13         0      56.955  60.250  41.195  1.00  0.00    -0.307 OA
HETATM    6  C14         0      56.324  60.866  42.171  1.00  0.00     0.107 C 
HETATM    7  C15         0      55.436  60.199  43.003  1.00  0.00     0.049 C 
HETATM    8  C16         0      54.588  60.893  43.857  1.00  0.00     0.093 C 
HETATM    9  C18         0      55.027  62.161  44.218  1.00  0.00     0.048 C 
HETATM   10  C19         0      55.950  62.838  43.433  1.00  0.00     0.096 C 
HETATM   11  C21         0      56.445  62.245  42.303  1.00  0.00     0.084 C 
ENDROOT
BRANCH  10  12
HETATM   12  O20         0      56.051  64.222  43.541  1.00  0.00    -0.359 OA
HETATM   13  H20         0      56.861  64.584  43.879  1.00  0.00     0.218 HD
ENDBRANCH  10  12
BRANCH   4  14
HETATM   14  C5          0      57.584  60.238  38.881  1.00  0.00     0.025 C 
HETATM   15  C6          0      56.469  59.876  38.139  1.00  0.00     0.004 C 
HETATM   16  C7          0      56.539  60.022  36.757  1.00  0.00     0.026 C 
HETATM   17  C8          0      57.720  60.388  36.121  1.00  0.00     0.112 C 
HETATM   18  C10         0      58.876  60.109  36.839  1.00  0.00     0.112 C 
HETATM   19  C12         0      58.794  60.052  38.225  1.00  0.00     0.028 C 
BRANCH  17  20
HETATM   20  O9          0      57.697  61.156  34.971  1.00  0.00    -0.357 OA
HETATM   21  H9          0      57.197  61.959  34.882  1.00  0.00     0.218 HD
ENDBRANCH  17  20
BRANCH  18  22
HETATM   22  O11         0      60.083  60.278  36.177  1.00  0.00    -0.357 OA
HETATM   23  H11         0      60.070  60.808  35.388  1.00  0.00     0.218 HD
ENDBRANCH  18  22
ENDBRANCH   4  14
BRANCH   8  24
HETATM   24  O17         0      53.263  60.489  44.056  1.00  0.00    -0.359 OA
HETATM   25  H17         0      52.588  61.103  44.320  1.00  0.00     0.218 HD
ENDBRANCH   8  24
TORSDOF 5
ENDMDL
