MODEL 1
REMARK VINA RESULT:      -0.3      0.000      0.000
REMARK  5 active torsions:
REMARK  status: ('A' for Active; 'I' for Inactive)
REMARK    1  A    between atoms: C4_4  and  C5_5 
REMARK    2  A    between atoms: C8_8  and  O9_9 
REMARK    3  A    between atoms: C10_11  and  O11_12 
REMARK    4  A    between atoms: C16_18  and  O17_19 
REMARK    5  A    between atoms: C19_22  and  O20_23 
ROOT
HETATM    1  O1          0      36.112 105.108 -25.644  1.00  0.00    -0.286 OA
HETATM    2  C2          0      36.542 104.062 -26.202  1.00  0.00     0.201 C 
HETATM    3  C3          0      36.606 102.839 -25.557  1.00  0.00     0.067 C 
HETATM    4  C4          0      37.179 101.725 -26.161  1.00  0.00     0.103 C 
HETATM    5  O13         0      37.652 101.843 -27.390  1.00  0.00    -0.307 OA
HETATM    6  C14         0      37.650 102.990 -28.033  1.00  0.00     0.107 C 
HETATM    7  C15         0      38.478 103.219 -29.122  1.00  0.00     0.049 C 
HETATM    8  C16         0      38.659 104.498 -29.635  1.00  0.00     0.093 C 
HETATM    9  C18         0      37.620 105.384 -29.380  1.00  0.00     0.048 C 
HETATM   10  C19         0      36.743 105.161 -28.328  1.00  0.00     0.096 C 
HETATM   11  C21         0      36.893 104.049 -27.544  1.00  0.00     0.084 C 
ENDROOT
BRANCH  10  12
HETATM   12  O20         0      36.009 106.226 -27.815  1.00  0.00    -0.359 OA
HETATM   13  H20         0      35.955 107.019 -28.334  1.00  0.00     0.218 HD
ENDBRANCH  10  12
BRANCH   4  14
HETATM   14  C5          0      37.750 100.705 -25.281  1.00  0.00     0.025 C 
HETATM   15  C6          0      39.018 100.173 -25.469  1.00  0.00     0.004 C 
HETATM   16  C7          0      39.780  99.908 -24.336  1.00  0.00     0.026 C 
HETATM   17  C8          0      39.254 100.040 -23.055  1.00  0.00     0.112 C 
HETATM   18  C10         0      37.870  99.950 -22.985  1.00  0.00     0.112 C 
HETATM   19  C12         0      37.128 100.302 -24.106  1.00  0.00     0.028 C 
BRANCH  17  20
HETATM   20  O9          0      40.053 100.439 -21.998  1.00  0.00    -0.357 OA
HETATM   21  H9          0      39.991 101.291 -21.583  1.00  0.00     0.218 HD
ENDBRANCH  17  20
BRANCH  18  22
HETATM   22  O11         0      37.308  99.885 -21.718  1.00  0.00    -0.357 OA
HETATM   23  H11         0      37.411 100.649 -21.162  1.00  0.00     0.218 HD
ENDBRANCH  18  22
ENDBRANCH   4  14
BRANCH   8  24
HETATM   24  O17         0      39.915 104.940 -30.064  1.00  0.00    -0.359 OA
HETATM   25  H17         0      40.020 105.749 -30.552  1.00  0.00     0.218 HD
ENDBRANCH   8  24
TORSDOF 5
ENDMDL
MODEL 2
REMARK VINA RESULT:      -0.3      2.911      4.236
REMARK  5 active torsions:
REMARK  status: ('A' for Active; 'I' for Inactive)
REMARK    1  A    between atoms: C4_4  and  C5_5 
REMARK    2  A    between atoms: C8_8  and  O9_9 
REMARK    3  A    between atoms: C10_11  and  O11_12 
REMARK    4  A    between atoms: C16_18  and  O17_19 
REMARK    5  A    between atoms: C19_22  and  O20_23 
ROOT
HETATM    1  O1          0      36.360 105.517 -25.393  1.00  0.00    -0.286 OA
HETATM    2  C2          0      35.777 104.423 -25.624  1.00  0.00     0.201 C 
HETATM    3  C3          0      36.412 103.197 -25.522  1.00  0.00     0.067 C 
HETATM    4  C4          0      35.776 102.014 -25.881  1.00  0.00     0.103 C 
HETATM    5  O13         0      34.528 102.070 -26.310  1.00  0.00    -0.307 OA
HETATM    6  C14         0      33.891 103.210 -26.461  1.00  0.00     0.107 C 
HETATM    7  C15         0      32.765 103.318 -27.266  1.00  0.00     0.049 C 
HETATM    8  C16         0      32.251 104.558 -27.625  1.00  0.00     0.093 C 
HETATM    9  C18         0      32.558 105.595 -26.753  1.00  0.00     0.048 C 
HETATM   10  C19         0      33.650 105.501 -25.901  1.00  0.00     0.096 C 
HETATM   11  C21         0      34.420 104.371 -25.907  1.00  0.00     0.084 C 
ENDROOT
BRANCH  10  12
HETATM   12  O20         0      34.201 106.664 -25.370  1.00  0.00    -0.359 OA
HETATM   13  H20         0      33.682 107.159 -24.748  1.00  0.00     0.218 HD
ENDBRANCH  10  12
BRANCH   4  14
HETATM   14  C5          0      36.624 100.905 -26.321  1.00  0.00     0.025 C 
HETATM   15  C6          0      36.496 100.309 -27.568  1.00  0.00     0.004 C 
HETATM   16  C7          0      37.662  99.924 -28.222  1.00  0.00     0.026 C 
HETATM   17  C8          0      38.905 100.005 -27.604  1.00  0.00     0.112 C 
HETATM   18  C10         0      38.864  99.996 -26.216  1.00  0.00     0.112 C 
HETATM   19  C12         0      37.718 100.467 -25.586  1.00  0.00     0.028 C 
BRANCH  17  20
HETATM   20  O9          0      40.044 100.284 -28.337  1.00  0.00    -0.357 OA
HETATM   21  H9          0      40.249  99.875 -29.170  1.00  0.00     0.218 HD
ENDBRANCH  17  20
BRANCH  18  22
HETATM   22  O11         0      40.078  99.884 -25.552  1.00  0.00    -0.357 OA
HETATM   23  H11         0      40.820  99.581 -26.062  1.00  0.00     0.218 HD
ENDBRANCH  18  22
ENDBRANCH   4  14
BRANCH   8  24
HETATM   24  O17         0      31.764 104.800 -28.914  1.00  0.00    -0.359 OA
HETATM   25  H17         0      32.348 104.975 -29.643  1.00  0.00     0.218 HD
ENDBRANCH   8  24
TORSDOF 5
ENDMDL
MODEL 3
REMARK VINA RESULT:      -0.2      2.441      6.128
REMARK  5 active torsions:
REMARK  status: ('A' for Active; 'I' for Inactive)
REMARK    1  A    between atoms: C4_4  and  C5_5 
REMARK    2  A    between atoms: C8_8  and  O9_9 
REMARK    3  A    between atoms: C10_11  and  O11_12 
REMARK    4  A    between atoms: C16_18  and  O17_19 
REMARK    5  A    between atoms: C19_22  and  O20_23 
ROOT
HETATM    1  O1          0      35.648 103.211 -23.710  1.00  0.00    -0.286 OA
HETATM    2  C2          0      36.882 103.076 -23.939  1.00  0.00     0.201 C 
HETATM    3  C3          0      37.435 103.252 -25.196  1.00  0.00     0.067 C 
HETATM    4  C4          0      38.780 102.998 -25.442  1.00  0.00     0.103 C 
HETATM    5  O13         0      39.544 102.599 -24.440  1.00  0.00    -0.307 OA
HETATM    6  C14         0      39.061 102.381 -23.236  1.00  0.00     0.107 C 
HETATM    7  C15         0      39.736 101.602 -22.308  1.00  0.00     0.049 C 
HETATM    8  C16         0      39.115 101.166 -21.144  1.00  0.00     0.093 C 
HETATM    9  C18         0      38.050 101.951 -20.718  1.00  0.00     0.048 C 
HETATM   10  C19         0      37.382 102.778 -21.610  1.00  0.00     0.096 C 
HETATM   11  C21         0      37.786 102.834 -22.916  1.00  0.00     0.084 C 
ENDROOT
BRANCH  10  12
HETATM   12  O20         0      36.094 103.206 -21.307  1.00  0.00    -0.359 OA
HETATM   13  H20         0      35.966 103.703 -20.508  1.00  0.00     0.218 HD
ENDBRANCH  10  12
BRANCH   4  14
HETATM   14  C5          0      39.151 102.618 -26.806  1.00  0.00     0.025 C 
HETATM   15  C6          0      40.125 101.669 -27.084  1.00  0.00     0.004 C 
HETATM   16  C7          0      39.900 100.809 -28.154  1.00  0.00     0.026 C 
HETATM   17  C8          0      38.811 100.971 -29.004  1.00  0.00     0.112 C 
HETATM   18  C10         0      38.288 102.257 -29.037  1.00  0.00     0.112 C 
HETATM   19  C12         0      38.454 103.067 -27.920  1.00  0.00     0.028 C 
BRANCH  17  20
HETATM   20  O9          0      38.196  99.876 -29.584  1.00  0.00    -0.357 OA
HETATM   21  H9          0      37.253  99.767 -29.637  1.00  0.00     0.218 HD
ENDBRANCH  17  20
BRANCH  18  22
HETATM   22  O11         0      37.327 102.520 -30.003  1.00  0.00    -0.357 OA
HETATM   23  H11         0      37.068 103.427 -30.117  1.00  0.00     0.218 HD
ENDBRANCH  18  22
ENDBRANCH   4  14
BRANCH   8  24
HETATM   24  O17         0      39.325  99.876 -20.645  1.00  0.00    -0.359 OA
HETATM   25  H17         0      38.918  99.115 -21.042  1.00  0.00     0.218 HD
ENDBRANCH   8  24
TORSDOF 5
ENDMDL
MODEL 4
REMARK VINA RESULT:      -0.2      2.835      3.382
REMARK  5 active torsions:
REMARK  status: ('A' for Active; 'I' for Inactive)
REMARK    1  A    between atoms: C4_4  and  C5_5 
REMARK    2  A    between atoms: C8_8  and  O9_9 
REMARK    3  A    between atoms: C10_11  and  O11_12 
REMARK    4  A    between atoms: C16_18  and  O17_19 
REMARK    5  A    between atoms: C19_22  and  O20_23 
ROOT
HETATM    1  O1          0      33.678 104.509 -26.609  1.00  0.00    -0.286 OA
HETATM    2  C2          0      34.209 103.856 -27.548  1.00  0.00     0.201 C 
HETATM    3  C3          0      34.639 102.548 -27.404  1.00  0.00     0.067 C 
HETATM    4  C4          0      35.314 101.886 -28.423  1.00  0.00     0.103 C 
HETATM    5  O13         0      35.528 102.523 -29.561  1.00  0.00    -0.307 OA
HETATM    6  C14         0      35.174 103.777 -29.737  1.00  0.00     0.107 C 
HETATM    7  C15         0      35.731 104.560 -30.738  1.00  0.00     0.049 C 
HETATM    8  C16         0      35.549 105.938 -30.761  1.00  0.00     0.093 C 
HETATM    9  C18         0      34.410 106.391 -30.107  1.00  0.00     0.048 C 
HETATM   10  C19         0      33.799 105.612 -29.133  1.00  0.00     0.096 C 
HETATM   11  C21         0      34.313 104.382 -28.827  1.00  0.00     0.084 C 
ENDROOT
BRANCH  10  12
HETATM   12  O20         0      32.963 106.220 -28.202  1.00  0.00    -0.359 OA
HETATM   13  H20         0      32.217 105.725 -27.884  1.00  0.00     0.218 HD
ENDBRANCH  10  12
BRANCH   4  14
HETATM   14  C5          0      36.231 100.814 -28.033  1.00  0.00     0.025 C 
HETATM   15  C6          0      37.129 100.233 -28.917  1.00  0.00     0.004 C 
HETATM   16  C7          0      38.388  99.899 -28.430  1.00  0.00     0.026 C 
HETATM   17  C8          0      38.702 100.012 -27.080  1.00  0.00     0.112 C 
HETATM   18  C10         0      37.608  99.981 -26.226  1.00  0.00     0.112 C 
HETATM   19  C12         0      36.377 100.402 -26.714  1.00  0.00     0.028 C 
BRANCH  17  20
HETATM   20  O9          0      39.984 100.342 -26.675  1.00  0.00    -0.357 OA
HETATM   21  H9          0      40.269 100.336 -25.769  1.00  0.00     0.218 HD
ENDBRANCH  17  20
BRANCH  18  22
HETATM   22  O11         0      37.874  99.900 -24.866  1.00  0.00    -0.357 OA
HETATM   23  H11         0      37.138 100.013 -24.276  1.00  0.00     0.218 HD
ENDBRANCH  18  22
ENDBRANCH   4  14
BRANCH   8  24
HETATM   24  O17         0      36.590 106.805 -31.113  1.00  0.00    -0.359 OA
HETATM   25  H17         0      36.859 107.518 -30.545  1.00  0.00     0.218 HD
ENDBRANCH   8  24
TORSDOF 5
ENDMDL
MODEL 5
REMARK VINA RESULT:      -0.2      4.161      5.255
REMARK  5 active torsions:
REMARK  status: ('A' for Active; 'I' for Inactive)
REMARK    1  A    between atoms: C4_4  and  C5_5 
REMARK    2  A    between atoms: C8_8  and  O9_9 
REMARK    3  A    between atoms: C10_11  and  O11_12 
REMARK    4  A    between atoms: C16_18  and  O17_19 
REMARK    5  A    between atoms: C19_22  and  O20_23 
ROOT
HETATM    1  O1          0      33.658 100.473 -31.025  1.00  0.00    -0.286 OA
HETATM    2  C2          0      34.063 100.914 -29.915  1.00  0.00     0.201 C 
HETATM    3  C3          0      35.353 100.715 -29.454  1.00  0.00     0.067 C 
HETATM    4  C4          0      35.744 101.122 -28.183  1.00  0.00     0.103 C 
HETATM    5  O13         0      34.861 101.732 -27.413  1.00  0.00    -0.307 OA
HETATM    6  C14         0      33.613 101.912 -27.787  1.00  0.00     0.107 C 
HETATM    7  C15         0      32.605 102.173 -26.870  1.00  0.00     0.049 C 
HETATM    8  C16         0      31.265 102.110 -27.233  1.00  0.00     0.093 C 
HETATM    9  C18         0      31.013 102.307 -28.585  1.00  0.00     0.048 C 
HETATM   10  C19         0      32.013 102.101 -29.526  1.00  0.00     0.096 C 
HETATM   11  C21         0      33.261 101.716 -29.118  1.00  0.00     0.084 C 
ENDROOT
BRANCH  10  12
HETATM   12  O20         0      31.662 101.873 -30.853  1.00  0.00    -0.359 OA
HETATM   13  H20         0      30.740 101.772 -31.059  1.00  0.00     0.218 HD
ENDBRANCH  10  12
BRANCH   4  14
HETATM   14  C5          0      36.842 100.387 -27.552  1.00  0.00     0.025 C 
HETATM   15  C6          0      38.060 100.169 -28.180  1.00  0.00     0.004 C 
HETATM   16  C7          0      39.209 100.238 -27.399  1.00  0.00     0.026 C 
HETATM   17  C8          0      39.145 100.385 -26.018  1.00  0.00     0.112 C 
HETATM   18  C10         0      37.952  99.963 -25.445  1.00  0.00     0.112 C 
HETATM   19  C12         0      36.801  99.985 -26.224  1.00  0.00     0.028 C 
BRANCH  17  20
HETATM   20  O9          0      40.117 101.093 -25.335  1.00  0.00    -0.357 OA
HETATM   21  H9          0      40.194 101.105 -24.387  1.00  0.00     0.218 HD
ENDBRANCH  17  20
BRANCH  18  22
HETATM   22  O11         0      37.905  99.911 -24.059  1.00  0.00    -0.357 OA
HETATM   23  H11         0      37.716  99.066 -23.667  1.00  0.00     0.218 HD
ENDBRANCH  18  22
ENDBRANCH   4  14
BRANCH   8  24
HETATM   24  O17         0      30.303 101.560 -26.378  1.00  0.00    -0.359 OA
HETATM   25  H17         0      30.342 100.652 -26.101  1.00  0.00     0.218 HD
ENDBRANCH   8  24
TORSDOF 5
ENDMDL
MODEL 6
REMARK VINA RESULT:      -0.2      2.327      6.213
REMARK  5 active torsions:
REMARK  status: ('A' for Active; 'I' for Inactive)
REMARK    1  A    between atoms: C4_4  and  C5_5 
REMARK    2  A    between atoms: C8_8  and  O9_9 
REMARK    3  A    between atoms: C10_11  and  O11_12 
REMARK    4  A    between atoms: C16_18  and  O17_19 
REMARK    5  A    between atoms: C19_22  and  O20_23 
ROOT
HETATM    1  O1          0      38.493 103.207 -29.965  1.00  0.00    -0.286 OA
HETATM    2  C2          0      37.585 102.897 -29.146  1.00  0.00     0.201 C 
HETATM    3  C3          0      36.463 103.681 -28.936  1.00  0.00     0.067 C 
HETATM    4  C4          0      35.529 103.369 -27.955  1.00  0.00     0.103 C 
HETATM    5  O13         0      35.715 102.284 -27.224  1.00  0.00    -0.307 OA
HETATM    6  C14         0      36.782 101.526 -27.356  1.00  0.00     0.107 C 
HETATM    7  C15         0      37.182 100.647 -26.361  1.00  0.00     0.049 C 
HETATM    8  C16         0      38.433 100.043 -26.392  1.00  0.00     0.093 C 
HETATM    9  C18         0      39.000  99.933 -27.656  1.00  0.00     0.048 C 
HETATM   10  C19         0      38.590 100.765 -28.688  1.00  0.00     0.096 C 
HETATM   11  C21         0      37.606 101.690 -28.464  1.00  0.00     0.084 C 
ENDROOT
BRANCH  10  12
HETATM   12  O20         0      39.427 100.956 -29.783  1.00  0.00    -0.359 OA
HETATM   13  H20         0      39.876 100.198 -30.137  1.00  0.00     0.218 HD
ENDBRANCH  10  12
BRANCH   4  14
HETATM   14  C5          0      34.757 104.477 -27.389  1.00  0.00     0.025 C 
HETATM   15  C6          0      34.264 104.464 -26.092  1.00  0.00     0.004 C 
HETATM   16  C7          0      34.293 105.659 -25.380  1.00  0.00     0.026 C 
HETATM   17  C8          0      34.673 106.855 -25.978  1.00  0.00     0.112 C 
HETATM   18  C10         0      34.529 106.885 -27.359  1.00  0.00     0.112 C 
HETATM   19  C12         0      34.589 105.684 -28.055  1.00  0.00     0.028 C 
BRANCH  17  20
HETATM   20  O9          0      35.335 107.831 -25.253  1.00  0.00    -0.357 OA
HETATM   21  H9          0      34.894 108.527 -24.779  1.00  0.00     0.218 HD
ENDBRANCH  17  20
BRANCH  18  22
HETATM   22  O11         0      34.713 108.110 -27.983  1.00  0.00    -0.357 OA
HETATM   23  H11         0      34.739 108.109 -28.933  1.00  0.00     0.218 HD
ENDBRANCH  18  22
ENDBRANCH   4  14
BRANCH   8  24
HETATM   24  O17         0      39.192  99.875 -25.228  1.00  0.00    -0.359 OA
HETATM   25  H17         0      39.780 100.551 -24.914  1.00  0.00     0.218 HD
ENDBRANCH   8  24
TORSDOF 5
ENDMDL
MODEL 7
REMARK VINA RESULT:      -0.2      5.430      8.054
REMARK  5 active torsions:
REMARK  status: ('A' for Active; 'I' for Inactive)
REMARK    1  A    between atoms: C4_4  and  C5_5 
REMARK    2  A    between atoms: C8_8  and  O9_9 
REMARK    3  A    between atoms: C10_11  and  O11_12 
REMARK    4  A    between atoms: C16_18  and  O17_19 
REMARK    5  A    between atoms: C19_22  and  O20_23 
ROOT
HETATM    1  O1          0      34.816 102.205 -22.589  1.00  0.00    -0.286 OA
HETATM    2  C2          0      35.556 102.703 -21.697  1.00  0.00     0.201 C 
HETATM    3  C3          0      35.488 104.035 -21.324  1.00  0.00     0.067 C 
HETATM    4  C4          0      36.384 104.583 -20.413  1.00  0.00     0.103 C 
HETATM    5  O13         0      37.305 103.800 -19.879  1.00  0.00    -0.307 OA
HETATM    6  C14         0      37.436 102.538 -20.226  1.00  0.00     0.107 C 
HETATM    7  C15         0      38.608 101.834 -19.992  1.00  0.00     0.049 C 
HETATM    8  C16         0      38.836 100.596 -20.580  1.00  0.00     0.093 C 
HETATM    9  C18         0      37.690  99.896 -20.939  1.00  0.00     0.048 C 
HETATM   10  C19         0      36.489 100.564 -21.136  1.00  0.00     0.096 C 
HETATM   11  C21         0      36.429 101.919 -20.959  1.00  0.00     0.084 C 
ENDROOT
BRANCH  10  12
HETATM   12  O20         0      35.491  99.960 -21.895  1.00  0.00    -0.359 OA
HETATM   13  H20         0      35.384 100.243 -22.795  1.00  0.00     0.218 HD
ENDBRANCH  10  12
BRANCH   4  14
HETATM   14  C5          0      36.653 106.018 -20.518  1.00  0.00     0.025 C 
HETATM   15  C6          0      37.934 106.549 -20.457  1.00  0.00     0.004 C 
HETATM   16  C7          0      38.228 107.619 -21.296  1.00  0.00     0.026 C 
HETATM   17  C8          0      37.248 108.229 -22.071  1.00  0.00     0.112 C 
HETATM   18  C10         0      35.951 108.063 -21.603  1.00  0.00     0.112 C 
HETATM   19  C12         0      35.665 106.940 -20.837  1.00  0.00     0.028 C 
BRANCH  17  20
HETATM   20  O9          0      37.554 108.763 -23.310  1.00  0.00    -0.357 OA
HETATM   21  H9          0      37.340 109.652 -23.570  1.00  0.00     0.218 HD
ENDBRANCH  17  20
BRANCH  18  22
HETATM   22  O11         0      34.958 108.804 -22.227  1.00  0.00    -0.357 OA
HETATM   23  H11         0      34.152 108.348 -22.442  1.00  0.00     0.218 HD
ENDBRANCH  18  22
ENDBRANCH   4  14
BRANCH   8  24
HETATM   24  O17         0      40.098 100.244 -21.074  1.00  0.00    -0.359 OA
HETATM   25  H17         0      40.633 100.860 -21.561  1.00  0.00     0.218 HD
ENDBRANCH   8  24
TORSDOF 5
ENDMDL
MODEL 8
REMARK VINA RESULT:      -0.2      3.394      4.982
REMARK  5 active torsions:
REMARK  status: ('A' for Active; 'I' for Inactive)
REMARK    1  A    between atoms: C4_4  and  C5_5 
REMARK    2  A    between atoms: C8_8  and  O9_9 
REMARK    3  A    between atoms: C10_11  and  O11_12 
REMARK    4  A    between atoms: C16_18  and  O17_19 
REMARK    5  A    between atoms: C19_22  and  O20_23 
ROOT
HETATM    1  O1          0      35.200 102.954 -28.505  1.00  0.00    -0.286 OA
HETATM    2  C2          0      35.263 102.030 -27.647  1.00  0.00     0.201 C 
HETATM    3  C3          0      34.258 101.793 -26.725  1.00  0.00     0.067 C 
HETATM    4  C4          0      34.397 100.837 -25.726  1.00  0.00     0.103 C 
HETATM    5  O13         0      35.511 100.128 -25.676  1.00  0.00    -0.307 OA
HETATM    6  C14         0      36.511 100.338 -26.505  1.00  0.00     0.107 C 
HETATM    7  C15         0      37.797  99.902 -26.223  1.00  0.00     0.049 C 
HETATM    8  C16         0      38.887 100.341 -26.965  1.00  0.00     0.093 C 
HETATM    9  C18         0      38.586 100.767 -28.253  1.00  0.00     0.048 C 
HETATM   10  C19         0      37.298 101.166 -28.582  1.00  0.00     0.096 C 
HETATM   11  C21         0      36.312 101.124 -27.634  1.00  0.00     0.084 C 
ENDROOT
BRANCH  10  12
HETATM   12  O20         0      37.100 101.979 -29.694  1.00  0.00    -0.359 OA
HETATM   13  H20         0      36.581 101.634 -30.410  1.00  0.00     0.218 HD
ENDBRANCH  10  12
BRANCH   4  14
HETATM   14  C5          0      33.637 101.042 -24.491  1.00  0.00     0.025 C 
HETATM   15  C6          0      34.128 100.698 -23.240  1.00  0.00     0.004 C 
HETATM   16  C7          0      33.841 101.550 -22.178  1.00  0.00     0.026 C 
HETATM   17  C8          0      32.984 102.635 -22.325  1.00  0.00     0.112 C 
HETATM   18  C10         0      32.084 102.525 -23.376  1.00  0.00     0.112 C 
HETATM   19  C12         0      32.433 101.734 -24.464  1.00  0.00     0.028 C 
BRANCH  17  20
HETATM   20  O9          0      33.183 103.798 -21.603  1.00  0.00    -0.357 OA
HETATM   21  H9          0      34.004 104.278 -21.590  1.00  0.00     0.218 HD
ENDBRANCH  17  20
BRANCH  18  22
HETATM   22  O11         0      31.087 103.487 -23.453  1.00  0.00    -0.357 OA
HETATM   23  H11         0      30.220 103.232 -23.157  1.00  0.00     0.218 HD
ENDBRANCH  18  22
ENDBRANCH   4  14
BRANCH   8  24
HETATM   24  O17         0      40.109 100.647 -26.355  1.00  0.00    -0.359 OA
HETATM   25  H17         0      40.777  99.986 -26.217  1.00  0.00     0.218 HD
ENDBRANCH   8  24
TORSDOF 5
ENDMDL
MODEL 9
REMARK VINA RESULT:      -0.2      3.269      4.491
REMARK  5 active torsions:
REMARK  status: ('A' for Active; 'I' for Inactive)
REMARK    1  A    between atoms: C4_4  and  C5_5 
REMARK    2  A    between atoms: C8_8  and  O9_9 
REMARK    3  A    between atoms: C10_11  and  O11_12 
REMARK    4  A    between atoms: C16_18  and  O17_19 
REMARK    5  A    between atoms: C19_22  and  O20_23 
ROOT
HETATM    1  O1          0      34.923 102.776 -28.962  1.00  0.00    -0.286 OA
HETATM    2  C2          0      35.259 102.100 -27.951  1.00  0.00     0.201 C 
HETATM    3  C3          0      34.720 102.313 -26.694  1.00  0.00     0.067 C 
HETATM    4  C4          0      35.181 101.625 -25.578  1.00  0.00     0.103 C 
HETATM    5  O13         0      36.143 100.733 -25.735  1.00  0.00    -0.307 OA
HETATM    6  C14         0      36.715 100.519 -26.900  1.00  0.00     0.107 C 
HETATM    7  C15         0      37.956  99.907 -27.004  1.00  0.00     0.049 C 
HETATM    8  C16         0      38.665  99.912 -28.199  1.00  0.00     0.093 C 
HETATM    9  C18         0      37.889 100.060 -29.342  1.00  0.00     0.048 C 
HETATM   10  C19         0      36.623 100.626 -29.266  1.00  0.00     0.096 C 
HETATM   11  C21         0      36.129 101.026 -28.055  1.00  0.00     0.084 C 
ENDROOT
BRANCH  10  12
HETATM   12  O20         0      36.049 101.163 -30.414  1.00  0.00    -0.359 OA
HETATM   13  H20         0      36.384 101.992 -30.734  1.00  0.00     0.218 HD
ENDBRANCH  10  12
BRANCH   4  14
HETATM   14  C5          0      35.035 102.282 -24.278  1.00  0.00     0.025 C 
HETATM   15  C6          0      34.105 103.284 -24.042  1.00  0.00     0.004 C 
HETATM   16  C7          0      33.464 103.291 -22.807  1.00  0.00     0.026 C 
HETATM   17  C8          0      33.829 102.416 -21.791  1.00  0.00     0.112 C 
HETATM   18  C10         0      35.125 101.924 -21.886  1.00  0.00     0.112 C 
HETATM   19  C12         0      35.711 101.848 -23.144  1.00  0.00     0.028 C 
BRANCH  17  20
HETATM   20  O9          0      32.888 101.932 -20.899  1.00  0.00    -0.357 OA
HETATM   21  H9          0      32.693 102.342 -20.064  1.00  0.00     0.218 HD
ENDBRANCH  17  20
BRANCH  18  22
HETATM   22  O11         0      35.603 101.200 -20.804  1.00  0.00    -0.357 OA
HETATM   23  H11         0      35.570 101.624 -19.954  1.00  0.00     0.218 HD
ENDBRANCH  18  22
ENDBRANCH   4  14
BRANCH   8  24
HETATM   24  O17         0      40.052 100.096 -28.222  1.00  0.00    -0.359 OA
HETATM   25  H17         0      40.637  99.544 -27.717  1.00  0.00     0.218 HD
ENDBRANCH   8  24
TORSDOF 5
ENDMDL
